#------------------------------------------------------------------------------
#$Date: 2019-11-08 00:27:12 +0200 (Fri, 08 Nov 2019) $
#$Revision: 224262 $
#$URL: file:///home/coder/svn-repositories/cod/cif/7/70/12/7701231.cif $
#------------------------------------------------------------------------------
#
# This file is available in the Crystallography Open Database (COD),
# http://www.crystallography.net/
#
# All data on this site have been placed in the public domain by the
# contributors.
#
data_7701231
loop_
_publ_author_name
'Stein, Timo'
'Hoffmann, Frank'
'Fr\"oba, Michael'
_publ_section_title
;
 A new set of metal-organic frameworks synthesised from
 diisophthalate-based, 2'-phosphorus-substituted m-terphenyl linker
 molecules.
;
_journal_issue                   40
_journal_name_full
'Dalton transactions (Cambridge, England : 2003)'
_journal_page_first              15127
_journal_page_last               15135
_journal_paper_doi               10.1039/c9dt03044a
_journal_volume                  48
_journal_year                    2019
_chemical_formula_moiety
'(C204 H114 Cu12 O54 P6), 10(O), 2(O), 0.53(O), 0.47(Cl -), 0.47(C2 H8 N +)'
_chemical_formula_sum            'C204.94 H117.76 Cl0.47 Cu12 N0.47 O66.53 P6'
_chemical_formula_weight         4615.80
_chemical_name_common            UHM-63
_space_group_crystal_system      orthorhombic
_space_group_IT_number           71
_space_group_name_Hall           '-I 2 2'
_space_group_name_H-M_alt        'I m m m'
_symmetry_space_group_name_Hall  '-I 2 2'
_symmetry_space_group_name_H-M   'I m m m'
_atom_sites_solution_hydrogens   geom
_atom_sites_solution_primary     dual
_atom_sites_solution_secondary   difmap
_audit_creation_method           SHELXL-2018/3
_audit_update_record
;
2019-07-24 deposited with the CCDC.    2019-08-14 downloaded from the CCDC.
;
_cell_angle_alpha                90
_cell_angle_beta                 90
_cell_angle_gamma                90
_cell_formula_units_Z            2
_cell_length_a                   18.6420(4)
_cell_length_b                   25.2812(4)
_cell_length_c                   33.3107(6)
_cell_measurement_reflns_used    9786
_cell_measurement_temperature    100(2)
_cell_measurement_theta_max      69.0350
_cell_measurement_theta_min      3.9330
_cell_volume                     15699.1(5)
_computing_cell_refinement       'CrysAlisPro 1.171.39.46 (Rigaku OD, 2018)'
_computing_data_collection       'CrysAlisPro 1.171.39.46 (Rigaku OD, 2018)'
_computing_data_reduction        'CrysAlisPro 1.171.39.46 (Rigaku OD, 2018)'
_computing_structure_refinement  'SHELXL-2018/3 (Sheldrick, 2018)'
_computing_structure_solution    'SHELXT 2018/2 (Sheldrick, 2018)'
_diffrn_ambient_environment      N~2~
_diffrn_ambient_temperature      100(2)
_diffrn_detector                 'CCD plate'
_diffrn_detector_area_resol_mean 10.4127
_diffrn_detector_type            Atlas
_diffrn_measured_fraction_theta_full 0.962
_diffrn_measured_fraction_theta_max 0.962
_diffrn_measurement_details
;
List of Runs (angles in degrees, time in seconds):

  # Type    Start    End  Width  t~exp~   \w     \q     \k     \f   Frames
#--------------------------------------------------------------------------
  1  \w   -104.00 -79.00   1.00   35.00    --  -42.35 -57.00 -60.00   25
  2  \w    -63.00 -10.00   1.00   35.00    --  -42.35 -77.00 -90.00   53
  3  \w   -117.00 -19.00   1.00   35.00    --  -42.35 -38.00  90.00   98
  4  \w    -67.00 -11.00   1.00   35.00    --  -42.35 -77.00 150.00   56
  5  \w    -51.00 -10.00   1.00   35.00    --  -42.35 -77.00  60.00   41
  6  \w    -57.00 -13.00   1.00   35.00    --  -42.35 -77.00-150.00   44
  7  \w    -58.00 -14.00   1.00   35.00    --  -42.35 -57.00 -60.00   44
  8  \w    -95.00  -2.00   1.00   35.00    --  -42.35 125.00-180.00   93
  9  \w   -104.00 -70.00   1.00   35.00    --  -42.35 -77.00  60.00   34
 10  \w   -118.00 -84.00   1.00   35.00    --  -42.35 -77.00   0.00   34
 11  \w   -119.00 -71.00   1.00   35.00    --  -42.35 -77.00 -90.00   48
 12  \w    -43.00 -10.00   1.00   35.00    --  -42.35 -77.00   0.00   33
 13  \w      3.00  56.00   1.00   35.00    --   42.35 -99.00 120.00   53
 14  \w     24.00  85.00   1.00   35.00    --   42.35-125.00   0.00   61
 15  \w      3.00 112.00   1.00   35.00    --   42.35  19.00-120.00  109
 16  \w     18.00 109.00   1.00  140.00    --  100.87 -94.00  30.00   91
 17  \w     72.00 156.00   1.00  140.00    --  100.87  61.00 -90.00   84
 18  \w     71.00 125.00   1.00  140.00    --  100.87  65.00-142.43   54
 19  \w     72.00 172.00   1.00  140.00    --  100.87  61.00-180.00  100
 20  \w     74.00 149.00   1.00  140.00    --  100.87  61.00 150.00   75
 21  \w    120.00 169.00   1.00  140.00    --  100.87  73.00  42.89   49
 22  \w     69.00  95.00   1.00  140.00    --  100.87  73.00 -88.24   26
 23  \w     28.00  73.00   1.00  140.00    --  100.87 -45.00  30.00   45
;
_diffrn_measurement_device       'four-circle diffractometer'
_diffrn_measurement_device_type  'SuperNova, Dual, Cu at home/near, Atlas'
_diffrn_measurement_method       '\w scans'
_diffrn_orient_matrix_type
'CrysAlisPro convention (1999,Acta A55,543-557)'
_diffrn_orient_matrix_UB_11      -0.0545309000
_diffrn_orient_matrix_UB_12      0.0219702000
_diffrn_orient_matrix_UB_13      -0.0304823000
_diffrn_orient_matrix_UB_21      0.0599778000
_diffrn_orient_matrix_UB_22      0.0048443000
_diffrn_orient_matrix_UB_23      -0.0316197000
_diffrn_orient_matrix_UB_31      -0.0159969000
_diffrn_orient_matrix_UB_32      -0.0566301000
_diffrn_orient_matrix_UB_33      -0.0145190000
_diffrn_radiation_monochromator  mirror
_diffrn_radiation_probe          x-ray
_diffrn_radiation_type           CuK\a
_diffrn_radiation_wavelength     1.54184
_diffrn_reflns_av_R_equivalents  0.0770
_diffrn_reflns_av_unetI/netI     0.0490
_diffrn_reflns_Laue_measured_fraction_full 0.962
_diffrn_reflns_Laue_measured_fraction_max 0.962
_diffrn_reflns_limit_h_max       22
_diffrn_reflns_limit_h_min       -20
_diffrn_reflns_limit_k_max       29
_diffrn_reflns_limit_k_min       -27
_diffrn_reflns_limit_l_max       38
_diffrn_reflns_limit_l_min       -39
_diffrn_reflns_number            58750
_diffrn_reflns_point_group_measured_fraction_full 0.962
_diffrn_reflns_point_group_measured_fraction_max 0.962
_diffrn_reflns_theta_full        67.491
_diffrn_reflns_theta_max         67.491
_diffrn_reflns_theta_min         3.497
_diffrn_source                   'micro-focus sealed X-ray tube'
_diffrn_source_type              'SuperNova (Cu) X-ray Source'
_exptl_absorpt_coefficient_mu    1.664
_exptl_absorpt_correction_T_max  1.00000
_exptl_absorpt_correction_T_min  0.81102
_exptl_absorpt_correction_type   multi-scan
_exptl_absorpt_process_details
;
CrysAlisPro 1.171.39.46 (Rigaku Oxford Diffraction, 2018)
Empirical absorption correction using spherical harmonics,
 implemented in SCALE3 ABSPACK scaling algorithm.
;
_exptl_crystal_colour            blue
_exptl_crystal_density_diffrn    0.976
_exptl_crystal_description       block
_exptl_crystal_F_000             4658
_exptl_crystal_size_max          0.20
_exptl_crystal_size_mid          0.20
_exptl_crystal_size_min          0.08
_refine_diff_density_max         1.040
_refine_diff_density_min         -1.206
_refine_diff_density_rms         0.114
_refine_ls_extinction_method     none
_refine_ls_goodness_of_fit_ref   1.209
_refine_ls_hydrogen_treatment    constr
_refine_ls_matrix_type           full
_refine_ls_number_parameters     368
_refine_ls_number_reflns         7346
_refine_ls_number_restraints     426
_refine_ls_restrained_S_all      1.209
_refine_ls_R_factor_all          0.1552
_refine_ls_R_factor_gt           0.1168
_refine_ls_shift/su_max          0.000
_refine_ls_shift/su_mean         0.000
_refine_ls_structure_factor_coef Fsqd
_refine_ls_weighting_details
'w=1/[\s^2^(Fo^2^)+(0.2000P)^2^] where P=(Fo^2^+2Fc^2^)/3'
_refine_ls_weighting_scheme      calc
_refine_ls_wR_factor_gt          0.3273
_refine_ls_wR_factor_ref         0.3726
_reflns_Friedel_coverage         0.000
_reflns_number_gt                3745
_reflns_number_total             7346
_reflns_threshold_expression     'I > 2\s(I)'
_cod_data_source_file            c9dt03044a2.cif
_cod_data_source_block           UHM-63
_cod_depositor_comments
'Adding full bibliography for 7701221--7701232.cif.'
_cod_database_code               7701231
_shelx_shelxl_version_number     2018/3
_shelx_space_group_comment
;
The symmetry employed for this shelxl refinement is uniquely defined
by the following loop, which should always be used as a source of
symmetry information in preference to the above space-group names.
They are only intended as comments.
;
_cell_oxdiff_length_a            18.6453(5)
_cell_oxdiff_length_b            25.2819(4)
_cell_oxdiff_length_c            33.3039(8)
_cell_oxdiff_angle_alpha         89.9864(16)
_cell_oxdiff_angle_beta          89.970(2)
_cell_oxdiff_angle_gamma         89.9818(18)
_cell_oxdiff_volume              15699.0(6)
_cell_oxdiff_measurement_reflns_used 9786
_shelx_estimated_absorpt_t_min   0.732
_shelx_estimated_absorpt_t_max   0.878
_oxdiff_exptl_absorpt_empirical_full_min 0.705
_oxdiff_exptl_absorpt_empirical_full_max 1.412
_oxdiff_exptl_absorpt_empirical_details
;
Empirical correction (ABSPACK) includes:
- Absorption correction using spherical harmonics
- Frame scaling
;
_shelx_res_file
;
TITL UHM-63 in Immm
    .\UHM-63.res
    created by SHELXL-2018/3 at 10:03:12 on 07-Mar-2019

REM SHELXT solution in Immm: R1 0.264, Rweak 0.030, Alpha 0.061
REM <I/s>   0.000 for    0 systematic absences,  Orientation as input
REM Formula found by SHELXT:  C146 O106 P9 Cu12

CELL  1.54184  18.6420  25.2812  33.3107   90.000   90.000   90.000
ZERR   2.0   0.0004   0.0004   0.0006    0.000    0.000    0.000
LATT  2
SYMM -X, -Y,  Z
SYMM -X,  Y, -Z
SYMM  X, -Y, -Z
SFAC C      H      O      P  CU CL   N
UNIT 409.87 235.47 133.07 12 24 0.93 0.93

MERG   2
REM cut weak data and disagreeable reflections Fo^2 >> Fc^2
OMIT -4 135
OMIT 1 5 2
OMIT 0 3 5

EQIV $1 1-x,-y,z
EQIV $2 1-x,y,z
EQIV $3 x,y,-z
EQIV $4 x,-y,z
EQIV $5 x,-y,-z

RIGU
REM idealize disordered rings
FLAT C20B C21B C22B C23B C22B_$3 C21B_$3
REM idealize disordered rings 2
DFIX  1.39 0.01 C20B C21B C21B C22B C22B C23B
SADI C21B C21B_$3 C20B C22B C21B C23B C22B C22B_$3
REM idealize disordered rings 3
DFIX  1.39 C20A C21A C21A C22A C22A C23A
SADI C20A C22A C21A C23A C21A C21A_$1 C22A C22A_$1
REM idealize disordered rings 4
DFIX  1.39 C12A C11A C12A C13A C11A C10A
SADI C12A C10A C12A C12A_$2 C11A C13A C11A C11A_$2
REM idealize POPh2 groups
DFIX  1.488 0.01 P40A O40A P40B O40B
DFIX  1.806 0.01 P40A C40A P40B C40B
DFIX  1.830 0.01 P40A C20A P40B C20B
REM very soft phenyl groups
ISOR 0.05 C40B > C45B
REM idealize Me2NH2+ cation
ISOR 0.05 N60 C60
DFIX 1.51 N60 C60
DANG 2.53 C60 C60_$5
REM handle Cl/O sites: assume same ADP and coordinates
EXYZ O1 CL1
EADP O1 CL1

L.S. 5 0  138
BOND $H
FMAP 2
PLAN 99
MORE -1
ACTA
SIZE 0.20 0.20 0.08
TEMP  -173

REM we don't need those bonds
FREE C40A C40A_$2
FREE C40A C41A_$2
FREE C40A C42A_$2
FREE C40A C43A_$2
FREE C40A C44A_$2
FREE C40A C45A_$2
FREE C41A C40A_$2
FREE C41A C41A_$2
FREE C41A C42A_$2
FREE C41A C43A_$2
FREE C41A C44A_$2
FREE C41A C45A_$2
FREE C42A C40A_$2
FREE C42A C41A_$2
FREE C42A C42A_$2
FREE C42A C43A_$2
FREE C42A C44A_$2
FREE C42A C45A_$2
FREE C43A C40A_$2
FREE C43A C41A_$2
FREE C43A C42A_$2
FREE C43A C43A_$2
FREE C43A C44A_$2
FREE C43A C45A_$2
FREE C44A C40A_$2
FREE C44A C41A_$2
FREE C44A C42A_$2
FREE C44A C43A_$2
FREE C44A C44A_$2
FREE C44A C45A_$2
FREE C45A C40A_$2
FREE C45A C41A_$2
FREE C45A C42A_$2
FREE C45A C43A_$2
FREE C45A C44A_$2
FREE C45A C45A_$2
FREE C40A H41A_$2
FREE C40A H42A_$2
FREE C40A H43A_$2
FREE C40A H44A_$2
FREE C40A H45A_$2
FREE C41A H41A_$2
FREE C41A H42A_$2
FREE C41A H43A_$2
FREE C41A H44A_$2
FREE C41A H45A_$2
FREE C42A H41A_$2
FREE C42A H42A_$2
FREE C42A H43A_$2
FREE C42A H44A_$2
FREE C42A H45A_$2
FREE C43A H41A_$2
FREE C43A H42A_$2
FREE C43A H43A_$2
FREE C43A H44A_$2
FREE C43A H45A_$2
FREE C44A H41A_$2
FREE C44A H42A_$2
FREE C44A H43A_$2
FREE C44A H44A_$2
FREE C44A H45A_$2
FREE C45A H41A_$2
FREE C45A H42A_$2
FREE C45A H43A_$2
FREE C45A H44A_$2
FREE C45A H45A_$2
FREE P40A C40A_$1
FREE P40A C40A_$2
FREE P40A C40A_$4
FREE P40A P40A_$1
FREE P40A O40A_$1
FREE O40A C41A_$2
FREE O40A C41A_$1
FREE O40A P40A_$1
FREE O40A H41A_$2
FREE C20A P40A_$1
FREE C40A P40A_$1
FREE C41A O40A_$1

ABIN

WGHT    0.200000
FVAR       0.10337   0.53155
O1    3    0.000000    0.000000    0.000000    20.12500    0.10588
CL1   6    0.000000    0.000000    0.000000   -20.12500    0.10588
REM interstitial site above

REM free O-type atom, might be water
O50   3    0.000000    0.112104    0.000000    10.25000    0.23121    0.09639 =
         0.21788    0.00000    0.00000    0.00000

REM paddle-wheels
O100  3    0.158712    0.146651    0.299891    11.00000    0.12407    0.11432 =
         0.13541    0.02650    0.02140   -0.01278
O200  3    0.000000    0.000000    0.222838    10.25000    0.22233    0.06778 =
         0.04925    0.00000    0.00000    0.00000
CU1   5    0.214143    0.212228    0.269246    11.00000    0.07625    0.07857 =
         0.08381    0.00491   -0.00528   -0.01200
CU2   5    0.000000    0.000000    0.151335    10.25000    0.16137    0.06070 =
         0.06974    0.00000    0.00000    0.00000
CU3   5    0.000000    0.000000    0.071893    10.25000    0.14845    0.05284 =
         0.06759    0.00000    0.00000    0.00000

REM 'A' is the first m-terphenyl within the ASU
P40A  4    0.519723    0.000000    0.245731    10.25000    0.11689    0.08480 =
         0.10064    0.00000    0.01946    0.00000
O10A  3    0.309086    0.183175    0.278281    11.00000    0.07776    0.10863 =
         0.10068    0.01855   -0.00727   -0.00640
O11A  3    0.370492    0.246617    0.245374    11.00000    0.07478    0.09177 =
         0.10475    0.01156   -0.00452   -0.01040
O40A  3    0.600125    0.000000    0.241285    10.25000    0.13988    0.37323 =
         0.19000    0.00000    0.05794    0.00000
C10A  1    0.500000    0.101752    0.300899    10.50000    0.10184    0.06673 =
         0.10168   -0.01067    0.00000    0.00000
C11A  1    0.435486    0.127979    0.293452    11.00000    0.08967    0.07799 =
         0.09932    0.00040   -0.00552    0.00074
AFIX  43
H11A  2    0.391257    0.111667    0.300337    11.00000   -1.20000
AFIX   0
C12A  1    0.435781    0.177494    0.276129    11.00000    0.07624    0.07692 =
         0.09096   -0.01100   -0.00118   -0.00192
C13A  1    0.500000    0.202214    0.267499    10.50000    0.07841    0.06691 =
         0.08560   -0.00563    0.00000    0.00000
AFIX  43
H13A  2    0.500000    0.236352    0.255580    10.50000   -1.20000
AFIX   0
C14A  1    0.367330    0.205437    0.265945    11.00000    0.07825    0.08896 =
         0.08994   -0.00705    0.00229    0.00017
C20A  1    0.500000    0.000000    0.299302    10.25000    0.07906    0.06928 =
         0.10985    0.00000    0.00000    0.00000
C21A  1    0.500000    0.047366    0.320140    10.50000    0.13779    0.06322 =
         0.10796   -0.00078    0.00000    0.00000
C22A  1    0.500000    0.047262    0.361203    10.50000    0.56123    0.06843 =
         0.10490   -0.00225    0.00000    0.00000
AFIX  43
H22A  2    0.500000    0.079807    0.375460    10.50000   -1.20000
AFIX   0
C23A  1    0.500000    0.000000    0.382011    10.25000    1.02615    0.07834 =
         0.09764    0.00000    0.00000    0.00000
AFIX  43
H23A  2    0.500000    0.000000    0.410530    10.25000   -1.20000
AFIX  66
C40A  1    0.471066    0.051395    0.220999    10.50000    0.23473    0.06043 =
         0.10807   -0.00736   -0.01346    0.01348
C41A  1    0.397645    0.059033    0.216607    10.50000    0.24414    0.10984 =
         0.22458    0.00175    0.00274    0.05985
AFIX  43
H41A  2    0.364872    0.037069    0.230717    10.50000   -1.20000
AFIX  65
C42A  1    0.372175    0.098807    0.191571    10.50000    0.28122    0.21716 =
         0.20680    0.03739   -0.00355    0.11223
AFIX  43
H42A  2    0.321994    0.104027    0.188570    10.50000   -1.20000
AFIX  65
C43A  1    0.420126    0.130943    0.170925    10.50000    0.33659    0.18033 =
         0.14863    0.00112   -0.06261    0.03618
AFIX  43
H43A  2    0.402718    0.158127    0.153814    10.50000   -1.20000
AFIX  65
REM SHELXL will apply special position constraints on C44A, we don't want that
REM it will cause formula discrepancies
PART -1
C44A  1    0.493547    0.123306    0.175316    10.50000    0.32300    0.22995 =
         0.17498    0.07621   -0.00411    0.03678
AFIX  43
H44A  2    0.526319    0.145270    0.161206    10.50000   -1.20000
AFIX  65
PART 0
C45A  1    0.519018    0.083532    0.200352    10.50000    0.28117    0.11491 =
         0.20949    0.04362    0.05230    0.03126
AFIX  43
H45A  2    0.569199    0.078312    0.203354    10.50000   -1.20000
AFIX   0

REM 'B' is the second m-terphenyl within the ASU
P40B  4    0.161343    0.204965    0.000000    10.50000    0.21670    0.27725 =
         0.10669    0.00000    0.00000    0.06504
O10B  3    0.275149    0.242621    0.182554    11.00000    0.11044    0.10405 =
         0.08436    0.00492   -0.00700   -0.02077
O11B  3    0.213166    0.182315    0.215707    11.00000    0.11442    0.08858 =
         0.08755   -0.00349   -0.01622   -0.01280
O12B  3    0.074036    0.053636    0.144081    11.00000    0.16545    0.08323 =
         0.07668   -0.00711   -0.01180   -0.01074
O13B  3    0.071608    0.053694    0.076724    11.00000    0.24311    0.12536 =
         0.07237    0.00276   -0.02136   -0.06593
O40B  3    0.098451    0.168358    0.000000    10.50000    0.13387    0.40022 =
         0.15722    0.00000    0.00000    0.03279
C10B  1    0.243401    0.160686    0.074435    11.00000    0.20214    0.16089 =
         0.09422   -0.01097   -0.00043   -0.07037
C11B  1    0.259845    0.187021    0.111177    11.00000    0.14950    0.13594 =
         0.08890    0.00477   -0.01423   -0.04279
AFIX  43
H11B  2    0.296226    0.213331    0.111443    11.00000   -1.20000
AFIX   0
C12B  1    0.224713    0.175366    0.145788    11.00000    0.12560    0.09232 =
         0.07935    0.00755   -0.01723   -0.01553
C13B  1    0.172076    0.135361    0.145185    11.00000    0.14784    0.09688 =
         0.08282    0.00048   -0.01491   -0.01459
AFIX  43
H13B  2    0.149601    0.125122    0.169573    11.00000   -1.20000
AFIX   0
C14B  1    0.152277    0.110426    0.109343    11.00000    0.18656    0.08859 =
         0.07862   -0.00156   -0.01643   -0.03385
C15B  1    0.188409    0.122804    0.074651    11.00000    0.21571    0.12498 =
         0.08839   -0.00553   -0.00278   -0.06151
AFIX  43
H15B  2    0.175930    0.105394    0.050361    11.00000   -1.20000
AFIX   0
C16B  1    0.239783    0.201891    0.184136    11.00000    0.09399    0.08655 =
         0.09203    0.00943   -0.02317   -0.00294
C17B  1    0.095448    0.069982    0.109595    11.00000    0.17797    0.08303 =
         0.08812   -0.00966   -0.00660   -0.01915
C20B  1    0.248857    0.174807    0.000000    10.50000    0.15278    0.11209 =
         0.08761    0.00000    0.00000   -0.01524
C21B  1    0.284565    0.169971    0.036493    11.00000    0.16935    0.26973 =
         0.09437    0.00510   -0.00872   -0.07676
C22B  1    0.358951    0.160031    0.036649    11.00000    0.17920    0.69182 =
         0.11554   -0.02938   -0.01661    0.02743
AFIX  43
H22B  2    0.383932    0.155022    0.061214    11.00000   -1.20000
AFIX   0
C23B  1    0.395282    0.157678    0.000000    10.50000    0.16589    1.18965 =
         0.14281    0.00000    0.00000   -0.10583
AFIX  43
H23B  2    0.446047    0.154391    0.000000    10.50000   -1.20000
AFIX  66
C40B  1    0.163649    0.250124    0.042375    11.00000    0.31655    0.28573 =
         0.17088    0.00096   -0.07430    0.11658
C41B  1    0.105370    0.247846    0.068345    11.00000    0.32934    0.26688 =
         0.29255   -0.02865    0.00528    0.11355
AFIX  43
H41B  2    0.066215    0.225024    0.062584    11.00000   -1.20000
AFIX  65
C42B  1    0.104381    0.278958    0.102746    11.00000    0.34440    0.35861 =
        10.55000   -0.24668    9.83000    0.17242
AFIX  43
H42B  2    0.064549    0.277400    0.120495    11.00000   -1.20000
AFIX  65
C43B  1    0.161670    0.312350    0.111175    11.00000    0.38237    0.30607 =
         0.13983   -0.00897   -0.01110    0.10596
AFIX  43
H43B  2    0.160994    0.333613    0.134686    11.00000   -1.20000
AFIX  65
C44B  1    0.219950    0.314629    0.085204    11.00000    0.46858    0.34110 =
         0.12810   -0.02756    0.02381    0.10443
AFIX  43
H44B  2    0.259105    0.337450    0.090966    11.00000   -1.20000
AFIX  65
C45B  1    0.220940    0.283517    0.050804    11.00000    0.34571    0.28001 =
         0.11714    0.01078   -0.03229    0.07835
AFIX  43
H45B  2    0.260772    0.285074    0.033054    11.00000   -1.20000
AFIX   0

REM Me2NH2+ cation
C60   1    0.235153    0.000000    0.037513   -20.25000    0.57841    0.56768 =
         0.36794    0.00000   -0.27167    0.00000
AFIX  33
H60A  2    0.204626    0.000000    0.061464   -20.25000   -1.50000
H60B  2    0.265504   -0.031651    0.037583   -20.25000   -1.50000
H60C  2    0.265504    0.031651    0.037583   -20.25000   -1.50000
AFIX   0
N60   7    0.188168    0.000000    0.000000   -20.12500    0.21533    0.05072 =
         0.14308    0.00000    0.00000    0.00000
AFIX  23
H60D  2    0.159535    0.029153    0.000000   -20.12500   -1.20000
H60E  2    0.159535   -0.029153    0.000000   -20.12500   -1.20000
AFIX   0
HKLF 4




REM  UHM-63 in Immm
REM wR2 = 0.3726, GooF = S = 1.209, Restrained GooF = 1.209 for all data
REM R1 = 0.1168 for 3745 Fo > 4sig(Fo) and 0.1552 for all 7346 data
REM 368 parameters refined using 426 restraints

END

WGHT      0.2000      0.0000

REM Highest difference peak  1.040,  deepest hole -1.206,  1-sigma level  0.114
Q1    1   0.2221  0.0976  0.0000  10.50000  0.05    1.04
Q2    1   0.2714  0.1030  0.0000  10.50000  0.05    1.01
Q3    1   0.0268  0.0000  0.2242  10.50000  0.05    0.79
Q4    1   0.2185  0.2058  0.0367  11.00000  0.05    0.66
Q5    1   0.1375  0.0000  0.0000  10.25000  0.05    0.63
Q6    1   0.3031  0.0000  0.0417  10.50000  0.05    0.62
Q7    1   0.0375  0.0000  0.0000  10.25000  0.05    0.58
Q8    1   0.2643  0.0000  0.0000  10.25000  0.05    0.57
Q9    1   0.6426  0.0000  0.2464  10.50000  0.05    0.49
Q10   1   0.0000  0.2457  0.0974  10.50000  0.05    0.48
Q11   1   0.0983  0.0664  0.0000  10.50000  0.05    0.46
Q12   1   0.0464  0.1952  0.0717  11.00000  0.05    0.45
Q13   1   0.2464  0.2307  0.2291  11.00000  0.05    0.43
Q14   1   0.2560  0.2905  0.0000  10.50000  0.05    0.40
Q15   1   0.2286  0.3006  0.0000  10.50000  0.05    0.38
Q16   1   0.0135  0.0226  0.1114  11.00000  0.05    0.36
Q17   1   0.2411  0.0404  0.0759  11.00000  0.05    0.36
Q18   1   0.0268  0.2832  0.1140  11.00000  0.05    0.36
Q19   1   0.2084  0.3568  0.1316  11.00000  0.05    0.34
Q20   1   0.0984  0.1330  0.2935  11.00000  0.05    0.34
Q21   1   0.1436  0.1128  0.0000  10.50000  0.05    0.32
Q22   1   0.1218  0.0000  0.1506  10.50000  0.05    0.30
Q23   1   0.2753  0.2574  0.1827  11.00000  0.05    0.30
Q24   1   0.3152  0.0812  0.0396  11.00000  0.05    0.30
Q25   1   0.1669  0.1585  0.2842  11.00000  0.05    0.30
Q26   1   0.0594  0.0743  0.0380  11.00000  0.05    0.28
Q27   1   0.0000  0.0538  0.0168  10.50000  0.05    0.28
Q28   1   0.0495  0.3370  0.1000  11.00000  0.05    0.28
Q29   1   0.3194  0.0539  0.2195  11.00000  0.05    0.28
Q30   1   0.2535  0.2489  0.0320  11.00000  0.05    0.27
Q31   1   0.0000  0.3200  0.1029  10.50000  0.05    0.26
Q32   1   0.2896  0.3500  0.1101  11.00000  0.05    0.25
Q33   1   0.1326  0.1515  0.0785  11.00000  0.05    0.25
Q34   1   0.2585  0.3403  0.1303  11.00000  0.05    0.25
Q35   1   0.5000  0.2149  0.2579  10.50000  0.05    0.25
Q36   1   0.1233  0.3596  0.0996  11.00000  0.05    0.24
Q37   1   0.4282  0.2779  0.2308  11.00000  0.05    0.24
Q38   1   0.2178  0.2111  0.1904  11.00000  0.05    0.24
Q39   1   0.0403  0.0575  0.1482  11.00000  0.05    0.23
Q40   1   0.4314  0.1065  0.3712  11.00000  0.05    0.22
Q41   1   0.1777  0.2288  0.2256  11.00000  0.05    0.21
Q42   1   0.4518  0.1788  0.0000  10.50000  0.05    0.21
Q43   1   0.5000  0.0628  0.2309  10.50000  0.05    0.21
Q44   1   0.4165  0.1198  0.3812  11.00000  0.05    0.21
Q45   1   0.0880  0.0254  0.0862  11.00000  0.05    0.21
Q46   1   0.4526  0.0809  0.3861  11.00000  0.05    0.20
Q47   1   0.3386  0.1406  0.1098  11.00000  0.05    0.20
Q48   1   0.2923  0.1508  0.2282  11.00000  0.05    0.20
Q49   1   0.1259  0.1901  0.2703  11.00000  0.05    0.20
Q50   1   0.1549  0.1442  0.2304  11.00000  0.05    0.20
Q51   1   0.3105  0.1264  0.1405  11.00000  0.05    0.20
Q52   1   0.3685  0.2626  0.2428  11.00000  0.05    0.20
Q53   1   0.4862  0.2225  0.3108  11.00000  0.05    0.20
Q54   1   0.1898  0.1913  0.0759  11.00000  0.05    0.20
Q55   1   0.5831 -0.0371  0.2729  11.00000  0.05    0.19
Q56   1   0.0792  0.3636  0.1482  11.00000  0.05    0.19
Q57   1   0.3919  0.1201  0.3456  11.00000  0.05    0.19
Q58   1   0.4447  0.2467  0.2701  11.00000  0.05    0.19
Q59   1   0.1289  0.1269  0.0425  11.00000  0.05    0.19
Q60   1   0.3779  0.0823  0.1489  11.00000  0.05    0.19
Q61   1   0.2812  0.2811  0.1573  11.00000  0.05    0.18
Q62   1   0.4585  0.0215  0.3681  11.00000  0.05    0.18
Q63   1   0.2660  0.0711  0.0427  11.00000  0.05    0.18
Q64   1   0.1462  0.1380  0.1557  11.00000  0.05    0.18
Q65   1   0.3215  0.0590  0.1841  11.00000  0.05    0.17
Q66   1   0.0940  0.1035  0.0375  11.00000  0.05    0.17
Q67   1   0.5000  0.5000  0.0401  10.25000  0.05    0.17
Q68   1   0.2215  0.1681  0.0000  10.50000  0.05    0.17
Q69   1   0.4636  0.2337  0.2311  11.00000  0.05    0.17
Q70   1   0.0358  0.0791  0.1805  11.00000  0.05    0.17
Q71   1   0.4197  0.1816  0.1559  11.00000  0.05    0.17
Q72   1   0.5826  0.0682  0.2010  11.00000  0.05    0.17
Q73   1   0.1822  0.1935  0.2264  11.00000  0.05    0.17
Q74   1   0.1398  0.2161  0.2108  11.00000  0.05    0.17
Q75   1   0.5000  0.0245  0.1702  10.50000  0.05    0.16
Q76   1   0.2526  0.1574  0.2609  11.00000  0.05    0.16
Q77   1   0.3089  0.1713  0.1527  11.00000  0.05    0.16
Q78   1   0.4255  0.1107  0.2475  11.00000  0.05    0.16
Q79   1   0.3565  0.2492  0.3192  11.00000  0.05    0.16
Q80   1   0.4195  0.0691  0.3333  11.00000  0.05    0.15
Q81   1   0.5000  0.0191  0.2930  10.50000  0.05    0.15
Q82   1   0.5000  0.5000  0.0000  10.12500  0.05    0.15
Q83   1   0.5000  0.1481  0.0000  10.25000  0.05    0.15
Q84   1   0.1418  0.3534  0.1491  11.00000  0.05    0.15
Q85   1   0.3529  0.2027  0.1321  11.00000  0.05    0.15
Q86   1   0.0000  0.0000  0.3023  10.25000  0.05    0.15
Q87   1   0.3743  0.1530  0.0393  11.00000  0.05    0.15
Q88   1   0.3756  0.1776  0.1493  11.00000  0.05    0.15
Q89   1   0.5000 -0.1056  0.5000  10.25000  0.05    0.15
Q90   1   0.3706  0.1403  0.0761  11.00000  0.05    0.15
Q91   1   0.2102  0.2112  0.1134  11.00000  0.05    0.15
Q92   1   0.3237  0.1906  0.1680  11.00000  0.05    0.15
Q93   1   0.2950  0.2108  0.2119  11.00000  0.05    0.15
Q94   1   0.4494  0.0531  0.2390  11.00000  0.05    0.15
Q95   1   0.4456  0.0000  0.3671  10.50000  0.05    0.15
Q96   1   0.5715  0.0641  0.1667  11.00000  0.05    0.15
Q97   1   0.4148  0.1389  0.1809  11.00000  0.05    0.15
Q98   1   0.4845  0.0508  0.3300  11.00000  0.05    0.15
Q99   1   0.3706  0.0805  0.2957  11.00000  0.05    0.14
;
_shelx_res_checksum              72314
_shelx_fab_file
;
    2    0    0    163.62      0.00
    4    0    0    229.01      0.00
    6    0    0    -17.14      0.00
    8    0    0     59.66      0.00
   10    0    0      7.73      0.00
   12    0    0     15.94      0.00
   14    0    0     -1.07      0.00
   16    0    0    -12.33      0.00
   18    0    0     20.39      0.00
    3    1    0     59.38      0.00
    5    1    0     -8.04      0.00
    7    1    0     -6.42      0.00
    9    1    0      2.67      0.00
   11    1    0     13.20      0.00
   13    1    0      0.22      0.00
   15    1    0      1.24      0.00
   17    1    0     -0.54      0.00
   19    1    0     -2.02      0.00
    0    2    0    618.72      0.00
    2    2    0   -441.89      0.00
    4    2    0     11.39      0.00
    6    2    0    -34.26      0.00
    8    2    0     33.25      0.00
   10    2    0    -15.88      0.00
   12    2    0     -3.88      0.00
   14    2    0      3.79      0.00
   16    2    0    -14.85      0.00
   18    2    0      1.73      0.00
   20    2    0     -3.05      0.00
    1    3    0   -246.11      0.00
    3    3    0    -33.38      0.00
    5    3    0      0.03      0.00
    7    3    0      1.83      0.00
    9    3    0      1.87      0.00
   11    3    0      2.45      0.00
   13    3    0     -6.93      0.00
   15    3    0     -1.76      0.00
   17    3    0    -12.85      0.00
   19    3    0     -0.52      0.00
    0    4    0    133.00      0.00
    2    4    0   -150.65      0.00
    4    4    0     41.20      0.00
    6    4    0      1.11      0.00
    8    4    0     15.02      0.00
   10    4    0      3.87      0.00
   12    4    0     -0.13      0.00
   14    4    0     -2.25      0.00
   16    4    0    -10.73      0.00
   18    4    0     -1.83      0.00
   20    4    0      5.82      0.00
    1    5    0     57.94      0.00
    3    5    0     34.08      0.00
    5    5    0     -6.70      0.00
    7    5    0      3.08      0.00
    9    5    0      9.64      0.00
   11    5    0      4.19      0.00
   13    5    0     -3.75      0.00
   15    5    0      9.89      0.00
   17    5    0     -0.27      0.00
   19    5    0     -5.39      0.00
   21    5    0      6.42      0.00
    0    6    0    -89.33      0.00
    2    6    0     -6.14      0.00
    4    6    0      0.71      0.00
    6    6    0     13.64      0.00
    8    6    0      0.01      0.00
   10    6    0      3.13      0.00
   12    6    0     -5.22      0.00
   14    6    0      5.20      0.00
   16    6    0      3.50      0.00
   18    6    0      0.03      0.00
   20    6    0     -0.93      0.00
    1    7    0    -45.98      0.00
    3    7    0    -39.73      0.00
    5    7    0    -23.52      0.00
    7    7    0    -16.15      0.00
    9    7    0     -4.63      0.00
   11    7    0    -20.22      0.00
   13    7    0     -1.56      0.00
   15    7    0     13.16      0.00
   17    7    0      0.87      0.00
   19    7    0      3.91      0.00
    0    8    0    -55.58      0.00
    2    8    0     41.63      0.00
    4    8    0      5.27      0.00
    6    8    0     -1.69      0.00
    8    8    0    -21.44      0.00
   10    8    0      3.32      0.00
   12    8    0     -5.26      0.00
   14    8    0     -1.29      0.00
   16    8    0     -1.64      0.00
   18    8    0     -6.14      0.00
   20    8    0    -16.84      0.00
    1    9    0     15.44      0.00
    3    9    0     25.20      0.00
    5    9    0     15.30      0.00
    7    9    0    -10.59      0.00
    9    9    0      0.38      0.00
   11    9    0    -14.84      0.00
   13    9    0      2.44      0.00
   15    9    0     -0.01      0.00
   17    9    0     -3.09      0.00
   19    9    0    -13.77      0.00
    0   10    0     -1.87      0.00
    2   10    0     15.33      0.00
    4   10    0     -2.08      0.00
    6   10    0      1.76      0.00
    8   10    0     -5.66      0.00
   10   10    0     12.06      0.00
   12   10    0      0.63      0.00
   14   10    0     -5.76      0.00
   16   10    0      4.41      0.00
   18   10    0     -2.96      0.00
   20   10    0    -18.92      0.00
    1   11    0      1.72      0.00
    3   11    0    -11.38      0.00
    5   11    0     -8.88      0.00
    7   11    0     -3.98      0.00
    9   11    0     11.10      0.00
   11   11    0     -4.29      0.00
   13   11    0      2.35      0.00
   15   11    0     -5.43      0.00
   17   11    0      2.25      0.00
   19   11    0      0.53      0.00
    0   12    0      0.34      0.00
    2   12    0     -5.07      0.00
    4   12    0    -11.75      0.00
    6   12    0     -4.35      0.00
    8   12    0      9.45      0.00
   10   12    0      4.65      0.00
   12   12    0      0.15      0.00
   14   12    0     -2.97      0.00
   16   12    0      5.92      0.00
   18   12    0     -1.33      0.00
   20   12    0      4.35      0.00
    1   13    0     12.32      0.00
    3   13    0      1.13      0.00
    5   13    0     11.94      0.00
    7   13    0      8.26      0.00
    9   13    0     -0.01      0.00
   11   13    0      5.75      0.00
   13   13    0      2.31      0.00
   15   13    0      0.38      0.00
   17   13    0      2.83      0.00
   19   13    0      1.48      0.00
    0   14    0      7.62      0.00
    2   14    0     11.76      0.00
    4   14    0     14.77      0.00
    6   14    0      0.02      0.00
    8   14    0      9.96      0.00
   10   14    0     -4.10      0.00
   12   14    0     -2.69      0.00
   14   14    0     -6.21      0.00
   16   14    0      3.38      0.00
   18   14    0     -4.99      0.00
    1   15    0      8.01      0.00
    3   15    0      0.33      0.00
    5   15    0      5.78      0.00
    7   15    0      4.30      0.00
    9   15    0     -5.01      0.00
   11   15    0     10.19      0.00
   13   15    0     -3.86      0.00
   15   15    0      1.38      0.00
   17   15    0     -2.09      0.00
   19   15    0      2.62      0.00
    0   16    0      6.49      0.00
    2   16    0     -9.11      0.00
    4   16    0      3.66      0.00
    6   16    0     -1.19      0.00
    8   16    0      3.78      0.00
   10   16    0    -14.05      0.00
   12   16    0      1.86      0.00
   14   16    0      1.49      0.00
   16   16    0      4.62      0.00
   18   16    0     -0.49      0.00
    1   17    0     -0.34      0.00
    3   17    0      0.91      0.00
    5   17    0      4.64      0.00
    7   17    0     -3.90      0.00
    9   17    0      0.64      0.00
   11   17    0      2.78      0.00
   13   17    0     -7.64      0.00
   15   17    0      1.86      0.00
   17   17    0     -1.31      0.00
    0   18    0     13.19      0.00
    2   18    0     -9.73      0.00
    4   18    0      5.60      0.00
    6   18    0      5.79      0.00
    8   18    0      1.05      0.00
   12   18    0     -5.18      0.00
   14   18    0     -8.54      0.00
   16   18    0     -0.37      0.00
    1   19    0     -7.55      0.00
    3   19    0     -3.85      0.00
    5   19    0      5.01      0.00
    7   19    0     -8.79      0.00
   11   19    0      0.60      0.00
   13   19    0     -5.99      0.00
   15   19    0      1.02      0.00
   17   19    0     -3.47      0.00
    0   20    0      4.55      0.00
    2   20    0     -0.61      0.00
    4   20    0     -4.63      0.00
    6   20    0     -2.12      0.00
   10   20    0     -6.48      0.00
   12   20    0      3.43      0.00
   14   20    0     -2.30      0.00
   16   20    0     -0.30      0.00
    1   21    0      1.19      0.00
    3   21    0     -3.51      0.00
    5   21    0      5.40      0.00
    7   21    0    -20.21      0.00
    9   21    0      3.87      0.00
   11   21    0      8.71      0.00
   13   21    0      0.56      0.00
   15   21    0     -4.05      0.00
    0   22    0     -2.02      0.00
    2   22    0      2.82      0.00
    8   22    0     -3.01      0.00
   10   22    0      1.92      0.00
   12   22    0     -5.47      0.00
   14   22    0     -6.17      0.00
    9   23    0     -0.64      0.00
   11   23    0      4.40      0.00
   13   23    0      3.81      0.00
   10   24    0     -1.56      0.00
   12   24    0    -10.42      0.00
   11   25    0     -2.97      0.00
   10   26    0     -4.17      0.00
    7   27    0     -2.77      0.00
    9   27    0     -4.40      0.00
    3    0    1     10.89      0.00
    5    0    1     38.09      0.00
    7    0    1    -25.05      0.00
    9    0    1     -0.78      0.00
   11    0    1      2.79      0.00
   13    0    1     -4.68      0.00
   15    0    1      8.71      0.00
   17    0    1      2.60      0.00
   19    0    1     -8.72      0.00
    2    1    1     18.55      0.00
    4    1    1    -22.89      0.00
    6    1    1     13.87      0.00
    8    1    1      0.35      0.00
   10    1    1     -8.00      0.00
   12    1    1     -3.34      0.00
   14    1    1      2.32      0.00
   16    1    1      3.65      0.00
   18    1    1      1.11      0.00
   20    1    1      0.16      0.00
    1    2    1     33.55      0.00
    3    2    1     35.82      0.00
    5    2    1     -2.63      0.00
    7    2    1    -45.36      0.00
    9    2    1     -6.63      0.00
   11    2    1      5.47      0.00
   13    2    1     -6.74      0.00
   15    2    1      2.10      0.00
   17    2    1      7.22      0.00
   19    2    1     -1.50      0.00
   21    2    1      3.70      0.00
    0    3    1     95.22      0.00
    2    3    1    126.43      0.00
    4    3    1    -18.15      0.00
    6    3    1    -11.14      0.00
    8    3    1      6.44      0.00
   10    3    1     -0.01      0.00
   12    3    1      5.90      0.00
   14    3    1     -2.28      0.00
   16    3    1     -1.63      0.00
   18    3    1      0.72      0.00
   20    3    1    -15.42      0.00
    1    4    1   -125.72      0.00
    3    4    1    -67.77      0.00
    5    4    1     10.54      0.00
    7    4    1    -10.15      0.00
    9    4    1     -0.52      0.00
   11    4    1     -4.66      0.00
   13    4    1     -1.30      0.00
   15    4    1      6.16      0.00
   17    4    1      1.28      0.00
   19    4    1     -3.18      0.00
   21    4    1     -2.95      0.00
    0    5    1     65.98      0.00
    2    5    1    -39.47      0.00
    4    5    1    -12.92      0.00
    6    5    1    -16.25      0.00
    8    5    1      5.09      0.00
   10    5    1      0.43      0.00
   12    5    1      5.77      0.00
   14    5    1     -2.08      0.00
   16    5    1     -1.50      0.00
   18    5    1      7.82      0.00
   20    5    1      2.27      0.00
    1    6    1     28.38      0.00
    3    6    1     44.80      0.00
    5    6    1     39.94      0.00
    7    6    1     -6.59      0.00
    9    6    1     -4.65      0.00
   11    6    1     -2.47      0.00
   13    6    1      0.36      0.00
   15    6    1     -1.07      0.00
   17    6    1      0.76      0.00
   19    6    1     -5.96      0.00
    0    7    1     57.94      0.00
    2    7    1    -10.84      0.00
    4    7    1     12.19      0.00
    6    7    1     -2.26      0.00
    8    7    1      2.33      0.00
   10    7    1      5.01      0.00
   12    7    1     12.18      0.00
   14    7    1      0.67      0.00
   16    7    1     -0.97      0.00
   18    7    1      2.49      0.00
   20    7    1      8.10      0.00
    1    8    1      9.10      0.00
    3    8    1     -1.94      0.00
    5    8    1      4.00      0.00
    7    8    1      6.72      0.00
    9    8    1      1.91      0.00
   11    8    1      0.22      0.00
   13    8    1      0.46      0.00
   15    8    1     -1.26      0.00
   17    8    1      2.76      0.00
   19    8    1    -11.11      0.00
    0    9    1    -22.01      0.00
    2    9    1    -19.55      0.00
    4    9    1    -11.31      0.00
    6    9    1     -3.73      0.00
    8    9    1      1.87      0.00
   10    9    1      1.82      0.00
   12    9    1      2.94      0.00
   14    9    1      2.90      0.00
   16    9    1     -5.18      0.00
   18    9    1      6.69      0.00
   20    9    1     40.36      0.00
    1   10    1     -4.07      0.00
    3   10    1     -4.47      0.00
    5   10    1     -2.35      0.00
    7   10    1      8.19      0.00
    9   10    1      0.03      0.00
   11   10    1     -0.53      0.00
   13   10    1      0.05      0.00
   15   10    1      0.72      0.00
   17   10    1      2.25      0.00
   19   10    1     -8.43      0.00
    0   11    1     -5.42      0.00
    2   11    1     10.74      0.00
    4   11    1     15.13      0.00
    6   11    1      8.01      0.00
    8   11    1     -1.69      0.00
   10   11    1     -1.59      0.00
   12   11    1     -5.21      0.00
   14   11    1      1.02      0.00
   16   11    1     -7.90      0.00
   18   11    1     -3.40      0.00
   20   11    1     16.22      0.00
    1   12    1     -8.98      0.00
    3   12    1      6.86      0.00
    5   12    1     -1.49      0.00
    7   12    1      0.42      0.00
    9   12    1     -1.50      0.00
   11   12    1      1.54      0.00
   13   12    1      0.95      0.00
   15   12    1      5.72      0.00
   17   12    1     10.19      0.00
   19   12    1      0.51      0.00
    0   13    1      1.14      0.00
    2   13    1     -1.43      0.00
    4   13    1     -2.73      0.00
    6   13    1     -3.33      0.00
    8   13    1     -4.65      0.00
   10   13    1     -3.19      0.00
   12   13    1     -4.26      0.00
   14   13    1      0.92      0.00
   16   13    1     -7.91      0.00
   18   13    1     -2.47      0.00
   20   13    1      2.05      0.00
    1   14    1     -4.92      0.00
    3   14    1     -3.80      0.00
    5   14    1     -7.16      0.00
    7   14    1     -5.06      0.00
    9   14    1     -0.33      0.00
   11   14    1     -2.38      0.00
   13   14    1      2.52      0.00
   15   14    1      2.69      0.00
   17   14    1     -2.13      0.00
   19   14    1     -4.40      0.00
    0   15    1     -3.49      0.00
    2   15    1      1.00      0.00
    4   15    1      0.33      0.00
    6   15    1     -1.02      0.00
    8   15    1     -3.18      0.00
   10   15    1     -5.18      0.00
   12   15    1      0.10      0.00
   14   15    1      2.51      0.00
   16   15    1     -0.41      0.00
   18   15    1      5.39      0.00
    1   16    1      0.54      0.00
    3   16    1     -4.04      0.00
    5   16    1      1.39      0.00
    7   16    1     -1.72      0.00
    9   16    1      2.19      0.00
   11   16    1      0.28      0.00
   13   16    1     -2.18      0.00
   15   16    1     -2.83      0.00
   17   16    1     -5.78      0.00
    0   17    1     -7.92      0.00
    2   17    1      4.40      0.00
    4   17    1     -5.42      0.00
    6   17    1     -3.78      0.00
    8   17    1      3.43      0.00
   10   17    1      8.77      0.00
   12   17    1      2.12      0.00
   14   17    1      0.87      0.00
   16   17    1      1.99      0.00
   18   17    1      2.81      0.00
    1   18    1      0.27      0.00
    3   18    1     -0.34      0.00
    5   18    1      2.74      0.00
    7   18    1      1.40      0.00
    9   18    1     -1.04      0.00
   11   18    1      3.57      0.00
   13   18    1      0.89      0.00
   15   18    1     -1.60      0.00
   17   18    1     -2.09      0.00
    0   19    1      1.84      0.00
    2   19    1      1.94      0.00
    4   19    1     -2.80      0.00
    6   19    1     -0.28      0.00
    8   19    1     -7.76      0.00
   10   19    1     10.07      0.00
   12   19    1      1.02      0.00
   14   19    1      2.68      0.00
   16   19    1      1.85      0.00
    1   20    1     -2.38      0.00
    3   20    1      2.46      0.00
    5   20    1     -3.93      0.00
    7   20    1     -1.41      0.00
    9   20    1     -0.51      0.00
   11   20    1     -0.60      0.00
   13   20    1      0.44      0.00
   15   20    1     -0.75      0.00
    0   21    1      6.38      0.00
    2   21    1     -2.96      0.00
    4   21    1      4.49      0.00
    8   21    1     -4.36      0.00
   10   21    1      3.46      0.00
   12   21    1     -1.01      0.00
   14   21    1      6.63      0.00
   16   21    1      4.29      0.00
    1   22    1     -0.68      0.00
    7   22    1     -2.02      0.00
    9   22    1     11.46      0.00
   11   22    1      0.08      0.00
   13   22    1     -1.30      0.00
   15   22    1      0.04      0.00
    0   23    1     -3.51      0.00
    8   23    1     -3.19      0.00
   10   23    1     -2.54      0.00
   12   23    1      1.90      0.00
   14   23    1      1.99      0.00
   11   24    1      5.40      0.00
   13   24    1      0.20      0.00
   12   25    1      1.01      0.00
    5   26    1     -8.24      0.00
    9   26    1     -0.16      0.00
   11   26    1      0.50      0.00
    6   27    1    -13.18      0.00
    8   27    1     -9.65      0.00
   10   27    1      0.82      0.00
    2    0    2    179.79      0.00
    4    0    2   -113.93      0.00
    6    0    2     89.66      0.00
    8    0    2      0.24      0.00
   10    0    2      2.95      0.00
   12    0    2      7.53      0.00
   14    0    2     -3.20      0.00
   16    0    2     -8.39      0.00
   18    0    2     -3.08      0.00
   20    0    2      2.59      0.00
    1    1    2   -288.35      0.00
    3    1    2    -27.87      0.00
    5    1    2    -20.51      0.00
    7    1    2      5.97      0.00
    9    1    2      2.98      0.00
   11    1    2      2.15      0.00
   13    1    2     -6.11      0.00
   15    1    2      2.39      0.00
   17    1    2     -6.17      0.00
   19    1    2     -0.67      0.00
   21    1    2     -4.12      0.00
    0    2    2     -5.75      0.00
    2    2    2    101.21      0.00
    4    2    2   -107.08      0.00
    6    2    2     46.79      0.00
    8    2    2    -17.77      0.00
   10    2    2     -7.89      0.00
   12    2    2      1.34      0.00
   14    2    2      0.85      0.00
   16    2    2      2.00      0.00
   18    2    2     -0.82      0.00
   20    2    2     -3.11      0.00
    1    3    2      3.75      0.00
    3    3    2    117.13      0.00
    5    3    2     11.93      0.00
    7    3    2     -0.47      0.00
    9    3    2     -5.00      0.00
   11    3    2     -0.73      0.00
   13    3    2     -3.98      0.00
   15    3    2      4.06      0.00
   17    3    2      7.72      0.00
   19    3    2      1.89      0.00
   21    3    2      2.09      0.00
    0    4    2    -38.82      0.00
    2    4    2    105.50      0.00
    4    4    2    -17.41      0.00
    6    4    2     22.91      0.00
    8    4    2    -14.74      0.00
   10    4    2     -8.71      0.00
   12    4    2      3.19      0.00
   14    4    2     -0.58      0.00
   16    4    2      2.86      0.00
   18    4    2      4.86      0.00
   20    4    2      4.43      0.00
    3    5    2     47.83      0.00
    5    5    2    -14.82      0.00
    7    5    2     -2.75      0.00
    9    5    2     -3.42      0.00
   11    5    2      3.09      0.00
   13    5    2     -0.92      0.00
   15    5    2     -1.48      0.00
   17    5    2      2.32      0.00
   19    5    2     -1.98      0.00
   21    5    2     -4.89      0.00
    0    6    2      5.45      0.00
    2    6    2     28.26      0.00
    4    6    2      5.01      0.00
    6    6    2      6.63      0.00
    8    6    2     10.74      0.00
   10    6    2      3.35      0.00
   12    6    2      4.79      0.00
   14    6    2     -5.60      0.00
   16    6    2    -11.32      0.00
   18    6    2     -8.04      0.00
   20    6    2     -3.35      0.00
    1    7    2      2.13      0.00
    3    7    2    -29.28      0.00
    5    7    2     -9.95      0.00
    7    7    2     12.87      0.00
    9    7    2      6.57      0.00
   11    7    2      2.09      0.00
   13    7    2     -5.59      0.00
   15    7    2      0.57      0.00
   17    7    2      1.50      0.00
   19    7    2      3.17      0.00
    0    8    2     16.43      0.00
    2    8    2    -33.92      0.00
    4    8    2      3.29      0.00
    6    8    2     -3.32      0.00
    8    8    2     11.85      0.00
   10    8    2      5.85      0.00
   12    8    2      3.25      0.00
   14    8    2     -3.44      0.00
   16    8    2     -0.20      0.00
   18    8    2      5.79      0.00
   20    8    2     -0.95      0.00
    1    9    2     -9.99      0.00
    3    9    2    -15.83      0.00
    5    9    2     -0.70      0.00
    7    9    2      4.27      0.00
    9    9    2     -6.08      0.00
   11    9    2     -0.33      0.00
   13    9    2     -2.79      0.00
   15    9    2      7.57      0.00
   17    9    2      7.08      0.00
   19    9    2      4.98      0.00
    0   10    2     32.81      0.00
    2   10    2    -10.23      0.00
    4   10    2      6.53      0.00
    6   10    2     -0.01      0.00
    8   10    2      0.44      0.00
   10   10    2      0.23      0.00
   12   10    2      2.28      0.00
   14   10    2     -0.84      0.00
   16   10    2     -1.39      0.00
   18   10    2      1.13      0.00
   20   10    2     -8.09      0.00
    1   11    2     13.23      0.00
    3   11    2      6.56      0.00
    5   11    2      3.54      0.00
    7   11    2      0.98      0.00
    9   11    2    -10.64      0.00
   11   11    2     -4.64      0.00
   13   11    2     -3.87      0.00
   15   11    2     -0.95      0.00
   17   11    2     -5.64      0.00
   19   11    2     -4.99      0.00
    0   12    2      9.27      0.00
    2   12    2     -5.37      0.00
    4   12    2     -1.48      0.00
    6   12    2     -0.21      0.00
    8   12    2     -5.55      0.00
   10   12    2     -1.55      0.00
   12   12    2      0.09      0.00
   14   12    2      2.48      0.00
   16   12    2     -1.27      0.00
   18   12    2     -0.77      0.00
   20   12    2     -1.99      0.00
    1   13    2     -7.12      0.00
    3   13    2     -1.43      0.00
    5   13    2      2.47      0.00
    7   13    2      0.74      0.00
    9   13    2     -3.45      0.00
   11   13    2      5.06      0.00
   13   13    2      6.23      0.00
   15   13    2      3.13      0.00
   17   13    2     -1.18      0.00
   19   13    2     -4.26      0.00
    0   14    2     -5.33      0.00
    2   14    2     -6.13      0.00
    4   14    2     -6.24      0.00
    6   14    2      0.30      0.00
    8   14    2      2.11      0.00
   10   14    2      7.95      0.00
   12   14    2     -3.60      0.00
   14   14    2     -0.35      0.00
   16   14    2      1.94      0.00
   18   14    2      0.62      0.00
    1   15    2     -3.25      0.00
    3   15    2      2.21      0.00
    5   15    2     -4.30      0.00
    7   15    2     -0.77      0.00
    9   15    2      1.41      0.00
   11   15    2      1.97      0.00
   13   15    2      1.02      0.00
   15   15    2     -1.37      0.00
   17   15    2      4.56      0.00
   19   15    2      6.59      0.00
    0   16    2      4.89      0.00
    2   16    2      1.71      0.00
    4   16    2     -6.30      0.00
    6   16    2      1.18      0.00
    8   16    2     -1.73      0.00
   10   16    2      0.86      0.00
   12   16    2     -5.89      0.00
   14   16    2      0.97      0.00
   16   16    2      2.57      0.00
   18   16    2      2.09      0.00
    1   17    2      0.78      0.00
    3   17    2      6.23      0.00
    5   17    2     -4.75      0.00
    7   17    2     -0.64      0.00
    9   17    2      0.08      0.00
   11   17    2     -0.15      0.00
   13   17    2      1.08      0.00
   15   17    2     -1.04      0.00
   17   17    2     -4.13      0.00
    0   18    2      3.87      0.00
    2   18    2      2.86      0.00
    4   18    2     -0.44      0.00
    6   18    2      3.88      0.00
    8   18    2      0.46      0.00
   10   18    2     -6.94      0.00
   12   18    2      1.33      0.00
   14   18    2      4.18      0.00
   16   18    2      0.86      0.00
    1   19    2      0.74      0.00
    3   19    2      4.64      0.00
    5   19    2     -7.40      0.00
    7   19    2     10.06      0.00
    9   19    2      0.91      0.00
   11   19    2      3.66      0.00
   13   19    2      1.45      0.00
   15   19    2      4.45      0.00
   17   19    2      0.61      0.00
    0   20    2     -3.12      0.00
    2   20    2      6.04      0.00
    4   20    2      1.65      0.00
    6   20    2      0.92      0.00
    8   20    2      9.37      0.00
   10   20    2     -7.01      0.00
   12   20    2      5.37      0.00
   14   20    2      0.93      0.00
   16   20    2     -0.47      0.00
    1   21    2      1.06      0.00
    3   21    2      6.06      0.00
    5   21    2     -3.25      0.00
    7   21    2     13.25      0.00
    9   21    2    -13.03      0.00
   11   21    2     -0.98      0.00
   13   21    2     -3.69      0.00
   15   21    2     -2.41      0.00
    0   22    2     -6.91      0.00
    2   22    2      1.31      0.00
    8   22    2     -0.98      0.00
   10   22    2    -10.73      0.00
   12   22    2     -0.31      0.00
   14   22    2     -6.06      0.00
    1   23    2      3.50      0.00
    9   23    2     -8.61      0.00
   11   23    2     -0.17      0.00
   13   23    2      3.91      0.00
   10   24    2      0.80      0.00
   12   24    2      2.94      0.00
   11   25    2     -0.88      0.00
    6   26    2      3.41      0.00
    8   26    2      5.58      0.00
   10   26    2      0.83      0.00
    7   27    2     -3.24      0.00
    9   27    2      0.05      0.00
    1    0    3    196.64      0.00
    3    0    3    116.17      0.00
    5    0    3    -20.93      0.00
    7    0    3    -17.08      0.00
    9    0    3      9.01      0.00
   11    0    3      0.16      0.00
   13    0    3      0.24      0.00
   15    0    3      6.02      0.00
   17    0    3      3.81      0.00
   19    0    3     -0.02      0.00
   21    0    3     -2.66      0.00
    0    1    3   -124.54      0.00
    2    1    3    -64.49      0.00
    4    1    3    -48.62      0.00
    6    1    3    -14.13      0.00
    8    1    3     18.65      0.00
   10    1    3     -7.22      0.00
   12    1    3      4.66      0.00
   14    1    3      1.10      0.00
   16    1    3     -2.85      0.00
   18    1    3      3.26      0.00
   20    1    3      8.68      0.00
    1    2    3     -6.30      0.00
    3    2    3     26.07      0.00
    5    2    3    -11.21      0.00
    7    2    3    -12.37      0.00
    9    2    3      2.62      0.00
   11    2    3     -5.75      0.00
   13    2    3     -2.99      0.00
   15    2    3      5.30      0.00
   17    2    3     -4.02      0.00
   19    2    3      8.41      0.00
   21    2    3      5.52      0.00
    0    3    3     47.61      0.00
    2    3    3     32.32      0.00
    4    3    3     -1.94      0.00
    6    3    3     17.47      0.00
    8    3    3     16.54      0.00
   10    3    3     -1.78      0.00
   12    3    3      5.12      0.00
   14    3    3     -1.50      0.00
   16    3    3     -8.74      0.00
   18    3    3     -1.62      0.00
   20    3    3     10.86      0.00
    1    4    3     -0.57      0.00
    3    4    3     25.67      0.00
    5    4    3      5.58      0.00
    7    4    3      0.73      0.00
    9    4    3      6.20      0.00
   11    4    3     -2.15      0.00
   13    4    3     -3.06      0.00
   15    4    3      8.37      0.00
   17    4    3     -4.96      0.00
   19    4    3      5.49      0.00
   21    4    3     -2.14      0.00
    0    5    3     14.49      0.00
    2    5    3      4.82      0.00
    4    5    3    -43.02      0.00
    6    5    3     14.82      0.00
    8    5    3      6.43      0.00
   10    5    3     -2.36      0.00
   12    5    3      1.45      0.00
   14    5    3     -3.04      0.00
   16    5    3      3.97      0.00
   18    5    3      4.08      0.00
   20    5    3     -2.64      0.00
    1    6    3    -65.86      0.00
    3    6    3     -2.28      0.00
    5    6    3      0.11      0.00
    7    6    3      5.84      0.00
    9    6    3     -6.01      0.00
   11    6    3     -7.83      0.00
   13    6    3     -2.76      0.00
   15    6    3      3.37      0.00
   17    6    3     -4.67      0.00
   19    6    3      0.67      0.00
   21    6    3      1.85      0.00
    0    7    3    -54.12      0.00
    2    7    3     -9.14      0.00
    4    7    3    -41.90      0.00
    6    7    3     -3.97      0.00
    8    7    3    -13.80      0.00
   10    7    3     -6.82      0.00
   12    7    3      2.57      0.00
   14    7    3     -3.54      0.00
   16    7    3      0.11      0.00
   18    7    3      3.09      0.00
   20    7    3      2.23      0.00
    1    8    3      8.97      0.00
    3    8    3     18.76      0.00
    5    8    3    -12.25      0.00
    7    8    3     -7.89      0.00
    9    8    3     -5.45      0.00
   11    8    3     -2.15      0.00
   13    8    3      0.01      0.00
   15    8    3     -2.09      0.00
   17    8    3     -9.29      0.00
   19    8    3     -3.77      0.00
    0    9    3      7.35      0.00
    2    9    3     21.00      0.00
    4    9    3     -8.86      0.00
    6    9    3     -6.13      0.00
    8    9    3     -6.62      0.00
   10    9    3     -2.87      0.00
   12    9    3      1.37      0.00
   14    9    3     -2.22      0.00
   16    9    3      1.31      0.00
   18    9    3      1.20      0.00
   20    9    3      2.01      0.00
    1   10    3      1.20      0.00
    3   10    3      1.54      0.00
    5   10    3     -3.53      0.00
    7   10    3     -2.71      0.00
    9   10    3     -0.13      0.00
   11   10    3      4.06      0.00
   13   10    3      0.80      0.00
   15   10    3      1.96      0.00
   17   10    3     -1.58      0.00
   19   10    3     -2.21      0.00
    0   11    3      3.06      0.00
    2   11    3      0.93      0.00
    4   11    3     -8.70      0.00
    6   11    3     -6.81      0.00
    8   11    3      2.80      0.00
   10   11    3      2.97      0.00
   12   11    3      5.03      0.00
   14   11    3     -2.25      0.00
   16   11    3     -0.45      0.00
   18   11    3     -0.71      0.00
   20   11    3      2.77      0.00
    1   12    3      1.13      0.00
    3   12    3     -4.04      0.00
    5   12    3     -5.62      0.00
    7   12    3     -2.22      0.00
    9   12    3      3.46      0.00
   11   12    3      8.32      0.00
   13   12    3      0.72      0.00
   15   12    3     -2.44      0.00
   17   12    3      2.78      0.00
   19   12    3      3.14      0.00
    0   13    3      8.59      0.00
    2   13    3     10.57      0.00
    4   13    3     -0.17      0.00
    6   13    3      3.93      0.00
    8   13    3      5.88      0.00
   10   13    3      1.92      0.00
   12   13    3      2.66      0.00
   14   13    3     -4.75      0.00
   16   13    3     -1.46      0.00
   18   13    3      1.34      0.00
   20   13    3     -2.62      0.00
    1   14    3      0.51      0.00
    3   14    3      0.75      0.00
    5   14    3      5.86      0.00
    7   14    3      3.91      0.00
    9   14    3      3.65      0.00
   11   14    3      0.01      0.00
   13   14    3     -5.16      0.00
   15   14    3     -5.68      0.00
   17   14    3      2.25      0.00
   19   14    3     -1.47      0.00
    0   15    3     -4.26      0.00
    2   15    3     -1.73      0.00
    4   15    3      4.05      0.00
    6   15    3      4.53      0.00
    8   15    3     -0.16      0.00
   10   15    3      0.21      0.00
   12   15    3      5.01      0.00
   14   15    3     -0.99      0.00
   16   15    3     -1.98      0.00
   18   15    3     -1.98      0.00
    1   16    3    -11.91      0.00
    3   16    3     -4.74      0.00
    5   16    3     -0.02      0.00
    7   16    3     -1.84      0.00
    9   16    3     -3.09      0.00
   11   16    3     -3.30      0.00
   13   16    3      5.19      0.00
   15   16    3      3.36      0.00
   17   16    3      0.31      0.00
    0   17    3     -2.44      0.00
    2   17    3     -2.24      0.00
    4   17    3      4.04      0.00
    6   17    3     -3.99      0.00
    8   17    3      1.75      0.00
   10   17    3      6.83      0.00
   12   17    3     12.00      0.00
   14   17    3      3.57      0.00
   16   17    3      1.07      0.00
   18   17    3      0.38      0.00
    1   18    3     -1.96      0.00
    3   18    3      6.24      0.00
    5   18    3      7.13      0.00
    7   18    3      2.50      0.00
    9   18    3     -2.92      0.00
   11   18    3    -11.34      0.00
   13   18    3     -2.67      0.00
   15   18    3     -2.21      0.00
   17   18    3     -2.87      0.00
    0   19    3      0.44      0.00
    2   19    3     -3.91      0.00
    4   19    3     -3.18      0.00
    6   19    3     -5.61      0.00
    8   19    3      3.05      0.00
   10   19    3      4.42      0.00
   12   19    3      0.27      0.00
   14   19    3     -7.13      0.00
   16   19    3     -1.17      0.00
    1   20    3     -0.26      0.00
    3   20    3     -5.32      0.00
    5   20    3      8.05      0.00
    7   20    3     -4.37      0.00
    9   20    3     -4.55      0.00
   11   20    3    -12.00      0.00
   13   20    3     -3.00      0.00
   15   20    3      3.10      0.00
    0   21    3      7.32      0.00
    2   21    3     -3.06      0.00
    4   21    3      4.11      0.00
    8   21    3      5.88      0.00
   10   21    3      0.53      0.00
   12   21    3      2.09      0.00
   14   21    3     -0.65      0.00
   16   21    3      4.97      0.00
    1   22    3     -4.15      0.00
    3   22    3     -4.95      0.00
    9   22    3      1.47      0.00
   11   22    3     -1.93      0.00
   13   22    3     -0.51      0.00
   15   22    3      3.84      0.00
    0   23    3     -1.62      0.00
    2   23    3     -9.84      0.00
    8   23    3      3.48      0.00
   10   23    3     -5.22      0.00
   12   23    3     -2.85      0.00
   14   23    3      1.07      0.00
    1   24    3     -0.82      0.00
    9   24    3     -2.18      0.00
   11   24    3      3.37      0.00
   13   24    3     -3.34      0.00
    8   25    3      2.14      0.00
   10   25    3      2.86      0.00
   12   25    3     -2.42      0.00
    7   26    3      4.39      0.00
    9   26    3      5.50      0.00
   11   26    3      6.71      0.00
    8   27    3     -2.92      0.00
    0    0    4     57.34      0.00
    2    0    4    -33.51      0.00
    4    0    4     83.82      0.00
    6    0    4    -20.76      0.00
    8    0    4    -10.50      0.00
   10    0    4    -20.68      0.00
   12    0    4     -5.01      0.00
   14    0    4      5.07      0.00
   16    0    4     -6.63      0.00
   18    0    4     -9.91      0.00
   20    0    4      5.35      0.00
    1    1    4     24.66      0.00
    3    1    4    -63.26      0.00
    5    1    4     54.01      0.00
    7    1    4    -24.48      0.00
    9    1    4      2.24      0.00
   11    1    4     -5.82      0.00
   13    1    4     -0.79      0.00
   15    1    4     -7.04      0.00
   17    1    4      8.14      0.00
   19    1    4     -6.20      0.00
   21    1    4      1.46      0.00
    0    2    4    174.34      0.00
    2    2    4     60.89      0.00
    4    2    4     57.29      0.00
    6    2    4    -20.84      0.00
    8    2    4      8.18      0.00
   10    2    4      4.79      0.00
   12    2    4      7.24      0.00
   14    2    4      3.34      0.00
   16    2    4     -0.43      0.00
   18    2    4      2.31      0.00
   20    2    4     -2.08      0.00
    1    3    4     89.72      0.00
    3    3    4     -6.42      0.00
    5    3    4     33.99      0.00
    7    3    4     -1.66      0.00
    9    3    4     18.16      0.00
   11    3    4      3.87      0.00
   13    3    4      5.42      0.00
   15    3    4     -4.92      0.00
   17    3    4      9.85      0.00
   19    3    4    -12.41      0.00
   21    3    4     -6.36      0.00
    0    4    4   -113.95      0.00
    2    4    4    -90.44      0.00
    4    4    4    -25.27      0.00
    6    4    4    -13.50      0.00
    8    4    4      4.13      0.00
   10    4    4     -0.31      0.00
   12    4    4      0.21      0.00
   14    4    4      4.60      0.00
   16    4    4     -4.70      0.00
   18    4    4     -1.97      0.00
   20    4    4     -5.68      0.00
    1    5    4    -69.04      0.00
    3    5    4    -29.14      0.00
    5    5    4     -1.97      0.00
    7    5    4    -23.73      0.00
    9    5    4      4.01      0.00
   11    5    4     -4.38      0.00
   13    5    4      3.06      0.00
   15    5    4     -1.23      0.00
   17    5    4     -0.82      0.00
   19    5    4     -2.19      0.00
   21    5    4      5.75      0.00
    0    6    4     19.60      0.00
    2    6    4     28.59      0.00
    4    6    4      8.57      0.00
    6    6    4     -8.19      0.00
    8    6    4     -2.52      0.00
   10    6    4      2.65      0.00
   12    6    4     -1.07      0.00
   14    6    4      2.85      0.00
   16    6    4     -5.58      0.00
   18    6    4      0.15      0.00
   20    6    4      0.57      0.00
    1    7    4     18.30      0.00
    3    7    4     41.14      0.00
    5    7    4     27.36      0.00
    7    7    4     -3.70      0.00
    9    7    4      5.72      0.00
   11    7    4     -4.15      0.00
   13    7    4      2.27      0.00
   15    7    4      7.92      0.00
   17    7    4      5.03      0.00
   19    7    4      1.54      0.00
   21    7    4     -5.53      0.00
    0    8    4      8.88      0.00
    2    8    4     25.83      0.00
    4    8    4      6.90      0.00
    6    8    4      8.97      0.00
    8    8    4      6.90      0.00
   10    8    4     -0.05      0.00
   12    8    4     -2.50      0.00
   14    8    4     -1.61      0.00
   16    8    4     -0.27      0.00
   18    8    4     -1.96      0.00
   20    8    4     -8.95      0.00
    1    9    4    -23.21      0.00
    3    9    4     -0.89      0.00
    5    9    4     -1.23      0.00
    7    9    4     -9.57      0.00
    9    9    4     -1.04      0.00
   11    9    4     -5.16      0.00
   13    9    4      3.47      0.00
   15    9    4     -0.63      0.00
   17    9    4      0.13      0.00
   19    9    4      4.54      0.00
    0   10    4    -21.53      0.00
    2   10    4      2.66      0.00
    4   10    4     -4.86      0.00
    6   10    4     -0.25      0.00
    8   10    4      1.83      0.00
   10   10    4      1.44      0.00
   12   10    4      4.39      0.00
   14   10    4     -0.09      0.00
   16   10    4     -1.01      0.00
   18   10    4     -2.41      0.00
   20   10    4     -4.05      0.00
    1   11    4    -16.12      0.00
    3   11    4      2.54      0.00
    5   11    4      9.92      0.00
    7   11    4     -0.18      0.00
    9   11    4      2.87      0.00
   11   11    4     -7.81      0.00
   13   11    4      2.34      0.00
   15   11    4      1.48      0.00
   17   11    4      3.44      0.00
   19   11    4      6.91      0.00
    0   12    4     -7.82      0.00
    2   12    4    -12.26      0.00
    4   12    4      3.15      0.00
    6   12    4      4.47      0.00
    8   12    4      1.43      0.00
   10   12    4     -0.75      0.00
   12   12    4     -2.07      0.00
   14   12    4      1.07      0.00
   16   12    4      5.48      0.00
   18   12    4      5.33      0.00
   20   12    4      8.20      0.00
    1   13    4     -1.66      0.00
    3   13    4      5.71      0.00
    5   13    4      2.43      0.00
    7   13    4     -2.77      0.00
    9   13    4      0.97      0.00
   11   13    4     -7.47      0.00
   13   13    4     -1.57      0.00
   15   13    4      1.20      0.00
   17   13    4     -3.04      0.00
   19   13    4      2.68      0.00
    0   14    4     20.11      0.00
    2   14    4     -5.41      0.00
    4   14    4     -3.45      0.00
    6   14    4     -5.06      0.00
    8   14    4     -1.97      0.00
   10   14    4     -5.26      0.00
   12   14    4     -4.65      0.00
   14   14    4     -0.67      0.00
   16   14    4     -3.41      0.00
   18   14    4     -2.56      0.00
    1   15    4      8.31      0.00
    3   15    4     13.00      0.00
    5   15    4     -1.41      0.00
    7   15    4     -3.12      0.00
    9   15    4     -3.13      0.00
   11   15    4     -0.98      0.00
   13   15    4      0.20      0.00
   15   15    4      0.83      0.00
   17   15    4      2.91      0.00
   19   15    4      7.22      0.00
    0   16    4     15.11      0.00
    2   16    4      4.58      0.00
    4   16    4     -0.98      0.00
    6   16    4      2.64      0.00
    8   16    4      5.83      0.00
   10   16    4      3.25      0.00
   12   16    4     -3.23      0.00
   14   16    4     -3.70      0.00
   16   16    4     -2.03      0.00
   18   16    4      4.71      0.00
    1   17    4      0.72      0.00
    3   17    4     -2.00      0.00
    5   17    4     -0.08      0.00
    7   17    4     -1.15      0.00
    9   17    4     -0.45      0.00
   11   17    4     -0.61      0.00
   13   17    4     -3.45      0.00
   15   17    4     -4.64      0.00
   17   17    4     -1.15      0.00
    0   18    4     -2.78      0.00
    2   18    4     -2.68      0.00
    4   18    4     -1.96      0.00
    6   18    4     -0.77      0.00
    8   18    4     -3.74      0.00
   10   18    4      2.58      0.00
   12   18    4     -1.63      0.00
   14   18    4     -0.77      0.00
   16   18    4     -0.18      0.00
    1   19    4     -0.20      0.00
    3   19    4     -4.33      0.00
    5   19    4     -1.36      0.00
    7   19    4     -6.17      0.00
    9   19    4     -1.32      0.00
   11   19    4     -1.37      0.00
   13   19    4      1.77      0.00
   15   19    4     -2.71      0.00
   17   19    4      2.51      0.00
    0   20    4     -7.33      0.00
    2   20    4     -0.97      0.00
    4   20    4      1.29      0.00
    6   20    4     -4.12      0.00
    8   20    4     -6.42      0.00
   10   20    4     11.82      0.00
   12   20    4      3.38      0.00
   14   20    4      2.57      0.00
   16   20    4     -1.59      0.00
    1   21    4      2.58      0.00
    3   21    4      5.78      0.00
    5   21    4     -0.56      0.00
    9   21    4      5.58      0.00
   11   21    4     -3.27      0.00
   13   21    4      2.87      0.00
   15   21    4     -1.46      0.00
    0   22    4      1.65      0.00
    2   22    4      2.54      0.00
    4   22    4     -8.43      0.00
   10   22    4     14.23      0.00
   12   22    4     -1.66      0.00
   14   22    4     -0.86      0.00
    1   23    4     -0.27      0.00
    3   23    4      2.35      0.00
    9   23    4      2.58      0.00
   11   23    4     -6.21      0.00
   13   23    4      0.77      0.00
    0   24    4     -3.85      0.00
    2   24    4     -4.78      0.00
    8   24    4     -6.89      0.00
   10   24    4      7.21      0.00
   12   24    4      2.30      0.00
    1   25    4     -4.47      0.00
    5   25    4      9.58      0.00
    7   25    4      3.56      0.00
    9   25    4     -2.49      0.00
   11   25    4     -5.09      0.00
    6   26    4      3.20      0.00
    8   26    4     -0.56      0.00
   10   26    4     -2.85      0.00
    7   27    4     -4.75      0.00
    9   27    4     -1.02      0.00
    1    0    5    230.70      0.00
    3    0    5     25.32      0.00
    5    0    5     -0.53      0.00
    7    0    5      6.59      0.00
    9    0    5      4.42      0.00
   11    0    5     10.77      0.00
   13    0    5    -11.32      0.00
   15    0    5     -0.90      0.00
   17    0    5      3.26      0.00
   19    0    5      2.59      0.00
   21    0    5     -4.23      0.00
    0    1    5   -157.69      0.00
    2    1    5    -56.28      0.00
    4    1    5    -86.21      0.00
    6    1    5     -4.24      0.00
    8    1    5      3.91      0.00
   10    1    5      4.94      0.00
   12    1    5      1.14      0.00
   14    1    5      0.30      0.00
   16    1    5     -9.29      0.00
   18    1    5      6.45      0.00
   20    1    5     -2.77      0.00
    1    2    5     -8.46      0.00
    3    2    5    -42.29      0.00
    5    2    5      9.71      0.00
    7    2    5      0.41      0.00
    9    2    5     -9.23      0.00
   11    2    5     -2.87      0.00
   13    2    5     -8.26      0.00
   15    2    5      7.28      0.00
   17    2    5     -4.25      0.00
   19    2    5     -7.60      0.00
   21    2    5     -4.27      0.00
    2    3    5    -37.64      0.00
    4    3    5     10.36      0.00
    6    3    5     23.61      0.00
    8    3    5      3.17      0.00
   10    3    5     -2.12      0.00
   12    3    5      0.28      0.00
   14    3    5      5.37      0.00
   16    3    5     -9.62      0.00
   18    3    5     -3.32      0.00
   20    3    5      7.77      0.00
    1    4    5      4.72      0.00
    3    4    5    -12.90      0.00
    5    4    5     -2.62      0.00
    7    4    5     -8.91      0.00
    9    4    5     -1.10      0.00
   11    4    5      7.55      0.00
   13    4    5     -2.38      0.00
   15    4    5      0.74      0.00
   17    4    5      2.38      0.00
   19    4    5      0.16      0.00
   21    4    5      5.85      0.00
    0    5    5     22.14      0.00
    2    5    5    -39.68      0.00
    4    5    5    -14.08      0.00
    6    5    5     -9.21      0.00
    8    5    5     -3.73      0.00
   10    5    5     -1.78      0.00
   12    5    5      3.29      0.00
   14    5    5      2.96      0.00
   16    5    5      2.26      0.00
   18    5    5      3.92      0.00
   20    5    5      6.27      0.00
    1    6    5    -19.86      0.00
    3    6    5    -15.59      0.00
    5    6    5    -14.65      0.00
    7    6    5      0.51      0.00
    9    6    5      3.74      0.00
   11    6    5      3.84      0.00
   13    6    5     -2.70      0.00
   15    6    5     -4.88      0.00
   17    6    5      4.53      0.00
   19    6    5     -6.08      0.00
   21    6    5      1.93      0.00
    0    7    5     41.50      0.00
    2    7    5     -6.94      0.00
    4    7    5     12.24      0.00
    6    7    5      5.70      0.00
    8    7    5      4.27      0.00
   10    7    5      0.30      0.00
   12    7    5     -2.74      0.00
   14    7    5     -4.10      0.00
   16    7    5      0.78      0.00
   18    7    5      3.92      0.00
   20    7    5      6.09      0.00
    1    8    5     12.49      0.00
    3    8    5     25.07      0.00
    5    8    5     17.56      0.00
    7    8    5      7.38      0.00
    9    8    5      8.17      0.00
   11    8    5      5.52      0.00
   13    8    5     -0.21      0.00
   15    8    5     -3.67      0.00
   17    8    5      0.43      0.00
   19    8    5      2.93      0.00
   21    8    5     10.72      0.00
    0    9    5     19.72      0.00
    2    9    5     -0.57      0.00
    4    9    5     13.48      0.00
    6    9    5      0.28      0.00
    8    9    5     -0.93      0.00
   10    9    5      0.44      0.00
   12    9    5     -0.14      0.00
   14    9    5      2.88      0.00
   16    9    5      2.81      0.00
   18    9    5      0.34      0.00
   20    9    5     -4.01      0.00
    1   10    5     -4.25      0.00
    3   10    5      1.75      0.00
    5   10    5      8.24      0.00
    7   10    5      0.67      0.00
    9   10    5      6.18      0.00
   11   10    5      2.04      0.00
   13   10    5     -0.48      0.00
   15   10    5      2.33      0.00
   17   10    5     -1.16      0.00
   19   10    5     -2.07      0.00
    0   11    5    -10.92      0.00
    2   11    5     -1.48      0.00
    4   11    5     -2.94      0.00
    6   11    5     -1.99      0.00
    8   11    5      7.63      0.00
   10   11    5      1.13      0.00
   12   11    5     -5.17      0.00
   14   11    5     -1.51      0.00
   16   11    5      0.95      0.00
   18   11    5      1.38      0.00
   20   11    5     -8.91      0.00
    1   12    5      0.95      0.00
    3   12    5      2.07      0.00
    5   12    5      2.05      0.00
    7   12    5     -0.15      0.00
    9   12    5      1.44      0.00
   11   12    5     -2.54      0.00
   13   12    5      0.01      0.00
   15   12    5     -1.93      0.00
   17   12    5      1.17      0.00
   19   12    5     -0.16      0.00
    0   13    5    -14.37      0.00
    2   13    5     12.42      0.00
    4   13    5     -1.49      0.00
    6   13    5      1.07      0.00
    8   13    5     -2.17      0.00
   10   13    5      0.85      0.00
   12   13    5      2.85      0.00
   14   13    5      6.86      0.00
   16   13    5      3.11      0.00
   18   13    5     -2.21      0.00
    1   14    5     -9.35      0.00
    3   14    5     -0.02      0.00
    5   14    5     -0.68      0.00
    7   14    5     -5.39      0.00
    9   14    5     -1.01      0.00
   11   14    5     -2.47      0.00
   13   14    5      0.78      0.00
   15   14    5     -2.02      0.00
   17   14    5     -2.77      0.00
   19   14    5     -3.11      0.00
    0   15    5     -2.70      0.00
    2   15    5      3.59      0.00
    4   15    5     -4.77      0.00
    6   15    5      2.95      0.00
    8   15    5     -6.49      0.00
   10   15    5      0.95      0.00
   12   15    5     -3.45      0.00
   14   15    5      2.23      0.00
   16   15    5     -4.67      0.00
   18   15    5    -16.75      0.00
    1   16    5     -5.55      0.00
    3   16    5     -1.13      0.00
    5   16    5     -0.78      0.00
    7   16    5     -2.46      0.00
    9   16    5     -4.07      0.00
   11   16    5     -4.86      0.00
   13   16    5     -3.67      0.00
   15   16    5      4.50      0.00
   17   16    5      4.00      0.00
    0   17    5      9.23      0.00
    2   17    5      0.48      0.00
    4   17    5     -1.93      0.00
    6   17    5      1.84      0.00
    8   17    5     -0.71      0.00
   10   17    5      9.56      0.00
   12   17    5      0.90      0.00
   14   17    5      4.34      0.00
   16   17    5     -0.10      0.00
   18   17    5     -6.79      0.00
    1   18    5      2.30      0.00
    3   18    5      1.10      0.00
    5   18    5      3.26      0.00
    7   18    5      1.88      0.00
    9   18    5     -5.05      0.00
   11   18    5     -1.25      0.00
   13   18    5     -2.80      0.00
   15   18    5      5.53      0.00
   17   18    5      5.75      0.00
    0   19    5      2.89      0.00
    2   19    5      0.07      0.00
    4   19    5     -0.95      0.00
    6   19    5     -4.36      0.00
    8   19    5      0.99      0.00
   10   19    5      9.01      0.00
   12   19    5      0.21      0.00
   14   19    5      2.78      0.00
   16   19    5     -2.90      0.00
    1   20    5      2.00      0.00
    3   20    5     -3.87      0.00
    5   20    5      8.90      0.00
    9   20    5     -4.68      0.00
   11   20    5     -2.60      0.00
   13   20    5      0.03      0.00
   15   20    5      0.21      0.00
    0   21    5     -0.77      0.00
    2   21    5      0.89      0.00
    4   21    5     -1.05      0.00
    6   21    5    -11.63      0.00
    8   21    5      2.58      0.00
   10   21    5      7.75      0.00
   12   21    5     -0.26      0.00
   14   21    5     -7.08      0.00
    1   22    5      2.01      0.00
    3   22    5     -2.00      0.00
    5   22    5      6.34      0.00
    9   22    5      0.25      0.00
   11   22    5      2.22      0.00
   13   22    5      5.48      0.00
   15   22    5     -0.39      0.00
    0   23    5      7.96      0.00
    2   23    5      5.50      0.00
    4   23    5      4.35      0.00
   10   23    5      3.67      0.00
   12   23    5      4.87      0.00
   14   23    5      3.54      0.00
    1   24    5      5.12      0.00
    3   24    5     16.37      0.00
    5   24    5      7.58      0.00
    7   24    5     -1.46      0.00
    9   24    5     -1.12      0.00
   11   24    5     -1.19      0.00
   13   24    5      5.02      0.00
    0   25    5     -0.80      0.00
    2   25    5     -3.52      0.00
    6   25    5     -2.95      0.00
    8   25    5     -6.31      0.00
   10   25    5     -3.11      0.00
   12   25    5     -3.35      0.00
    7   26    5     -0.60      0.00
    9   26    5     -2.20      0.00
   11   26    5     -3.49      0.00
    8   27    5    -11.06      0.00
    0    0    6    -78.30      0.00
    2    0    6      2.26      0.00
    4    0    6     25.15      0.00
    6    0    6     -7.43      0.00
    8    0    6      0.54      0.00
   10    0    6     -4.24      0.00
   12    0    6      7.89      0.00
   14    0    6      7.67      0.00
   16    0    6      3.33      0.00
   18    0    6     -3.14      0.00
   20    0    6     -2.01      0.00
    1    1    6    -21.28      0.00
    3    1    6    -11.47      0.00
    5    1    6    -11.26      0.00
    7    1    6     -3.95      0.00
    9    1    6     -2.78      0.00
   11    1    6      5.96      0.00
   13    1    6     -5.27      0.00
   15    1    6      9.51      0.00
   17    1    6      7.06      0.00
   19    1    6      1.08      0.00
   21    1    6      7.13      0.00
    0    2    6    -57.93      0.00
    2    2    6     23.86      0.00
    4    2    6      8.27      0.00
    6    2    6      3.61      0.00
    8    2    6      4.73      0.00
   10    2    6     -5.12      0.00
   12    2    6      3.04      0.00
   14    2    6     -4.19      0.00
   16    2    6     -3.84      0.00
   18    2    6      0.40      0.00
   20    2    6     -0.50      0.00
   22    2    6     10.82      0.00
    1    3    6     26.77      0.00
    3    3    6     25.91      0.00
    5    3    6      5.90      0.00
    7    3    6      8.82      0.00
    9    3    6    -10.14      0.00
   11    3    6     -0.19      0.00
   13    3    6     -7.61      0.00
   15    3    6      3.67      0.00
   17    3    6     -0.45      0.00
   19    3    6     -4.39      0.00
   21    3    6     -3.71      0.00
    0    4    6     15.63      0.00
    2    4    6     67.04      0.00
    4    4    6     -4.10      0.00
    6    4    6      9.73      0.00
    8    4    6      0.44      0.00
   10    4    6     -4.04      0.00
   12    4    6     -0.34      0.00
   14    4    6     -0.03      0.00
   16    4    6      2.65      0.00
   18    4    6      0.91      0.00
   20    4    6     -4.08      0.00
    1    5    6     11.72      0.00
    3    5    6     17.18      0.00
    5    5    6      7.21      0.00
    7    5    6      7.43      0.00
    9    5    6     -6.38      0.00
   11    5    6      1.83      0.00
   13    5    6     -7.85      0.00
   15    5    6      6.41      0.00
   17    5    6     -2.71      0.00
   19    5    6      4.69      0.00
   21    5    6      1.58      0.00
    0    6    6     17.03      0.00
    2    6    6     19.97      0.00
    4    6    6    -25.04      0.00
    6    6    6     -2.83      0.00
    8    6    6     -6.06      0.00
   10    6    6     -1.09      0.00
   12    6    6     -1.06      0.00
   14    6    6      0.54      0.00
   16    6    6     -3.23      0.00
   18    6    6     -1.42      0.00
   20    6    6     -1.92      0.00
    1    7    6    -31.10      0.00
    3    7    6    -22.85      0.00
    5    7    6     -8.19      0.00
    7    7    6     -1.12      0.00
    9    7    6     -9.63      0.00
   11    7    6      4.17      0.00
   13    7    6      1.93      0.00
   15    7    6      7.37      0.00
   17    7    6     -9.60      0.00
   19    7    6     -3.75      0.00
   21    7    6     -2.36      0.00
    0    8    6     -1.56      0.00
    2    8    6     -6.70      0.00
    4    8    6    -17.81      0.00
    6    8    6      3.71      0.00
    8    8    6      3.65      0.00
   10    8    6     -0.91      0.00
   12    8    6     -0.54      0.00
   14    8    6      2.64      0.00
   16    8    6     -3.03      0.00
   18    8    6     -3.43      0.00
   20    8    6    -12.99      0.00
    1    9    6      2.97      0.00
    3    9    6    -14.03      0.00
    5    9    6     -3.78      0.00
    7    9    6      5.53      0.00
    9    9    6     -6.34      0.00
   11    9    6      1.55      0.00
   13    9    6     -3.05      0.00
   15    9    6      3.15      0.00
   17    9    6      0.53      0.00
   19    9    6      4.84      0.00
    0   10    6     11.70      0.00
    2   10    6     12.36      0.00
    4   10    6     -9.01      0.00
    6   10    6      3.39      0.00
    8   10    6     -1.48      0.00
   10   10    6     -4.29      0.00
   12   10    6      0.42      0.00
   14   10    6     -1.16      0.00
   16   10    6     -1.18      0.00
   18   10    6      2.58      0.00
   20   10    6     -3.22      0.00
    1   11    6     15.69      0.00
    3   11    6     -6.10      0.00
    5   11    6     -1.10      0.00
    7   11    6     -5.16      0.00
    9   11    6     -5.23      0.00
   11   11    6      6.29      0.00
   13   11    6     -5.11      0.00
   15   11    6      2.78      0.00
   17   11    6     -3.50      0.00
   19   11    6     -1.45      0.00
    0   12    6     14.22      0.00
    2   12    6     11.06      0.00
    4   12    6     -9.44      0.00
    6   12    6     -2.73      0.00
    8   12    6     -3.15      0.00
   10   12    6     -0.89      0.00
   12   12    6      4.68      0.00
   14   12    6     -3.19      0.00
   16   12    6     -5.34      0.00
   18   12    6     -5.46      0.00
   20   12    6     -3.45      0.00
    1   13    6     11.91      0.00
    3   13    6     -0.09      0.00
    5   13    6      3.11      0.00
    7   13    6     -2.91      0.00
    9   13    6      2.38      0.00
   11   13    6      6.47      0.00
   13   13    6     -9.32      0.00
   15   13    6      0.82      0.00
   17   13    6      1.25      0.00
   19   13    6      0.31      0.00
    0   14    6     -7.64      0.00
    2   14    6     -8.82      0.00
    4   14    6     -8.98      0.00
    6   14    6      1.53      0.00
    8   14    6      3.00      0.00
   10   14    6     -0.19      0.00
   12   14    6      6.52      0.00
   14   14    6     -2.03      0.00
   16   14    6     -3.56      0.00
   18   14    6      6.08      0.00
    1   15    6     -8.35      0.00
    3   15    6     -1.77      0.00
    5   15    6      7.08      0.00
    7   15    6      3.13      0.00
    9   15    6      6.17      0.00
   11   15    6      7.36      0.00
   13   15    6      2.95      0.00
   15   15    6      1.84      0.00
   17   15    6     12.16      0.00
   19   15    6      4.83      0.00
    0   16    6     -7.45      0.00
    2   16    6     -0.07      0.00
    4   16    6     -1.14      0.00
    6   16    6      5.61      0.00
    8   16    6      4.62      0.00
   10   16    6     -3.06      0.00
   12   16    6      1.83      0.00
   14   16    6      1.24      0.00
   16   16    6     -0.35      0.00
   18   16    6     15.91      0.00
    1   17    6      3.05      0.00
    3   17    6      3.65      0.00
    5   17    6      4.10      0.00
    7   17    6     -3.86      0.00
    9   17    6     -0.83      0.00
   11   17    6     -6.37      0.00
   13   17    6      4.61      0.00
   15   17    6     -0.09      0.00
   17   17    6     10.90      0.00
    0   18    6      0.19      0.00
    2   18    6      9.82      0.00
    4   18    6     -1.25      0.00
    6   18    6      4.95      0.00
    8   18    6      3.85      0.00
   10   18    6     -7.24      0.00
   12   18    6     -2.30      0.00
   14   18    6     -2.07      0.00
   16   18    6     -5.87      0.00
    1   19    6     -2.14      0.00
    3   19    6     -1.24      0.00
    5   19    6     -0.55      0.00
    7   19    6     -2.31      0.00
    9   19    6      3.18      0.00
   11   19    6      0.39      0.00
   13   19    6      4.17      0.00
   15   19    6     -1.38      0.00
   17   19    6     -0.60      0.00
    0   20    6     -6.32      0.00
    2   20    6     -0.87      0.00
    4   20    6    -10.86      0.00
    6   20    6      2.17      0.00
    8   20    6      3.88      0.00
   10   20    6     -6.49      0.00
   12   20    6      4.42      0.00
   14   20    6      4.49      0.00
   16   20    6      1.66      0.00
    1   21    6     -5.16      0.00
    3   21    6      1.30      0.00
    5   21    6      1.99      0.00
    9   21    6     -2.27      0.00
   11   21    6     -2.47      0.00
   13   21    6     -0.57      0.00
   15   21    6      6.70      0.00
    0   22    6     -1.92      0.00
    2   22    6     -3.86      0.00
    4   22    6     -7.49      0.00
   10   22    6     -6.87      0.00
   12   22    6     -2.79      0.00
   14   22    6     -1.51      0.00
    1   23    6     -8.72      0.00
    3   23    6      0.49      0.00
    5   23    6      2.00      0.00
    7   23    6      0.55      0.00
    9   23    6     -3.60      0.00
   11   23    6     -6.53      0.00
   13   23    6     -6.99      0.00
    0   24    6      6.80      0.00
    2   24    6     -0.26      0.00
    4   24    6     -7.02      0.00
    6   24    6     -4.73      0.00
    8   24    6      5.67      0.00
   10   24    6      3.49      0.00
   12   24    6      1.16      0.00
    1   25    6      1.59      0.00
    5   25    6      8.05      0.00
    7   25    6     11.90      0.00
    9   25    6      1.59      0.00
   11   25    6     -4.90      0.00
    6   26    6      2.59      0.00
    8   26    6     12.09      0.00
   10   26    6     -0.53      0.00
    7   27    6      4.54      0.00
    9   27    6     -0.46      0.00
    1    0    7     10.14      0.00
    3    0    7     63.06      0.00
    5    0    7     53.58      0.00
    7    0    7     13.50      0.00
    9    0    7     -2.27      0.00
   11    0    7    -14.19      0.00
   13    0    7      8.98      0.00
   15    0    7     -5.88      0.00
   17    0    7     -4.25      0.00
   19    0    7      0.43      0.00
   21    0    7      1.57      0.00
    0    1    7   -131.50      0.00
    2    1    7    -11.98      0.00
    4    1    7     12.04      0.00
    6    1    7      2.07      0.00
    8    1    7     -7.52      0.00
   10    1    7      3.79      0.00
   12    1    7      2.50      0.00
   14    1    7     -1.05      0.00
   16    1    7      2.20      0.00
   18    1    7     -1.50      0.00
   20    1    7      4.20      0.00
    1    2    7     32.49      0.00
    3    2    7      8.35      0.00
    5    2    7     -7.72      0.00
    7    2    7    -12.92      0.00
    9    2    7      7.60      0.00
   11    2    7     -2.62      0.00
   13    2    7      6.22      0.00
   15    2    7      0.15      0.00
   17    2    7      1.80      0.00
   19    2    7      1.24      0.00
   21    2    7      0.17      0.00
    0    3    7     26.02      0.00
    2    3    7     12.08      0.00
    4    3    7      8.76      0.00
    6    3    7     -1.09      0.00
    8    3    7      6.83      0.00
   10    3    7      8.30      0.00
   12    3    7     -0.98      0.00
   14    3    7     -5.04      0.00
   16    3    7      0.99      0.00
   18    3    7      6.07      0.00
   20    3    7      5.71      0.00
    1    4    7     32.59      0.00
    3    4    7      2.71      0.00
    5    4    7      0.35      0.00
    7    4    7     -6.95      0.00
    9    4    7      7.77      0.00
   11    4    7     -2.36      0.00
   13    4    7     -4.21      0.00
   15    4    7     -4.40      0.00
   17    4    7      0.68      0.00
   19    4    7      0.36      0.00
   21    4    7     -0.32      0.00
    0    5    7     25.76      0.00
    2    5    7     -0.53      0.00
    4    5    7     17.73      0.00
    6    5    7      6.48      0.00
    8    5    7      2.87      0.00
   10    5    7     -5.71      0.00
   12    5    7      1.17      0.00
   14    5    7      1.08      0.00
   16    5    7     -0.48      0.00
   18    5    7      7.90      0.00
   20    5    7      0.76      0.00
    1    6    7      0.08      0.00
    3    6    7     -0.14      0.00
    5    6    7      3.21      0.00
    7    6    7     -8.94      0.00
    9    6    7     -3.40      0.00
   11    6    7      3.67      0.00
   13    6    7      3.07      0.00
   15    6    7      1.69      0.00
   17    6    7      1.59      0.00
   19    6    7     -3.01      0.00
   21    6    7     -4.57      0.00
    0    7    7     19.16      0.00
    2    7    7      9.18      0.00
    4    7    7      2.20      0.00
    6    7    7      1.95      0.00
    8    7    7      4.46      0.00
   10    7    7     -4.53      0.00
   12    7    7     -0.78      0.00
   14    7    7     -1.47      0.00
   16    7    7      0.25      0.00
   18    7    7      4.69      0.00
   20    7    7      2.39      0.00
    1    8    7    -10.83      0.00
    3    8    7     -9.85      0.00
    5    8    7      5.02      0.00
    7    8    7      3.65      0.00
    9    8    7      1.27      0.00
   11    8    7      3.81      0.00
   13    8    7     -3.12      0.00
   15    8    7     -2.99      0.00
   17    8    7     -2.46      0.00
   19    8    7      4.67      0.00
   21    8    7      3.89      0.00
    0    9    7     -5.81      0.00
    2    9    7     -5.19      0.00
    4    9    7     -9.63      0.00
    6    9    7    -14.58      0.00
    8    9    7      2.23      0.00
   10    9    7     -1.49      0.00
   12    9    7     -1.67      0.00
   14    9    7     -2.73      0.00
   16    9    7     -2.28      0.00
   18    9    7     -5.29      0.00
   20    9    7      0.41      0.00
    1   10    7      5.45      0.00
    3   10    7     -2.37      0.00
    5   10    7      0.09      0.00
    7   10    7      1.86      0.00
    9   10    7     -0.85      0.00
   11   10    7     -0.43      0.00
   13   10    7      2.32      0.00
   15   10    7     -3.33      0.00
   17   10    7     -3.62      0.00
   19   10    7      6.82      0.00
    0   11    7    -13.78      0.00
    2   11    7     -5.59      0.00
    4   11    7      8.89      0.00
    6   11    7     -8.02      0.00
    8   11    7      1.18      0.00
   10   11    7     -5.66      0.00
   12   11    7     -1.21      0.00
   14   11    7      0.63      0.00
   16   11    7      1.07      0.00
   18   11    7     -0.20      0.00
   20   11    7      0.25      0.00
    1   12    7     -0.36      0.00
    3   12    7     -4.38      0.00
    5   12    7      3.37      0.00
    7   12    7      2.27      0.00
    9   12    7     -5.74      0.00
   11   12    7     -5.42      0.00
   13   12    7      6.82      0.00
   15   12    7     -6.12      0.00
   17   12    7     -2.82      0.00
   19   12    7      6.02      0.00
    0   13    7     -7.66      0.00
    2   13    7     -2.98      0.00
    4   13    7      2.15      0.00
    6   13    7     -3.95      0.00
    8   13    7     -0.34      0.00
   10   13    7     -5.48      0.00
   12   13    7      1.83      0.00
   14   13    7      6.17      0.00
   16   13    7      1.52      0.00
   18   13    7     -7.10      0.00
    1   14    7     -1.09      0.00
    3   14    7     -6.14      0.00
    5   14    7     -1.15      0.00
    7   14    7     -4.76      0.00
    9   14    7     -2.77      0.00
   11   14    7     -5.69      0.00
   13   14    7      0.62      0.00
   15   14    7     -1.86      0.00
   17   14    7      2.70      0.00
   19   14    7      3.95      0.00
    0   15    7      8.16      0.00
    2   15    7      7.80      0.00
    4   15    7     -4.87      0.00
    6   15    7     -0.88      0.00
    8   15    7      8.01      0.00
   10   15    7      1.17      0.00
   12   15    7      3.15      0.00
   14   15    7      6.31      0.00
   16   15    7      4.29      0.00
   18   15    7    -18.27      0.00
    1   16    7      0.05      0.00
    3   16    7      1.96      0.00
    5   16    7      1.79      0.00
    7   16    7     -0.53      0.00
    9   16    7      7.56      0.00
   11   16    7     12.75      0.00
   13   16    7      0.31      0.00
   15   16    7     -1.21      0.00
   17   16    7     -1.69      0.00
    0   17    7     -0.39      0.00
    2   17    7      1.22      0.00
    4   17    7     -2.50      0.00
    6   17    7     -0.72      0.00
    8   17    7      5.44      0.00
   10   17    7      1.07      0.00
   12   17    7      2.48      0.00
   14   17    7     -1.53      0.00
   16   17    7     -8.65      0.00
   18   17    7    -42.98      0.00
    1   18    7     -6.26      0.00
    3   18    7      2.45      0.00
    5   18    7     -3.60      0.00
    7   18    7     -5.36      0.00
    9   18    7     -6.44      0.00
   11   18    7      4.06      0.00
   13   18    7     -7.08      0.00
   15   18    7     -4.99      0.00
   17   18    7     -0.56      0.00
    0   19    7      0.84      0.00
    2   19    7     -2.90      0.00
    4   19    7     -0.10      0.00
    6   19    7     -3.43      0.00
    8   19    7     -1.84      0.00
   10   19    7     -3.47      0.00
   12   19    7     -8.11      0.00
   14   19    7     -3.39      0.00
   16   19    7      7.33      0.00
    1   20    7     -1.88      0.00
    3   20    7      5.37      0.00
    5   20    7     -2.28      0.00
    7   20    7      3.87      0.00
    9   20    7      1.33      0.00
   11   20    7      5.45      0.00
   13   20    7      2.49      0.00
   15   20    7      1.28      0.00
    0   21    7      6.72      0.00
    2   21    7      2.00      0.00
    4   21    7     -0.72      0.00
    6   21    7      0.56      0.00
   10   21    7      4.52      0.00
   12   21    7     -2.23      0.00
   14   21    7     -4.06      0.00
    1   22    7      2.26      0.00
    3   22    7      4.79      0.00
    5   22    7      0.04      0.00
    9   22    7     -4.28      0.00
   11   22    7      1.51      0.00
   13   22    7      3.53      0.00
    0   23    7      3.01      0.00
    2   23    7      4.17      0.00
    4   23    7     -9.56      0.00
    6   23    7     11.86      0.00
    8   23    7      1.02      0.00
   10   23    7     -1.30      0.00
   12   23    7      0.97      0.00
   14   23    7     -1.31      0.00
    1   24    7     -1.71      0.00
    3   24    7     -1.03      0.00
    5   24    7     -4.10      0.00
    7   24    7      9.46      0.00
    9   24    7     -2.58      0.00
   11   24    7      5.01      0.00
   13   24    7      0.67      0.00
    0   25    7     -2.63      0.00
    2   25    7      3.51      0.00
    6   25    7     -2.20      0.00
    8   25    7     -3.10      0.00
   10   25    7      1.58      0.00
    1   26    7     -2.64      0.00
    7   26    7     -5.82      0.00
    9   26    7      0.67      0.00
    8   27    7     -5.37      0.00
    0    0    8    133.96      0.00
    2    0    8     10.01      0.00
    4    0    8    -20.00      0.00
    6    0    8      2.46      0.00
    8    0    8      6.62      0.00
   10    0    8      4.03      0.00
   12    0    8     -0.60      0.00
   14    0    8     -0.22      0.00
   16    0    8      0.63      0.00
   18    0    8     -6.55      0.00
   20    0    8     -8.99      0.00
    1    1    8     28.46      0.00
    3    1    8    -39.71      0.00
    5    1    8    -18.20      0.00
    7    1    8     -9.96      0.00
    9    1    8     -0.07      0.00
   11    1    8     -2.89      0.00
   13    1    8     -4.81      0.00
   15    1    8      0.76      0.00
   17    1    8     -1.61      0.00
   19    1    8     -0.49      0.00
   21    1    8      0.56      0.00
    0    2    8      7.65      0.00
    2    2    8    -12.22      0.00
    4    2    8     -4.93      0.00
    6    2    8      6.19      0.00
    8    2    8     -1.53      0.00
   10    2    8     -6.18      0.00
   12    2    8     -4.87      0.00
   14    2    8     -2.84      0.00
   16    2    8     -4.50      0.00
   18    2    8     -7.67      0.00
   20    2    8     -9.69      0.00
    1    3    8    -48.65      0.00
    3    3    8    -16.06      0.00
    5    3    8     11.46      0.00
    7    3    8     -6.60      0.00
    9    3    8      2.97      0.00
   11    3    8      1.62      0.00
   13    3    8      4.08      0.00
   15    3    8     -1.46      0.00
   17    3    8      1.43      0.00
   19    3    8     -4.77      0.00
   21    3    8     -1.62      0.00
    0    4    8    -38.17      0.00
    2    4    8      2.26      0.00
    4    4    8     -4.16      0.00
    6    4    8     -2.28      0.00
    8    4    8      2.46      0.00
   10    4    8      2.06      0.00
   12    4    8      7.11      0.00
   14    4    8      7.76      0.00
   16    4    8      1.26      0.00
   18    4    8     -1.42      0.00
   20    4    8     -1.24      0.00
    1    5    8    -33.45      0.00
    3    5    8    -17.38      0.00
    5    5    8      3.65      0.00
    7    5    8     -7.20      0.00
    9    5    8      7.84      0.00
   11    5    8      0.85      0.00
   13    5    8      0.43      0.00
   15    5    8     -4.46      0.00
   17    5    8      3.14      0.00
   19    5    8     -3.78      0.00
   21    5    8      4.87      0.00
    0    6    8      2.83      0.00
    2    6    8      8.09      0.00
    4    6    8      5.94      0.00
    6    6    8     -9.42      0.00
    8    6    8     -0.85      0.00
   10    6    8     -9.66      0.00
   12    6    8     -3.53      0.00
   14    6    8      1.00      0.00
   16    6    8     -2.64      0.00
   18    6    8     -4.55      0.00
   20    6    8     -2.89      0.00
    1    7    8      4.44      0.00
    3    7    8      3.39      0.00
    5    7    8     -2.48      0.00
    7    7    8    -14.36      0.00
    9    7    8      0.35      0.00
   11    7    8     -0.13      0.00
   13    7    8     -1.66      0.00
   15    7    8     -2.44      0.00
   17    7    8      5.08      0.00
   19    7    8     -4.35      0.00
   21    7    8      2.86      0.00
    0    8    8     10.61      0.00
    2    8    8     -1.08      0.00
    4    8    8     28.75      0.00
    6    8    8     -3.42      0.00
    8    8    8      4.53      0.00
   10    8    8     -0.72      0.00
   12    8    8      2.02      0.00
   14    8    8      6.20      0.00
   16    8    8      5.50      0.00
   18    8    8      5.90      0.00
   20    8    8      0.36      0.00
    1    9    8     -1.04      0.00
    3    9    8     12.24      0.00
    5    9    8      9.58      0.00
    7    9    8      3.72      0.00
    9    9    8      3.64      0.00
   11    9    8      5.63      0.00
   13    9    8      1.01      0.00
   15    9    8      3.00      0.00
   17    9    8      7.37      0.00
   19    9    8     -2.06      0.00
    0   10    8      7.06      0.00
    2   10    8    -13.57      0.00
    4   10    8     16.75      0.00
    6   10    8      3.80      0.00
    8   10    8      8.81      0.00
   10   10    8      4.65      0.00
   12   10    8     -2.42      0.00
   14   10    8      3.14      0.00
   16   10    8     -1.72      0.00
   18   10    8     -2.15      0.00
   20   10    8      2.70      0.00
    1   11    8    -17.42      0.00
    3   11    8     -7.62      0.00
    5   11    8     -1.41      0.00
    7   11    8      4.18      0.00
    9   11    8      1.24      0.00
   11   11    8      2.44      0.00
   13   11    8     -3.22      0.00
   15   11    8      2.92      0.00
   17   11    8      3.47      0.00
   19   11    8     -1.52      0.00
    0   12    8      2.76      0.00
    2   12    8    -17.07      0.00
    4   12    8     -0.13      0.00
    6   12    8     -6.82      0.00
    8   12    8      1.41      0.00
   10   12    8      1.35      0.00
   12   12    8     -5.41      0.00
   14   12    8      4.02      0.00
   16   12    8      1.64      0.00
   18   12    8      0.74      0.00
   20   12    8      7.50      0.00
    1   13    8     -0.26      0.00
    3   13    8      2.13      0.00
    5   13    8     -0.32      0.00
    7   13    8      2.37      0.00
    9   13    8     -2.01      0.00
   11   13    8     -1.56      0.00
   13   13    8     -4.49      0.00
   15   13    8      6.91      0.00
   17   13    8     14.92      0.00
   19   13    8      4.40      0.00
    0   14    8     12.87      0.00
    2   14    8     -1.94      0.00
    4   14    8     12.07      0.00
    6   14    8     -1.74      0.00
    8   14    8      1.61      0.00
   10   14    8     -1.59      0.00
   12   14    8     -3.64      0.00
   14   14    8      2.82      0.00
   16   14    8     -0.59      0.00
   18   14    8      1.14      0.00
    1   15    8     11.44      0.00
    3   15    8     11.37      0.00
    5   15    8      4.01      0.00
    7   15    8      1.62      0.00
    9   15    8     -6.00      0.00
   11   15    8     -5.29      0.00
   13   15    8     -5.25      0.00
   15   15    8     -6.96      0.00
   17   15    8     -0.98      0.00
    0   16    8      4.12      0.00
    2   16    8     -9.44      0.00
    4   16    8      1.68      0.00
    6   16    8     -6.06      0.00
    8   16    8     -3.59      0.00
   10   16    8     -6.78      0.00
   12   16    8     -5.42      0.00
   14   16    8     -1.24      0.00
   16   16    8     -5.81      0.00
   18   16    8      5.36      0.00
    1   17    8     -6.23      0.00
    3   17    8     -3.19      0.00
    5   17    8     -5.20      0.00
    7   17    8      0.43      0.00
    9   17    8     -1.71      0.00
   11   17    8      1.17      0.00
   13   17    8      2.62      0.00
   15   17    8      0.64      0.00
   17   17    8      7.93      0.00
    0   18    8      2.97      0.00
    2   18    8     -5.51      0.00
    4   18    8     -1.86      0.00
    6   18    8      3.24      0.00
    8   18    8      3.33      0.00
   10   18    8     -4.91      0.00
   12   18    8     -3.55      0.00
   14   18    8      0.27      0.00
   16   18    8     -0.97      0.00
    1   19    8     -0.32      0.00
    3   19    8      0.97      0.00
    5   19    8     -3.13      0.00
    7   19    8      2.05      0.00
    9   19    8     -8.16      0.00
   11   19    8      2.07      0.00
   13   19    8     -0.86      0.00
   15   19    8      1.63      0.00
    0   20    8      3.96      0.00
    2   20    8      3.34      0.00
    4   20    8     -0.38      0.00
    6   20    8      7.45      0.00
    8   20    8     -0.82      0.00
   10   20    8    -13.44      0.00
   12   20    8     -2.06      0.00
   14   20    8      4.33      0.00
   16   20    8     -0.02      0.00
    1   21    8      4.38      0.00
    3   21    8      7.11      0.00
    5   21    8      5.53      0.00
    7   21    8      7.95      0.00
    9   21    8     -5.86      0.00
   11   21    8      6.10      0.00
   13   21    8     -2.97      0.00
   15   21    8     -3.06      0.00
    0   22    8     -4.00      0.00
    2   22    8      0.21      0.00
    4   22    8      7.56      0.00
    6   22    8      8.60      0.00
    8   22    8      5.73      0.00
   10   22    8     -1.91      0.00
   12   22    8      0.46      0.00
   14   22    8      3.94      0.00
    1   23    8     -6.27      0.00
    3   23    8     -0.86      0.00
    5   23    8     -0.94      0.00
    7   23    8     -6.97      0.00
    9   23    8     -5.47      0.00
   11   23    8      0.40      0.00
   13   23    8     -1.38      0.00
    0   24    8      6.26      0.00
    2   24    8     -1.39      0.00
    4   24    8     -0.02      0.00
    6   24    8    -14.31      0.00
    8   24    8     -6.47      0.00
   10   24    8      4.11      0.00
   12   24    8      0.49      0.00
    1   25    8     -0.65      0.00
    3   25    8     -4.05      0.00
    5   25    8      1.90      0.00
    7   25    8     -7.54      0.00
    9   25    8     -5.03      0.00
   11   25    8     -3.40      0.00
    0   26    8      7.73      0.00
    2   26    8      2.95      0.00
    6   26    8     -1.73      0.00
    8   26    8     -3.05      0.00
   10   26    8      4.69      0.00
    1   27    8      5.66      0.00
    7   27    8      1.46      0.00
    0   28    8     -3.44      0.00
    1   29    8      6.68      0.00
    1    0    9     18.94      0.00
    3    0    9     22.19      0.00
    5    0    9     17.82      0.00
    7    0    9     12.07      0.00
    9    0    9    -14.65      0.00
   11    0    9      4.48      0.00
   13    0    9     -2.85      0.00
   15    0    9     -0.26      0.00
   17    0    9     13.46      0.00
   19    0    9      4.47      0.00
   21    0    9     -6.81      0.00
    0    1    9     57.43      0.00
    2    1    9    -28.61      0.00
    4    1    9     26.60      0.00
    6    1    9    -21.60      0.00
    8    1    9      8.35      0.00
   10    1    9     -0.55      0.00
   12    1    9      0.57      0.00
   14    1    9      3.66      0.00
   16    1    9      2.17      0.00
   18    1    9     13.22      0.00
   20    1    9      6.26      0.00
    1    2    9      5.36      0.00
    3    2    9    -22.59      0.00
    5    2    9    -10.32      0.00
    7    2    9      9.88      0.00
    9    2    9     -4.53      0.00
   11    2    9     11.48      0.00
   13    2    9     -2.02      0.00
   15    2    9     -4.40      0.00
   17    2    9     -0.97      0.00
   19    2    9      0.75      0.00
   21    2    9     -2.15      0.00
    0    3    9     46.17      0.00
    2    3    9    -37.92      0.00
    4    3    9      3.43      0.00
    6    3    9    -15.40      0.00
    8    3    9      9.09      0.00
   10    3    9     -0.70      0.00
   12    3    9     -2.04      0.00
   14    3    9     -0.08      0.00
   16    3    9     -4.96      0.00
   18    3    9     -2.28      0.00
   20    3    9      5.77      0.00
    1    4    9      7.54      0.00
    3    4    9    -11.23      0.00
    5    4    9     -0.44      0.00
    7    4    9      7.65      0.00
    9    4    9    -10.60      0.00
   11    4    9      0.98      0.00
   13    4    9     -3.65      0.00
   15    4    9      2.19      0.00
   17    4    9     -2.54      0.00
   19    4    9     -4.34      0.00
   21    4    9     -5.06      0.00
    0    5    9     -5.41      0.00
    2    5    9     -7.58      0.00
    4    5    9     15.22      0.00
    6    5    9      5.37      0.00
    8    5    9      6.69      0.00
   10    5    9      3.93      0.00
   12    5    9     -3.53      0.00
   14    5    9      1.84      0.00
   16    5    9      2.53      0.00
   18    5    9      1.67      0.00
   20    5    9      2.65      0.00
    1    6    9    -22.26      0.00
    3    6    9     -3.36      0.00
    5    6    9     -0.89      0.00
    7    6    9      2.28      0.00
    9    6    9     -6.59      0.00
   11    6    9     -0.02      0.00
   13    6    9     -0.22      0.00
   15    6    9      3.22      0.00
   17    6    9      2.02      0.00
   19    6    9     -0.58      0.00
   21    6    9     -2.94      0.00
    0    7    9    -19.76      0.00
    2    7    9     11.10      0.00
    4    7    9    -15.21      0.00
    6    7    9     -0.09      0.00
    8    7    9     -3.77      0.00
   10    7    9      4.93      0.00
   12    7    9     -5.75      0.00
   14    7    9      0.53      0.00
   16    7    9     -4.51      0.00
   18    7    9     -1.20      0.00
   20    7    9      0.98      0.00
    1    8    9     -4.63      0.00
    3    8    9      1.12      0.00
    5    8    9     -5.30      0.00
    7    8    9      5.33      0.00
    9    8    9     -1.50      0.00
   11    8    9     -1.85      0.00
   13    8    9      2.14      0.00
   15    8    9     -2.00      0.00
   17    8    9      0.11      0.00
   19    8    9      2.11      0.00
    0    9    9      1.67      0.00
    2    9    9     19.08      0.00
    4    9    9    -12.45      0.00
    6    9    9      7.54      0.00
    8    9    9     -6.53      0.00
   10    9    9      3.49      0.00
   12    9    9      0.76      0.00
   14    9    9      1.54      0.00
   16    9    9     -1.98      0.00
   18    9    9      0.55      0.00
   20    9    9     -9.08      0.00
    1   10    9     10.91      0.00
    3   10    9     14.26      0.00
    5   10    9     -3.52      0.00
    7   10    9      0.64      0.00
    9   10    9     -5.01      0.00
   11   10    9      0.97      0.00
   13   10    9      4.70      0.00
   15   10    9     -6.27      0.00
   17   10    9      0.88      0.00
   19   10    9     -1.69      0.00
    0   11    9     -4.18      0.00
    2   11    9      4.98      0.00
    4   11    9     -6.07      0.00
    6   11    9     -1.55      0.00
    8   11    9     -9.80      0.00
   10   11    9      2.60      0.00
   12   11    9      5.16      0.00
   14   11    9     -2.27      0.00
   16   11    9      1.37      0.00
   18   11    9     -2.06      0.00
   20   11    9    -19.22      0.00
    1   12    9     -4.07      0.00
    3   12    9      2.62      0.00
    5   12    9     -8.24      0.00
    7   12    9      2.77      0.00
    9   12    9      1.22      0.00
   11   12    9      1.56      0.00
   13   12    9      4.65      0.00
   15   12    9     -6.38      0.00
   17   12    9     -2.46      0.00
   19   12    9     -1.84      0.00
    0   13    9     -1.17      0.00
    2   13    9      1.13      0.00
    4   13    9     -1.36      0.00
    6   13    9      2.34      0.00
    8   13    9      4.62      0.00
   10   13    9      8.31      0.00
   12   13    9      4.77      0.00
   14   13    9     -2.81      0.00
   16   13    9      0.27      0.00
   18   13    9     -2.11      0.00
    1   14    9     -1.35      0.00
    3   14    9      2.78      0.00
    5   14    9      2.17      0.00
    7   14    9      5.47      0.00
    9   14    9      1.57      0.00
   11   14    9     -1.61      0.00
   13   14    9      0.45      0.00
   15   14    9     -6.06      0.00
   17   14    9     -3.64      0.00
   19   14    9      3.04      0.00
    0   15    9      5.27      0.00
    2   15    9      2.52      0.00
    4   15    9      0.43      0.00
    6   15    9      3.29      0.00
    8   15    9      7.31      0.00
   10   15    9     10.30      0.00
   12   15    9      4.15      0.00
   14   15    9     -1.48      0.00
   16   15    9      1.74      0.00
   18   15    9      1.44      0.00
    1   16    9     -1.48      0.00
    3   16    9     -2.50      0.00
    5   16    9      0.88      0.00
    7   16    9      0.61      0.00
    9   16    9      0.49      0.00
   11   16    9      0.05      0.00
   13   16    9     -2.00      0.00
   15   16    9      1.97      0.00
   17   16    9      8.93      0.00
    0   17    9      3.68      0.00
    2   17    9     -0.42      0.00
    4   17    9     -1.43      0.00
    6   17    9     -0.53      0.00
    8   17    9     -4.11      0.00
   10   17    9     -4.44      0.00
   12   17    9     -2.13      0.00
   14   17    9      5.01      0.00
   16   17    9      2.41      0.00
    1   18    9      2.31      0.00
    3   18    9      2.55      0.00
    5   18    9      3.10      0.00
    7   18    9     -5.61      0.00
    9   18    9      4.15      0.00
   11   18    9      5.11      0.00
   13   18    9      2.86      0.00
   15   18    9      0.29      0.00
   17   18    9      3.43      0.00
    0   19    9      3.27      0.00
    2   19    9     -4.69      0.00
    4   19    9     -1.89      0.00
    6   19    9     -1.05      0.00
    8   19    9      2.30      0.00
   10   19    9      7.59      0.00
   12   19    9      0.51      0.00
   14   19    9      3.56      0.00
   16   19    9     -2.00      0.00
    1   20    9     -3.22      0.00
    3   20    9     -2.08      0.00
    5   20    9     -3.00      0.00
    7   20    9    -14.08      0.00
    9   20    9     18.57      0.00
   11   20    9     11.27      0.00
   13   20    9      3.89      0.00
   15   20    9      0.23      0.00
    0   21    9      5.18      0.00
    2   21    9     -4.33      0.00
    4   21    9     -3.04      0.00
    6   21    9    -10.90      0.00
    8   21    9     -2.21      0.00
   10   21    9      7.88      0.00
   12   21    9     -3.52      0.00
   14   21    9     -2.95      0.00
    1   22    9      3.15      0.00
    3   22    9      0.33      0.00
    5   22    9     -0.39      0.00
    7   22    9    -13.77      0.00
    9   22    9     10.26      0.00
   11   22    9     -0.15      0.00
   13   22    9     -4.95      0.00
    0   23    9     -0.55      0.00
    2   23    9      0.82      0.00
    4   23    9      3.57      0.00
    6   23    9     -5.72      0.00
    8   23    9     -3.55      0.00
   10   23    9     -0.27      0.00
   12   23    9     -1.14      0.00
    1   24    9     -0.14      0.00
    3   24    9     -2.08      0.00
    5   24    9      5.57      0.00
    7   24    9     -2.97      0.00
    9   24    9      4.90      0.00
   11   24    9      1.18      0.00
    0   25    9    -12.51      0.00
    2   25    9     -2.41      0.00
    6   25    9      5.45      0.00
    8   25    9      4.05      0.00
   10   25    9     -1.07      0.00
    1   26    9     -0.82      0.00
    7   26    9      7.23      0.00
    9   26    9      4.10      0.00
    8   27    9     -1.02      0.00
    2   29    9      2.44      0.00
    0    0   10     14.98      0.00
    2    0   10      4.87      0.00
    4    0   10     15.32      0.00
    6    0   10      7.22      0.00
    8    0   10     16.97      0.00
   10    0   10      6.15      0.00
   12    0   10      1.77      0.00
   14    0   10      0.22      0.00
   16    0   10      1.09      0.00
   18    0   10    -18.27      0.00
   20    0   10     -3.45      0.00
    1    1   10    -41.67      0.00
    3    1   10     14.19      0.00
    5    1   10    -11.39      0.00
    7    1   10      8.13      0.00
    9    1   10     -6.13      0.00
   11    1   10      4.11      0.00
   13    1   10      0.45      0.00
   15    1   10      0.88      0.00
   17    1   10     -8.95      0.00
   19    1   10     -0.06      0.00
   21    1   10      3.61      0.00
    0    2   10     17.96      0.00
    2    2   10      9.57      0.00
    4    2   10      7.87      0.00
    6    2   10    -12.54      0.00
    8    2   10     -4.13      0.00
   10    2   10     -5.42      0.00
   12    2   10     -0.84      0.00
   14    2   10      3.82      0.00
   16    2   10     11.97      0.00
   18    2   10     -0.54      0.00
   20    2   10      1.20      0.00
    1    3   10     -6.91      0.00
    3    3   10     25.51      0.00
    5    3   10     -5.73      0.00
    7    3   10      1.97      0.00
    9    3   10    -11.57      0.00
   11    3   10      5.62      0.00
   13    3   10      1.66      0.00
   15    3   10      2.55      0.00
   17    3   10      5.70      0.00
   19    3   10      8.91      0.00
   21    3   10     -1.56      0.00
    0    4   10     27.46      0.00
    2    4   10      4.29      0.00
    4    4   10     -1.19      0.00
    6    4   10    -10.10      0.00
    8    4   10      1.18      0.00
   10    4   10     -2.66      0.00
   12    4   10     -2.55      0.00
   14    4   10     -2.77      0.00
   16    4   10     -2.77      0.00
   18    4   10     -6.99      0.00
   20    4   10     -0.49      0.00
    1    5   10      9.72      0.00
    3    5   10      4.73      0.00
    5    5   10     -8.36      0.00
    7    5   10      6.59      0.00
    9    5   10     -1.05      0.00
   11    5   10      7.17      0.00
   13    5   10     -0.94      0.00
   15    5   10     -9.02      0.00
   17    5   10     -6.80      0.00
   19    5   10      2.46      0.00
   21    5   10     -1.80      0.00
    0    6   10     34.29      0.00
    2    6   10     -2.30      0.00
    4    6   10      0.45      0.00
    6    6   10     11.12      0.00
    8    6   10     11.28      0.00
   10    6   10      2.74      0.00
   12    6   10      1.97      0.00
   14    6   10     -0.28      0.00
   16    6   10     -0.43      0.00
   18    6   10     -6.01      0.00
   20    6   10      3.31      0.00
    1    7   10     -2.80      0.00
    3    7   10     -4.30      0.00
    5    7   10     -0.68      0.00
    7    7   10      6.03      0.00
    9    7   10      0.84      0.00
   11    7   10      2.27      0.00
   13    7   10     -1.06      0.00
   15    7   10     -4.79      0.00
   17    7   10      5.21      0.00
   19    7   10      6.34      0.00
   21    7   10     -0.73      0.00
    0    8   10     -8.92      0.00
    2    8   10    -15.79      0.00
    4    8   10     -8.64      0.00
    6    8   10      7.25      0.00
    8    8   10     -1.53      0.00
   10    8   10      2.19      0.00
   12    8   10      1.34      0.00
   14    8   10     -1.99      0.00
   16    8   10      4.92      0.00
   18    8   10     -1.72      0.00
   20    8   10      9.37      0.00
    1    9   10    -10.73      0.00
    3    9   10     -1.52      0.00
    5    9   10     -7.96      0.00
    7    9   10     -8.43      0.00
    9    9   10     -2.53      0.00
   11    9   10     -3.50      0.00
   13    9   10     -1.79      0.00
   15    9   10     -3.33      0.00
   17    9   10     -2.43      0.00
   19    9   10     -3.47      0.00
    0   10   10      7.75      0.00
    2   10   10     15.10      0.00
    4   10   10     -6.78      0.00
    6   10   10     -0.18      0.00
    8   10   10     -4.33      0.00
   10   10   10      0.49      0.00
   12   10   10     -5.65      0.00
   14   10   10     -1.49      0.00
   16   10   10      1.01      0.00
   18   10   10     -5.04      0.00
   20   10   10      9.08      0.00
    1   11   10      4.51      0.00
    3   11   10      8.58      0.00
    5   11   10      3.31      0.00
    7   11   10     -0.78      0.00
    9   11   10     -6.92      0.00
   11   11   10     -8.45      0.00
   13   11   10     -6.95      0.00
   15   11   10      4.22      0.00
   17   11   10      1.74      0.00
   19   11   10      5.63      0.00
    0   12   10      0.93      0.00
    2   12   10     15.08      0.00
    4   12   10      1.71      0.00
    6   12   10      5.06      0.00
    8   12   10      1.00      0.00
   10   12   10      0.89      0.00
   12   12   10     -0.67      0.00
   14   12   10     -1.34      0.00
   16   12   10     -2.46      0.00
   18   12   10     -2.56      0.00
    1   13   10     -3.55      0.00
    3   13   10     -4.08      0.00
    5   13   10     -0.45      0.00
    7   13   10      2.01      0.00
    9   13   10     -0.42      0.00
   11   13   10     12.13      0.00
   13   13   10     -4.83      0.00
   15   13   10      2.70      0.00
   17   13   10     -4.39      0.00
   19   13   10     -2.11      0.00
    0   14   10    -15.02      0.00
    2   14   10      4.17      0.00
    4   14   10     -3.40      0.00
    6   14   10     -2.31      0.00
    8   14   10      2.95      0.00
   10   14   10     -0.41      0.00
   12   14   10      3.87      0.00
   14   14   10      0.40      0.00
   16   14   10     -0.40      0.00
   18   14   10     -0.15      0.00
    1   15   10      2.03      0.00
    3   15   10      1.65      0.00
    5   15   10      1.71      0.00
    7   15   10     -7.10      0.00
    9   15   10    -11.60      0.00
   11   15   10     -2.56      0.00
   13   15   10     -8.92      0.00
   15   15   10      0.84      0.00
   17   15   10     -3.73      0.00
    0   16   10    -10.42      0.00
    2   16   10     -1.51      0.00
    4   16   10     -6.62      0.00
    6   16   10     -5.16      0.00
    8   16   10     -4.33      0.00
   10   16   10     -8.35      0.00
   12   16   10     -2.65      0.00
   14   16   10     -1.23      0.00
   16   16   10     -1.10      0.00
   18   16   10      3.42      0.00
    1   17   10     -0.02      0.00
    3   17   10     -1.13      0.00
    5   17   10      4.17      0.00
    7   17   10     -5.14      0.00
    9   17   10      4.92      0.00
   11   17   10      2.96      0.00
   13   17   10     -0.87      0.00
   15   17   10      0.77      0.00
   17   17   10     -2.10      0.00
    0   18   10      7.78      0.00
    2   18   10      0.64      0.00
    4   18   10      5.26      0.00
    6   18   10      6.20      0.00
    8   18   10      2.42      0.00
   10   18   10      6.50      0.00
   12   18   10      2.18      0.00
   14   18   10     -1.29      0.00
   16   18   10     -1.19      0.00
    1   19   10      3.27      0.00
    3   19   10      4.13      0.00
    5   19   10     11.20      0.00
    7   19   10      4.07      0.00
    9   19   10      4.57      0.00
   11   19   10     -1.55      0.00
   13   19   10     -0.25      0.00
   15   19   10     -1.12      0.00
    0   20   10     -0.56      0.00
    2   20   10     -5.23      0.00
    4   20   10      7.11      0.00
    6   20   10      8.90      0.00
    8   20   10     -6.56      0.00
   10   20   10     -7.03      0.00
   12   20   10     -0.01      0.00
   14   20   10      3.47      0.00
    1   21   10     -0.37      0.00
    3   21   10     -3.63      0.00
    5   21   10     -1.15      0.00
    7   21   10     -3.43      0.00
    9   21   10     -7.45      0.00
   11   21   10     -5.67      0.00
   13   21   10     -1.50      0.00
   15   21   10     -5.73      0.00
    0   22   10     -2.76      0.00
    2   22   10     -3.12      0.00
    4   22   10     -4.73      0.00
    6   22   10      2.70      0.00
    8   22   10     -5.56      0.00
   10   22   10     -4.76      0.00
   12   22   10      1.14      0.00
   14   22   10      4.86      0.00
    1   23   10      0.56      0.00
    3   23   10     -3.88      0.00
    5   23   10      0.68      0.00
    7   23   10      0.75      0.00
    9   23   10      1.55      0.00
   11   23   10      1.78      0.00
   13   23   10      2.43      0.00
    0   24   10     -0.47      0.00
    2   24   10      3.51      0.00
    4   24   10     -6.20      0.00
    6   24   10      8.48      0.00
    8   24   10      4.50      0.00
   10   24   10      1.59      0.00
   12   24   10      4.88      0.00
    1   25   10     -8.98      0.00
    3   25   10      0.85      0.00
    5   25   10      7.98      0.00
    7   25   10      1.41      0.00
    9   25   10     -4.58      0.00
   11   25   10     -2.55      0.00
    0   26   10     -3.01      0.00
    2   26   10      5.56      0.00
    6   26   10      3.73      0.00
    8   26   10     -4.13      0.00
   10   26   10     -6.75      0.00
    1   27   10     -6.70      0.00
    0   28   10    -13.90      0.00
    1   29   10      0.94      0.00
    3   29   10      2.56      0.00
    1    0   11     -6.44      0.00
    3    0   11     29.80      0.00
    5    0   11     -9.55      0.00
    7    0   11     12.32      0.00
    9    0   11     11.20      0.00
   11    0   11     -5.48      0.00
   13    0   11      1.22      0.00
   15    0   11     -8.76      0.00
   17    0   11     -5.99      0.00
   19    0   11      4.27      0.00
   21    0   11     -8.20      0.00
    0    1   11     -9.74      0.00
    2    1   11      5.98      0.00
    4    1   11     -1.09      0.00
    6    1   11      9.33      0.00
    8    1   11     -8.43      0.00
   10    1   11      8.29      0.00
   12    1   11     -3.56      0.00
   14    1   11     -1.67      0.00
   16    1   11     -3.31      0.00
   18    1   11     14.43      0.00
   20    1   11      2.23      0.00
    1    2   11    -35.01      0.00
    3    2   11     12.27      0.00
    5    2   11     -6.59      0.00
    7    2   11      7.97      0.00
    9    2   11      4.90      0.00
   11    2   11    -11.61      0.00
   13    2   11      2.69      0.00
   15    2   11     -2.60      0.00
   17    2   11     -8.69      0.00
   19    2   11     -1.65      0.00
   21    2   11     -4.91      0.00
    0    3   11    -24.86      0.00
    2    3   11     -8.35      0.00
    4    3   11      0.53      0.00
    6    3   11      3.62      0.00
    8    3   11    -13.09      0.00
   10    3   11     -2.07      0.00
   12    3   11     -1.24      0.00
   14    3   11      4.35      0.00
   16    3   11      4.40      0.00
   18    3   11      5.24      0.00
   20    3   11      1.63      0.00
    1    4   11     -5.49      0.00
    3    4   11     12.51      0.00
    5    4   11     -4.49      0.00
    7    4   11     -5.76      0.00
    9    4   11      1.04      0.00
   11    4   11     -7.34      0.00
   13    4   11      5.24      0.00
   15    4   11      4.09      0.00
   17    4   11      0.42      0.00
   19    4   11      2.05      0.00
   21    4   11      1.64      0.00
    0    5   11     24.94      0.00
    2    5   11     16.76      0.00
    4    5   11     15.55      0.00
    6    5   11      7.96      0.00
    8    5   11      0.50      0.00
   10    5   11      2.48      0.00
   12    5   11      2.59      0.00
   14    5   11     -4.05      0.00
   16    5   11      4.96      0.00
   18    5   11      1.57      0.00
   20    5   11      0.10      0.00
    1    6   11     21.09      0.00
    3    6   11     19.70      0.00
    5    6   11      7.48      0.00
    7    6   11     -3.93      0.00
    9    6   11      4.75      0.00
   11    6   11     -3.49      0.00
   13    6   11     -0.79      0.00
   15    6   11      1.65      0.00
   17    6   11      0.48      0.00
   19    6   11     -0.07      0.00
   21    6   11     -2.03      0.00
    0    7   11     29.42      0.00
    2    7   11     -3.88      0.00
    4    7   11      5.54      0.00
    6    7   11     -4.67      0.00
    8    7   11      2.53      0.00
   10    7   11     -0.10      0.00
   12    7   11      5.03      0.00
   14    7   11     -0.04      0.00
   16    7   11      2.03      0.00
   18    7   11     -6.51      0.00
   20    7   11     -4.60      0.00
    1    8   11     -7.22      0.00
    3    8   11     -4.43      0.00
    5    8   11     -2.98      0.00
    7    8   11     -9.01      0.00
    9    8   11      5.86      0.00
   11    8   11      2.02      0.00
   13    8   11      0.47      0.00
   15    8   11      4.40      0.00
   17    8   11     -0.82      0.00
   19    8   11      6.37      0.00
    0    9   11     16.92      0.00
    2    9   11    -28.51      0.00
    4    9   11      0.34      0.00
    6    9   11     -0.03      0.00
    8    9   11      6.50      0.00
   10    9   11     -3.58      0.00
   12    9   11      3.07      0.00
   14    9   11      2.29      0.00
   16    9   11      0.49      0.00
   18    9   11     -0.41      0.00
   20    9   11     -3.08      0.00
    1   10   11     -9.28      0.00
    3   10   11     -7.75      0.00
    5   10   11      3.58      0.00
    7   10   11     -2.38      0.00
    9   10   11      3.55      0.00
   11   10   11      0.76      0.00
   13   10   11     -5.54      0.00
   15   10   11     -1.41      0.00
   17   10   11     -2.16      0.00
   19   10   11      4.26      0.00
    0   11   11     15.36      0.00
    2   11   11    -13.61      0.00
    4   11   11      0.89      0.00
    6   11   11      1.94      0.00
    8   11   11      3.26      0.00
   10   11   11      0.01      0.00
   12   11   11     -0.74      0.00
   14   11   11     -0.67      0.00
   16   11   11     -2.25      0.00
   18   11   11      0.69      0.00
    1   12   11      6.04      0.00
    3   12   11      4.28      0.00
    5   12   11      8.83      0.00
    7   12   11     -1.99      0.00
    9   12   11      1.26      0.00
   11   12   11     -5.04      0.00
   13   12   11     -5.14      0.00
   15   12   11     -0.28      0.00
   17   12   11      2.68      0.00
   19   12   11      4.94      0.00
    0   13   11      6.67      0.00
    2   13   11     -0.67      0.00
    4   13   11     -1.34      0.00
    6   13   11     -1.45      0.00
    8   13   11     -6.77      0.00
   10   13   11      0.52      0.00
   12   13   11     -2.84      0.00
   14   13   11      3.93      0.00
   16   13   11      0.17      0.00
   18   13   11      7.41      0.00
    1   14   11     -2.74      0.00
    3   14   11     -6.94      0.00
    5   14   11      0.65      0.00
    7   14   11     -6.16      0.00
    9   14   11     -6.51      0.00
   11   14   11     -4.73      0.00
   13   14   11      6.68      0.00
   15   14   11      7.59      0.00
   17   14   11     -1.10      0.00
    0   15   11     -4.25      0.00
    2   15   11     -2.77      0.00
    4   15   11      0.51      0.00
    6   15   11     -2.39      0.00
    8   15   11     -7.92      0.00
   10   15   11      7.14      0.00
   12   15   11      4.58      0.00
   14   15   11      5.50      0.00
   16   15   11     -0.16      0.00
   18   15   11     -1.06      0.00
    1   16   11     -2.93      0.00
    3   16   11     -1.61      0.00
    5   16   11     -3.83      0.00
    7   16   11      3.45      0.00
    9   16   11     -4.53      0.00
   11   16   11     -1.88      0.00
   13   16   11     -0.36      0.00
   15   16   11      5.35      0.00
   17   16   11     -1.33      0.00
    0   17   11     -7.54      0.00
    2   17   11      2.44      0.00
    4   17   11     -0.26      0.00
    6   17   11     -3.21      0.00
    8   17   11      2.44      0.00
   10   17   11     -0.61      0.00
   12   17   11      1.76      0.00
   14   17   11      1.45      0.00
   16   17   11      1.79      0.00
    1   18   11      0.11      0.00
    3   18   11      7.14      0.00
    5   18   11     -5.32      0.00
    7   18   11     11.94      0.00
    9   18   11      2.77      0.00
   11   18   11      5.26      0.00
   13   18   11     -0.78      0.00
   15   18   11     -4.24      0.00
    0   19   11     -6.30      0.00
    2   19   11      5.24      0.00
    4   19   11     -4.51      0.00
    6   19   11     -4.83      0.00
    8   19   11      8.99      0.00
   10   19   11     -8.50      0.00
   12   19   11     -2.11      0.00
   14   19   11     -2.52      0.00
   16   19   11     -1.61      0.00
    1   20   11      2.69      0.00
    3   20   11      5.68      0.00
    5   20   11     -6.50      0.00
    7   20   11     -0.57      0.00
    9   20   11     -4.01      0.00
   11   20   11     -1.50      0.00
   13   20   11     -3.46      0.00
   15   20   11      1.08      0.00
    0   21   11      2.57      0.00
    2   21   11      4.33      0.00
    4   21   11     -3.82      0.00
    6   21   11     -9.64      0.00
    8   21   11      5.23      0.00
   10   21   11    -13.25      0.00
   12   21   11     -3.11      0.00
   14   21   11     -1.92      0.00
    1   22   11      0.66      0.00
    3   22   11     -2.28      0.00
    5   22   11     -1.00      0.00
    7   22   11      7.68      0.00
    9   22   11      2.41      0.00
   11   22   11      0.02      0.00
   13   22   11     -3.16      0.00
    0   23   11     -4.39      0.00
    2   23   11     -3.51      0.00
    4   23   11      6.79      0.00
    6   23   11     -3.89      0.00
    8   23   11      8.22      0.00
   10   23   11     -6.82      0.00
   12   23   11      4.30      0.00
    1   24   11      4.27      0.00
    3   24   11     -0.59      0.00
    5   24   11      0.24      0.00
    7   24   11      9.61      0.00
    9   24   11      8.56      0.00
   11   24   11      2.61      0.00
    0   25   11      2.08      0.00
    2   25   11     -0.25      0.00
    4   25   11      6.69      0.00
    6   25   11     -7.86      0.00
    8   25   11      4.63      0.00
   10   25   11     -1.67      0.00
    1   26   11     12.70      0.00
    3   26   11     -1.25      0.00
    7   26   11      0.49      0.00
    9   26   11      8.97      0.00
    0   27   11      6.66      0.00
    2   27   11      4.62      0.00
    1   28   11      4.83      0.00
    0    0   12     22.40      0.00
    2    0   12     24.92      0.00
    4    0   12     14.74      0.00
    6    0   12      9.11      0.00
    8    0   12    -10.81      0.00
   10    0   12     -0.98      0.00
   12    0   12     -2.19      0.00
   14    0   12     -2.13      0.00
   16    0   12      3.01      0.00
   18    0   12    -14.60      0.00
   20    0   12     -0.41      0.00
    1    1   12     -8.53      0.00
    3    1   12     -3.09      0.00
    5    1   12      0.19      0.00
    7    1   12     -2.32      0.00
    9    1   12     -0.81      0.00
   11    1   12     -5.51      0.00
   13    1   12      1.83      0.00
   15    1   12     -6.42      0.00
   17    1   12     -3.39      0.00
   19    1   12     -6.51      0.00
   21    1   12      0.41      0.00
    0    2   12      7.81      0.00
    2    2   12      0.69      0.00
    4    2   12    -18.42      0.00
    6    2   12     -8.03      0.00
    8    2   12     -5.76      0.00
   10    2   12      8.74      0.00
   12    2   12      1.34      0.00
   14    2   12     -1.01      0.00
   16    2   12      3.15      0.00
   18    2   12     -4.67      0.00
   20    2   12      1.61      0.00
    1    3   12      5.37      0.00
    3    3   12     -9.77      0.00
    5    3   12     -6.63      0.00
    7    3   12      2.65      0.00
    9    3   12      7.16      0.00
   11    3   12     -2.81      0.00
   13    3   12      2.66      0.00
   15    3   12     -4.94      0.00
   17    3   12      4.29      0.00
   19    3   12      1.65      0.00
   21    3   12     -6.39      0.00
    0    4   12     -1.44      0.00
    2    4   12     -7.05      0.00
    4    4   12    -14.93      0.00
    6    4   12     -3.78      0.00
    8    4   12      0.42      0.00
   10    4   12      6.28      0.00
   12    4   12     -6.40      0.00
   14    4   12     -2.77      0.00
   16    4   12     -3.28      0.00
   18    4   12     -1.35      0.00
   20    4   12     -4.96      0.00
    1    5   12    -17.30      0.00
    3    5   12     -3.11      0.00
    5    5   12      3.90      0.00
    7    5   12     -2.31      0.00
    9    5   12      2.06      0.00
   11    5   12     -4.98      0.00
   13    5   12      2.30      0.00
   15    5   12      0.20      0.00
   17    5   12      4.70      0.00
   19    5   12      6.05      0.00
    0    6   12    -20.34      0.00
    2    6   12    -11.36      0.00
    4    6   12      0.60      0.00
    6    6   12     -1.29      0.00
    8    6   12     -0.05      0.00
   10    6   12      4.36      0.00
   12    6   12      0.94      0.00
   14    6   12      7.32      0.00
   16    6   12     -3.86      0.00
   18    6   12      3.91      0.00
   20    6   12     -0.45      0.00
    1    7   12     -9.64      0.00
    3    7   12     10.12      0.00
    5    7   12      8.31      0.00
    7    7   12     -8.17      0.00
    9    7   12     -3.31      0.00
   11    7   12     -7.44      0.00
   13    7   12     -3.23      0.00
   15    7   12     -0.72      0.00
   17    7   12     -0.29      0.00
   19    7   12     -0.10      0.00
    0    8   12      8.48      0.00
    2    8   12      6.22      0.00
    4    8   12      0.52      0.00
    6    8   12     -2.27      0.00
    8    8   12     -5.12      0.00
   10    8   12     -5.02      0.00
   12    8   12     -0.18      0.00
   14    8   12      4.92      0.00
   16    8   12     -0.44      0.00
   18    8   12      2.68      0.00
   20    8   12     -3.45      0.00
    1    9   12     -4.86      0.00
    3    9   12      3.84      0.00
    5    9   12      1.82      0.00
    7    9   12    -11.15      0.00
    9    9   12     -1.91      0.00
   11    9   12     -5.40      0.00
   13    9   12     -5.07      0.00
   15    9   12      2.05      0.00
   17    9   12      4.74      0.00
   19    9   12     -3.61      0.00
    0   10   12      4.94      0.00
    2   10   12     -3.40      0.00
    4   10   12     -3.82      0.00
    6   10   12     -0.02      0.00
    8   10   12      1.10      0.00
   10   10   12      3.56      0.00
   12   10   12      6.52      0.00
   14   10   12      5.88      0.00
   16   10   12      5.09      0.00
   18   10   12      0.94      0.00
    1   11   12     -5.09      0.00
    3   11   12     -3.81      0.00
    5   11   12      1.64      0.00
    7   11   12     -2.93      0.00
    9   11   12      4.18      0.00
   11   11   12      2.38      0.00
   13   11   12      7.93      0.00
   15   11   12      3.95      0.00
   17   11   12      1.36      0.00
   19   11   12      2.73      0.00
    0   12   12      9.85      0.00
    2   12   12     -5.68      0.00
    4   12   12      4.34      0.00
    6   12   12      4.73      0.00
    8   12   12      5.00      0.00
   10   12   12      4.94      0.00
   12   12   12      7.06      0.00
   14   12   12      4.50      0.00
   16   12   12      3.06      0.00
   18   12   12     -5.75      0.00
    1   13   12     -1.16      0.00
    3   13   12     -3.36      0.00
    5   13   12      0.33      0.00
    7   13   12      2.91      0.00
    9   13   12      1.43      0.00
   11   13   12     -0.62      0.00
   13   13   12      4.42      0.00
   15   13   12     -5.44      0.00
   17   13   12     -4.51      0.00
   19   13   12     -2.22      0.00
    0   14   12      5.42      0.00
    2   14   12     -2.57      0.00
    4   14   12      2.34      0.00
    6   14   12     -0.33      0.00
    8   14   12      5.56      0.00
   10   14   12     -0.05      0.00
   12   14   12     -7.21      0.00
   14   14   12     -8.83      0.00
   16   14   12      1.35      0.00
   18   14   12     -0.34      0.00
    1   15   12      7.29      0.00
    3   15   12      4.60      0.00
    5   15   12      0.41      0.00
    7   15   12      6.37      0.00
    9   15   12      5.53      0.00
   11   15   12     -1.52      0.00
   13   15   12      4.75      0.00
   15   15   12     -5.67      0.00
   17   15   12     -0.15      0.00
    0   16   12      1.22      0.00
    2   16   12     -1.85      0.00
    4   16   12     -5.29      0.00
    6   16   12      0.61      0.00
    8   16   12      4.82      0.00
   10   16   12      5.64      0.00
   12   16   12      0.56      0.00
   14   16   12     -1.89      0.00
   16   16   12     -0.95      0.00
    1   17   12     -2.22      0.00
    3   17   12     -0.61      0.00
    5   17   12     -0.09      0.00
    7   17   12     -4.53      0.00
    9   17   12     -1.29      0.00
   11   17   12     -5.28      0.00
   13   17   12      6.81      0.00
   15   17   12      2.44      0.00
   17   17   12     -2.87      0.00
    0   18   12     -4.97      0.00
    2   18   12     -1.66      0.00
    4   18   12     -2.30      0.00
    6   18   12      0.15      0.00
    8   18   12    -11.13      0.00
   10   18   12      0.20      0.00
   12   18   12     -1.62      0.00
   14   18   12     -3.24      0.00
   16   18   12     -0.13      0.00
    1   19   12     -1.31      0.00
    3   19   12     -2.73      0.00
    5   19   12      1.19      0.00
    7   19   12      1.79      0.00
    9   19   12      3.27      0.00
   11   19   12     -5.11      0.00
   13   19   12     -0.92      0.00
   15   19   12      2.60      0.00
    0   20   12     -4.99      0.00
    2   20   12      1.71      0.00
    4   20   12     -2.47      0.00
    6   20   12      3.09      0.00
    8   20   12     -3.31      0.00
   10   20   12      8.13      0.00
   12   20   12      6.34      0.00
   14   20   12      2.23      0.00
    1   21   12     -6.08      0.00
    3   21   12     -2.88      0.00
    5   21   12     -0.63      0.00
    7   21   12      2.91      0.00
    9   21   12      3.52      0.00
   11   21   12     -0.26      0.00
   13   21   12      2.50      0.00
    0   22   12    -10.59      0.00
    2   22   12      1.09      0.00
    4   22   12     -1.54      0.00
    6   22   12      0.49      0.00
    8   22   12     -3.80      0.00
   10   22   12      3.54      0.00
   12   22   12     -0.13      0.00
    1   23   12      3.78      0.00
    3   23   12      6.35      0.00
    5   23   12     -2.08      0.00
    7   23   12      0.60      0.00
    9   23   12     -0.12      0.00
   11   23   12     -1.37      0.00
    0   24   12     12.64      0.00
    2   24   12     10.72      0.00
    4   24   12     -6.87      0.00
    6   24   12     -5.81      0.00
    8   24   12     -3.96      0.00
   10   24   12      3.09      0.00
    1   25   12      1.02      0.00
    3   25   12      3.49      0.00
    7   25   12      7.70      0.00
    9   25   12     -1.61      0.00
    0   26   12      4.50      0.00
    2   26   12      2.81      0.00
    8   26   12      0.17      0.00
    1   27   12     -2.16      0.00
    3   27   12     -2.80      0.00
    0   28   12     -6.38      0.00
    2   28   12     -6.53      0.00
    4   28   12     -1.24      0.00
    1    0   13     17.30      0.00
    3    0   13    -13.76      0.00
    5    0   13     -2.89      0.00
    7    0   13     12.27      0.00
    9    0   13      1.38      0.00
   11    0   13      3.24      0.00
   13    0   13      6.61      0.00
   15    0   13      9.28      0.00
   17    0   13      4.76      0.00
   19    0   13      1.48      0.00
   21    0   13     -4.09      0.00
    0    1   13     28.74      0.00
    2    1   13     -7.91      0.00
    4    1   13     -5.44      0.00
    6    1   13      0.78      0.00
    8    1   13     -2.01      0.00
   10    1   13      3.16      0.00
   12    1   13      3.49      0.00
   14    1   13      3.93      0.00
   16    1   13      7.79      0.00
   18    1   13      7.49      0.00
   20    1   13      2.15      0.00
    1    2   13     11.02      0.00
    3    2   13     -0.82      0.00
    5    2   13      3.15      0.00
    7    2   13      6.36      0.00
    9    2   13     -5.77      0.00
   11    2   13     -0.06      0.00
   13    2   13     -4.76      0.00
   15    2   13     -1.53      0.00
   17    2   13     -7.11      0.00
   19    2   13     -7.48      0.00
   21    2   13      0.36      0.00
    0    3   13     17.76      0.00
    2    3   13      0.99      0.00
    4    3   13     10.75      0.00
    6    3   13      6.41      0.00
    8    3   13     -2.35      0.00
   10    3   13      0.20      0.00
   12    3   13      0.82      0.00
   14    3   13     -1.06      0.00
   16    3   13      2.94      0.00
   18    3   13      1.17      0.00
   20    3   13      1.03      0.00
    1    4   13    -17.35      0.00
    3    4   13     -2.01      0.00
    5    4   13     -5.40      0.00
    7    4   13      1.94      0.00
    9    4   13     -5.39      0.00
   11    4   13      1.74      0.00
   13    4   13     -1.76      0.00
   15    4   13      3.30      0.00
   17    4   13     -3.75      0.00
   19    4   13      0.20      0.00
    0    5   13     -2.27      0.00
    2    5   13     -1.01      0.00
    4    5   13     -9.33      0.00
    6    5   13      5.06      0.00
    8    5   13      2.41      0.00
   10    5   13     -0.05      0.00
   12    5   13      1.97      0.00
   14    5   13      1.07      0.00
   16    5   13      2.57      0.00
   18    5   13      0.36      0.00
   20    5   13      0.99      0.00
    1    6   13      0.22      0.00
    3    6   13      0.06      0.00
    5    6   13    -10.92      0.00
    7    6   13      2.10      0.00
    9    6   13     -3.14      0.00
   11    6   13      1.54      0.00
   13    6   13     -0.01      0.00
   15    6   13      0.39      0.00
   17    6   13     -3.03      0.00
   19    6   13     -1.25      0.00
    0    7   13    -11.33      0.00
    2    7   13      5.92      0.00
    4    7   13    -18.85      0.00
    6    7   13      7.05      0.00
    8    7   13     -0.49      0.00
   10    7   13      0.59      0.00
   12    7   13     -1.76      0.00
   14    7   13     -3.84      0.00
   16    7   13     -1.74      0.00
   18    7   13     -7.06      0.00
   20    7   13     -7.26      0.00
    1    8   13     -0.97      0.00
    3    8   13      7.08      0.00
    5    8   13     -5.11      0.00
    7    8   13      2.08      0.00
    9    8   13     -0.92      0.00
   11    8   13     -0.86      0.00
   13    8   13      0.93      0.00
   15    8   13     -3.70      0.00
   17    8   13     -7.99      0.00
   19    8   13      0.87      0.00
    0    9   13    -12.24      0.00
    2    9   13     19.44      0.00
    4    9   13     -3.68      0.00
    6    9   13      9.92      0.00
    8    9   13      0.97      0.00
   10    9   13     -0.31      0.00
   12    9   13     -1.82      0.00
   14    9   13      0.45      0.00
   16    9   13     -4.80      0.00
   18    9   13     -3.95      0.00
   20    9   13      1.32      0.00
    1   10   13     -2.52      0.00
    3   10   13     12.30      0.00
    5   10   13     -5.18      0.00
    7   10   13      4.02      0.00
    9   10   13     -0.22      0.00
   11   10   13     -2.46      0.00
   13   10   13      1.30      0.00
   15   10   13     -1.63      0.00
   17   10   13     -2.35      0.00
   19   10   13      5.60      0.00
    0   11   13    -14.84      0.00
    2   11   13     11.15      0.00
    4   11   13     -4.37      0.00
    6   11   13     -0.91      0.00
    8   11   13     -1.98      0.00
   10   11   13     -0.31      0.00
   12   11   13      0.74      0.00
   14   11   13     -0.58      0.00
   16   11   13     -3.83      0.00
   18   11   13      3.98      0.00
    1   12   13      4.31      0.00
    3   12   13     16.85      0.00
    5   12   13     -1.75      0.00
    7   12   13      6.00      0.00
    9   12   13      1.68      0.00
   11   12   13     -2.30      0.00
   13   12   13     -4.44      0.00
   15   12   13     -2.03      0.00
   17   12   13      0.28      0.00
   19   12   13     -1.61      0.00
    0   13   13     -3.46      0.00
    2   13   13      1.32      0.00
    4   13   13     -2.41      0.00
    6   13   13     -1.27      0.00
    8   13   13     -0.68      0.00
   10   13   13     -1.40      0.00
   12   13   13     -0.98      0.00
   14   13   13     -0.52      0.00
   16   13   13     -5.65      0.00
   18   13   13     -0.67      0.00
    1   14   13     -1.85      0.00
    3   14   13     -1.53      0.00
    5   14   13     -5.82      0.00
    7   14   13      4.02      0.00
    9   14   13      1.32      0.00
   11   14   13     -2.77      0.00
   13   14   13     -1.07      0.00
   15   14   13      5.52      0.00
   17   14   13      0.31      0.00
    0   15   13      5.07      0.00
    2   15   13     -2.51      0.00
    4   15   13      7.76      0.00
    6   15   13      2.66      0.00
    8   15   13      0.83      0.00
   10   15   13      1.13      0.00
   12   15   13      0.16      0.00
   14   15   13     -1.24      0.00
   16   15   13     -3.76      0.00
    1   16   13      5.62      0.00
    3   16   13      0.28      0.00
    5   16   13      6.18      0.00
    7   16   13      7.74      0.00
    9   16   13      3.13      0.00
   11   16   13      2.20      0.00
   13   16   13     -3.55      0.00
   15   16   13     -1.71      0.00
   17   16   13     -2.20      0.00
    0   17   13      9.27      0.00
    2   17   13     -2.81      0.00
    4   17   13      3.12      0.00
    6   17   13     -3.45      0.00
    8   17   13      2.18      0.00
   10   17   13     -1.11      0.00
   12   17   13     -0.54      0.00
   14   17   13     -1.42      0.00
   16   17   13      1.72      0.00
    1   18   13      4.67      0.00
    3   18   13     -6.77      0.00
    5   18   13      0.13      0.00
    7   18   13     -4.38      0.00
    9   18   13     -5.47      0.00
   11   18   13      0.61      0.00
   13   18   13      0.31      0.00
   15   18   13     -2.25      0.00
    0   19   13      6.23      0.00
    2   19   13     -4.72      0.00
    4   19   13     -1.83      0.00
    6   19   13     -5.57      0.00
    8   19   13      0.22      0.00
   10   19   13     -6.21      0.00
   12   19   13     -2.85      0.00
   14   19   13      1.77      0.00
    1   20   13      1.14      0.00
    3   20   13      3.12      0.00
    5   20   13     11.06      0.00
    7   20   13      1.53      0.00
    9   20   13      1.41      0.00
   11   20   13      3.69      0.00
   13   20   13      4.67      0.00
   15   20   13      0.90      0.00
    0   21   13      9.30      0.00
    2   21   13      2.12      0.00
    4   21   13      2.75      0.00
    6   21   13      2.49      0.00
    8   21   13      4.47      0.00
   10   21   13      3.31      0.00
   12   21   13      2.47      0.00
   14   21   13     -2.30      0.00
    1   22   13     -2.39      0.00
    3   22   13      0.54      0.00
    5   22   13      5.31      0.00
    7   22   13      1.03      0.00
    9   22   13      1.18      0.00
   11   22   13      1.44      0.00
   13   22   13     -0.81      0.00
    0   23   13     -2.54      0.00
    2   23   13     -4.53      0.00
    4   23   13     -0.38      0.00
    6   23   13     -0.61      0.00
    8   23   13     -8.13      0.00
   10   23   13     -6.46      0.00
   12   23   13     -0.97      0.00
    1   24   13     -8.71      0.00
    3   24   13     -4.51      0.00
    5   24   13      4.65      0.00
    7   24   13     -7.98      0.00
    9   24   13     -1.38      0.00
   11   24   13     -1.96      0.00
    0   25   13     -8.55      0.00
    2   25   13     -7.40      0.00
    4   25   13      6.25      0.00
    6   25   13     -3.22      0.00
    8   25   13     -8.26      0.00
   10   25   13     -4.62      0.00
    1   26   13     -2.42      0.00
    3   26   13      4.89      0.00
    7   26   13     -4.87      0.00
    0   27   13     -3.83      0.00
    2   27   13     -5.14      0.00
    1   28   13     -2.90      0.00
    3   28   13     -0.86      0.00
    0    0   14     -6.13      0.00
    2    0   14    -14.12      0.00
    4    0   14     -3.19      0.00
    6    0   14      2.42      0.00
    8    0   14     -3.67      0.00
   10    0   14      0.59      0.00
   12    0   14      4.07      0.00
   14    0   14     -1.37      0.00
   16    0   14      2.56      0.00
   18    0   14      5.70      0.00
   20    0   14     -1.31      0.00
    1    1   14    -14.60      0.00
    3    1   14     -6.44      0.00
    5    1   14     -7.93      0.00
    7    1   14     -1.72      0.00
    9    1   14      4.57      0.00
   11    1   14      1.05      0.00
   13    1   14      1.11      0.00
   15    1   14      5.12      0.00
   17    1   14      1.71      0.00
   19    1   14      0.51      0.00
    0    2   14     -5.95      0.00
    2    2   14      1.35      0.00
    4    2   14      5.38      0.00
    6    2   14     10.95      0.00
    8    2   14      0.06      0.00
   10    2   14     -1.91      0.00
   12    2   14      0.08      0.00
   14    2   14     -1.62      0.00
   16    2   14     -1.08      0.00
   18    2   14      2.98      0.00
   20    2   14      0.63      0.00
    1    3   14     13.24      0.00
    3    3   14     12.11      0.00
    5    3   14      4.70      0.00
    7    3   14      3.38      0.00
    9    3   14     -0.45      0.00
   11    3   14     -6.08      0.00
   13    3   14      1.68      0.00
   15    3   14     -0.02      0.00
   17    3   14     -0.92      0.00
   19    3   14      1.86      0.00
    0    4   14     -4.65      0.00
    2    4   14      7.48      0.00
    4    4   14     -3.64      0.00
    6    4   14      4.50      0.00
    8    4   14     -7.15      0.00
   10    4   14     -0.56      0.00
   12    4   14      1.49      0.00
   14    4   14     -2.44      0.00
   16    4   14      1.23      0.00
   18    4   14     -1.33      0.00
   20    4   14     -0.69      0.00
    1    5   14      6.56      0.00
    3    5   14      1.73      0.00
    5    5   14      0.11      0.00
    7    5   14     -1.36      0.00
    9    5   14     -2.87      0.00
   11    5   14     -2.13      0.00
   13    5   14      1.69      0.00
   15    5   14      0.09      0.00
   17    5   14      2.92      0.00
   19    5   14      1.89      0.00
    0    6   14     -5.47      0.00
    2    6   14      6.34      0.00
    4    6   14     -5.50      0.00
    6    6   14     -0.26      0.00
    8    6   14      0.18      0.00
   10    6   14      0.06      0.00
   12    6   14      3.20      0.00
   14    6   14      0.61      0.00
   16    6   14      3.09      0.00
   18    6   14     -4.67      0.00
   20    6   14      1.82      0.00
    1    7   14     10.33      0.00
    3    7   14     10.29      0.00
    5    7   14      4.23      0.00
    7    7   14      7.07      0.00
    9    7   14      5.08      0.00
   11    7   14      1.18      0.00
   13    7   14      0.20      0.00
   15    7   14     -5.42      0.00
   17    7   14      0.38      0.00
   19    7   14     -1.60      0.00
    0    8   14      4.90      0.00
    2    8   14      7.24      0.00
    4    8   14     -6.58      0.00
    6    8   14      0.02      0.00
    8    8   14      8.04      0.00
   10    8   14     -0.58      0.00
   12    8   14      6.20      0.00
   14    8   14      1.14      0.00
   16    8   14      2.70      0.00
   18    8   14      0.08      0.00
   20    8   14      3.98      0.00
    1    9   14     -2.13      0.00
    3    9   14     -2.11      0.00
    5    9   14     -2.08      0.00
    7    9   14      0.02      0.00
    9    9   14      1.45      0.00
   11    9   14      1.29      0.00
   13    9   14     -3.91      0.00
   15    9   14     -8.98      0.00
   17    9   14      7.96      0.00
   19    9   14     -0.40      0.00
    0   10   14     -0.46      0.00
    2   10   14     -2.76      0.00
    4   10   14     -6.65      0.00
    6   10   14      6.55      0.00
    8   10   14      4.46      0.00
   10   10   14     -0.70      0.00
   12   10   14     -0.49      0.00
   14   10   14     -0.81      0.00
   16   10   14      0.04      0.00
   18   10   14     -3.66      0.00
    1   11   14     -3.76      0.00
    3   11   14     -1.63      0.00
    5   11   14     -0.96      0.00
    7   11   14     -2.19      0.00
    9   11   14     -0.58      0.00
   11   11   14     -3.20      0.00
   13   11   14     -0.70      0.00
   15   11   14     -3.27      0.00
   17   11   14      2.44      0.00
   19   11   14     -3.52      0.00
    0   12   14      2.59      0.00
    2   12   14      3.51      0.00
    4   12   14     -1.97      0.00
    6   12   14      1.84      0.00
    8   12   14     -2.81      0.00
   10   12   14      3.07      0.00
   12   12   14     -5.15      0.00
   14   12   14      3.89      0.00
   16   12   14      4.67      0.00
   18   12   14     -0.68      0.00
    1   13   14     -4.60      0.00
    3   13   14      0.37      0.00
    5   13   14     -6.43      0.00
    7   13   14     -7.15      0.00
    9   13   14     -2.85      0.00
   11   13   14     -0.33      0.00
   13   13   14      3.65      0.00
   15   13   14      1.15      0.00
   17   13   14      1.88      0.00
    0   14   14    -10.96      0.00
    2   14   14     -3.63      0.00
    4   14   14     -6.89      0.00
    6   14   14     -7.84      0.00
    8   14   14     -8.19      0.00
   10   14   14      4.64      0.00
   12   14   14     -4.13      0.00
   14   14   14     -0.99      0.00
   16   14   14      1.83      0.00
   18   14   14     -0.53      0.00
    1   15   14     -4.10      0.00
    3   15   14      2.26      0.00
    5   15   14     -2.29      0.00
    7   15   14     -1.58      0.00
    9   15   14     -0.25      0.00
   11   15   14      1.54      0.00
   13   15   14      3.61      0.00
   15   15   14      2.07      0.00
   17   15   14      3.35      0.00
    0   16   14     -4.75      0.00
    2   16   14      1.15      0.00
    4   16   14      0.10      0.00
    6   16   14      0.78      0.00
    8   16   14     -1.43      0.00
   10   16   14      0.30      0.00
   12   16   14     -5.28      0.00
   14   16   14     -2.37      0.00
   16   16   14      3.80      0.00
    1   17   14      1.76      0.00
    3   17   14      5.35      0.00
    5   17   14     -0.89      0.00
    7   17   14     -1.98      0.00
    9   17   14     -2.61      0.00
   11   17   14     -3.22      0.00
   13   17   14      1.10      0.00
   15   17   14      4.66      0.00
    0   18   14     -3.90      0.00
    2   18   14      2.35      0.00
    4   18   14      1.16      0.00
    6   18   14      0.62      0.00
    8   18   14     -2.44      0.00
   10   18   14     -0.40      0.00
   12   18   14     -1.21      0.00
   14   18   14     -2.42      0.00
   16   18   14      0.51      0.00
    1   19   14     -2.13      0.00
    3   19   14     -0.75      0.00
    5   19   14     -3.36      0.00
    7   19   14     -1.21      0.00
    9   19   14     -1.30      0.00
   11   19   14      0.42      0.00
   13   19   14     -2.74      0.00
   15   19   14      0.14      0.00
    0   20   14      2.56      0.00
    2   20   14      3.73      0.00
    4   20   14      0.62      0.00
    6   20   14      1.24      0.00
    8   20   14      0.23      0.00
   10   20   14      6.09      0.00
   12   20   14      2.66      0.00
   14   20   14      0.82      0.00
    1   21   14      1.12      0.00
    3   21   14      0.42      0.00
    5   21   14      3.22      0.00
    7   21   14      0.13      0.00
    9   21   14      1.16      0.00
   11   21   14      4.28      0.00
   13   21   14     -2.51      0.00
    0   22   14      3.92      0.00
    2   22   14     -0.58      0.00
    4   22   14      2.02      0.00
    6   22   14      1.35      0.00
    8   22   14     -1.21      0.00
   10   22   14      5.31      0.00
   12   22   14     -4.29      0.00
    1   23   14      1.45      0.00
    3   23   14      0.41      0.00
    5   23   14     -2.06      0.00
    7   23   14     -7.66      0.00
    9   23   14     -5.58      0.00
   11   23   14     -1.43      0.00
    0   24   14      6.10      0.00
    2   24   14     -3.70      0.00
    4   24   14     -8.83      0.00
    6   24   14     -7.03      0.00
    8   24   14    -12.34      0.00
   10   24   14      2.61      0.00
    1   25   14     -1.05      0.00
    3   25   14     -4.04      0.00
    5   25   14     -6.39      0.00
    7   25   14      6.09      0.00
    9   25   14     -3.39      0.00
    0   26   14      4.25      0.00
    2   26   14     -0.08      0.00
    4   26   14     -8.13      0.00
    8   26   14     -1.75      0.00
    1   27   14      0.76      0.00
    3   27   14     -4.97      0.00
    5   27   14    -14.31      0.00
    0   28   14     -3.23      0.00
    2   28   14      2.51      0.00
    1    0   15     -6.77      0.00
    3    0   15      7.05      0.00
    5    0   15      5.24      0.00
    7    0   15     -7.38      0.00
    9    0   15      1.51      0.00
   11    0   15    -11.94      0.00
   13    0   15     -0.20      0.00
   15    0   15     -6.23      0.00
   17    0   15     -0.60      0.00
   19    0   15      0.73      0.00
    0    1   15    -26.02      0.00
    2    1   15     16.10      0.00
    4    1   15     -8.77      0.00
    6    1   15      0.59      0.00
    8    1   15    -10.69      0.00
   10    1   15     -1.77      0.00
   12    1   15     -2.25      0.00
   14    1   15     -1.29      0.00
   16    1   15     -7.70      0.00
   18    1   15     -4.62      0.00
   20    1   15     -2.87      0.00
    1    2   15      7.71      0.00
    3    2   15      0.98      0.00
    5    2   15      0.87      0.00
    7    2   15     -4.68      0.00
    9    2   15      4.69      0.00
   11    2   15     -4.60      0.00
   13    2   15     -3.85      0.00
   15    2   15     -7.69      0.00
   17    2   15     -1.57      0.00
   19    2   15      0.15      0.00
    0    3   15      9.48      0.00
    2    3   15     16.45      0.00
    4    3   15     -4.67      0.00
    6    3   15      3.18      0.00
    8    3   15     -0.46      0.00
   10    3   15      5.45      0.00
   12    3   15      4.88      0.00
   14    3   15      0.24      0.00
   16    3   15     -1.12      0.00
   18    3   15     -1.42      0.00
   20    3   15     -3.06      0.00
    1    4   15      2.52      0.00
    3    4   15     -6.41      0.00
    5    4   15     -1.31      0.00
    7    4   15     -2.48      0.00
    9    4   15      2.86      0.00
   11    4   15      1.53      0.00
   13    4   15      2.97      0.00
   15    4   15     -0.90      0.00
   17    4   15     -3.18      0.00
   19    4   15     -2.76      0.00
    0    5   15     -9.51      0.00
    2    5   15     -6.47      0.00
    4    5   15     -3.31      0.00
    6    5   15     -0.23      0.00
    8    5   15      2.36      0.00
   10    5   15      4.46      0.00
   12    5   15      7.44      0.00
   14    5   15      2.14      0.00
   16    5   15     -1.14      0.00
   18    5   15     -0.63      0.00
   20    5   15     -5.47      0.00
    1    6   15     -0.98      0.00
    3    6   15     -9.73      0.00
    5    6   15      6.28      0.00
    7    6   15     -3.27      0.00
    9    6   15     -0.33      0.00
   11    6   15      2.05      0.00
   13    6   15      3.75      0.00
   15    6   15      1.50      0.00
   17    6   15      1.64      0.00
   19    6   15      3.38      0.00
    0    7   15     -6.36      0.00
    2    7   15     -8.99      0.00
    4    7   15      3.77      0.00
    6    7   15      4.02      0.00
    8    7   15     -1.12      0.00
   10    7   15     -2.56      0.00
   12    7   15     -6.53      0.00
   14    7   15     -5.64      0.00
   16    7   15      0.17      0.00
   18    7   15      6.28      0.00
   20    7   15      0.92      0.00
    1    8   15      7.99      0.00
    3    8   15     -5.55      0.00
    5    8   15     15.80      0.00
    7    8   15     -5.74      0.00
    9    8   15     -4.90      0.00
   11    8   15     -3.36      0.00
   13    8   15      2.26      0.00
   15    8   15      4.54      0.00
   17    8   15      0.42      0.00
   19    8   15      4.39      0.00
    0    9   15      2.56      0.00
    2    9   15     -0.59      0.00
    4    9   15      4.63      0.00
    6    9   15     -1.12      0.00
    8    9   15     -0.64      0.00
   10    9   15     -0.34      0.00
   12    9   15     -1.33      0.00
   14    9   15      0.09      0.00
   16    9   15      0.66      0.00
   18    9   15      1.91      0.00
    1   10   15      2.27      0.00
    3   10   15     -8.76      0.00
    5   10   15      4.18      0.00
    7   10   15     -8.25      0.00
    9   10   15      1.77      0.00
   11   10   15      3.71      0.00
   13   10   15      6.76      0.00
   15   10   15      6.18      0.00
   17   10   15     -0.18      0.00
   19   10   15     -5.84      0.00
    0   11   15     -0.89      0.00
    2   11   15     -6.11      0.00
    4   11   15    -10.54      0.00
    6   11   15     -7.01      0.00
    8   11   15     -1.41      0.00
   10   11   15     -4.51      0.00
   12   11   15      6.37      0.00
   14   11   15     -2.14      0.00
   16   11   15      0.85      0.00
   18   11   15      1.30      0.00
    1   12   15      4.49      0.00
    3   12   15     -2.30      0.00
    5   12   15      6.52      0.00
    7   12   15      0.96      0.00
    9   12   15      1.57      0.00
   11   12   15     -1.40      0.00
   13   12   15      0.19      0.00
   15   12   15     -1.71      0.00
   17   12   15      1.24      0.00
    0   13   15      3.55      0.00
    2   13   15      2.93      0.00
    4   13   15     -0.43      0.00
    6   13   15     11.39      0.00
    8   13   15      1.39      0.00
   10   13   15    -12.33      0.00
   12   13   15      4.85      0.00
   14   13   15     -6.60      0.00
   16   13   15     -0.22      0.00
   18   13   15     -0.29      0.00
    1   14   15     -1.17      0.00
    3   14   15     -0.55      0.00
    5   14   15      0.32      0.00
    7   14   15     -0.88      0.00
    9   14   15     -3.01      0.00
   11   14   15     -5.67      0.00
   13   14   15     -0.60      0.00
   15   14   15      0.04      0.00
   17   14   15      2.64      0.00
    0   15   15     -4.02      0.00
    2   15   15      4.23      0.00
    4   15   15     -7.00      0.00
    6   15   15      2.41      0.00
    8   15   15     -4.29      0.00
   10   15   15     -6.33      0.00
   12   15   15      7.63      0.00
   14   15   15     -2.28      0.00
   16   15   15      2.00      0.00
    1   16   15     -1.17      0.00
    3   16   15     -1.02      0.00
    5   16   15      0.23      0.00
    7   16   15      3.38      0.00
    9   16   15      0.89      0.00
   11   16   15      1.62      0.00
   13   16   15      1.46      0.00
   15   16   15     -1.76      0.00
   17   16   15     -2.89      0.00
    0   17   15     -5.43      0.00
    2   17   15      7.70      0.00
    4   17   15     -2.78      0.00
    6   17   15      5.35      0.00
    8   17   15      1.40      0.00
   10   17   15      1.62      0.00
   12   17   15      3.07      0.00
   14   17   15     -1.10      0.00
   16   17   15     -1.12      0.00
    1   18   15      0.29      0.00
    3   18   15     -0.42      0.00
    5   18   15      5.90      0.00
    7   18   15     -0.47      0.00
    9   18   15     -2.11      0.00
   11   18   15      3.46      0.00
   13   18   15      2.82      0.00
   15   18   15      0.45      0.00
    0   19   15     -3.56      0.00
    2   19   15      2.27      0.00
    4   19   15     -5.31      0.00
    6   19   15     -0.06      0.00
    8   19   15     -0.15      0.00
   10   19   15      3.97      0.00
   12   19   15     -1.00      0.00
   14   19   15      2.32      0.00
    1   20   15      0.27      0.00
    3   20   15     -0.89      0.00
    5   20   15      5.03      0.00
    7   20   15     -0.47      0.00
    9   20   15     -5.70      0.00
   11   20   15     -2.88      0.00
   13   20   15      0.06      0.00
    0   21   15      3.83      0.00
    2   21   15      2.33      0.00
    4   21   15     -5.76      0.00
    6   21   15      0.90      0.00
    8   21   15     -0.93      0.00
   10   21   15      0.76      0.00
   12   21   15     -4.49      0.00
    1   22   15     -0.65      0.00
    3   22   15     -1.44      0.00
    5   22   15      1.40      0.00
    7   22   15      8.67      0.00
    9   22   15     -3.78      0.00
   11   22   15     -0.50      0.00
    0   23   15     -0.93      0.00
    2   23   15     -0.75      0.00
    4   23   15     -3.28      0.00
    6   23   15      8.88      0.00
    8   23   15      9.00      0.00
   10   23   15      4.93      0.00
    1   24   15     -1.99      0.00
    3   24   15     -4.15      0.00
    5   24   15     -0.90      0.00
    7   24   15      8.57      0.00
    9   24   15      1.60      0.00
    0   25   15     -4.71      0.00
    2   25   15     -1.73      0.00
    4   25   15      1.82      0.00
    6   25   15     -3.86      0.00
    8   25   15      3.37      0.00
    1   26   15      6.10      0.00
    3   26   15      3.74      0.00
    5   26   15      2.74      0.00
    7   26   15     -6.88      0.00
    0   27   15      0.77      0.00
    2   27   15     -1.12      0.00
    4   27   15      1.79      0.00
    1   28   15      1.16      0.00
    0    0   16    -20.56      0.00
    2    0   16      9.82      0.00
    4    0   16     -7.29      0.00
    6    0   16     -2.12      0.00
    8    0   16     -0.01      0.00
   10    0   16      5.39      0.00
   12    0   16     -0.21      0.00
   14    0   16    -10.69      0.00
   16    0   16     -4.02      0.00
   18    0   16     -3.03      0.00
   20    0   16     -1.43      0.00
    1    1   16      5.72      0.00
    3    1   16     -4.66      0.00
    5    1   16     -3.57      0.00
    7    1   16     -4.29      0.00
    9    1   16      1.13      0.00
   11    1   16      4.87      0.00
   13    1   16     -1.72      0.00
   15    1   16      4.53      0.00
   17    1   16      4.22      0.00
   19    1   16      0.03      0.00
    0    2   16    -37.92      0.00
    2    2   16      3.79      0.00
    4    2   16      5.12      0.00
    6    2   16      1.89      0.00
    8    2   16     -2.82      0.00
   10    2   16      1.44      0.00
   12    2   16      1.54      0.00
   14    2   16     -1.35      0.00
   16    2   16      2.25      0.00
   18    2   16      2.83      0.00
   20    2   16     -3.21      0.00
    1    3   16     -2.62      0.00
    3    3   16      0.99      0.00
    5    3   16      5.77      0.00
    7    3   16      0.19      0.00
    9    3   16      1.01      0.00
   11    3   16     -0.29      0.00
   13    3   16     -0.85      0.00
   15    3   16      4.33      0.00
   17    3   16      7.16      0.00
   19    3   16      1.24      0.00
    0    4   16    -27.94      0.00
    2    4   16     -5.75      0.00
    4    4   16      5.71      0.00
    6    4   16      2.49      0.00
    8    4   16      2.76      0.00
   10    4   16      3.13      0.00
   12    4   16     -5.55      0.00
   14    4   16     -2.58      0.00
   16    4   16     -0.54      0.00
   18    4   16      3.66      0.00
   20    4   16     -1.26      0.00
    1    5   16     12.63      0.00
    3    5   16     -0.61      0.00
    5    5   16      4.69      0.00
    7    5   16      4.89      0.00
    9    5   16      1.38      0.00
   11    5   16     -1.32      0.00
   13    5   16     -6.22      0.00
   15    5   16     -2.02      0.00
   17    5   16     -1.01      0.00
   19    5   16     -1.31      0.00
    0    6   16     -3.44      0.00
    2    6   16     -8.01      0.00
    4    6   16      2.81      0.00
    6    6   16     -8.33      0.00
    8    6   16     -4.61      0.00
   10    6   16     -3.03      0.00
   12    6   16     -6.27      0.00
   14    6   16     -0.64      0.00
   16    6   16     -1.80      0.00
   18    6   16     -1.28      0.00
    1    7   16      2.11      0.00
    3    7   16     -2.14      0.00
    5    7   16     -1.07      0.00
    7    7   16     -1.91      0.00
    9    7   16     -3.30      0.00
   11    7   16      4.52      0.00
   13    7   16     -4.32      0.00
   15    7   16      1.52      0.00
   17    7   16      1.90      0.00
   19    7   16     -2.83      0.00
    0    8   16     -1.12      0.00
    2    8   16     -8.76      0.00
    4    8   16      2.23      0.00
    6    8   16     -8.38      0.00
    8    8   16      1.05      0.00
   10    8   16      0.39      0.00
   12    8   16     -0.67      0.00
   14    8   16     -1.71      0.00
   16    8   16      4.10      0.00
   18    8   16      0.79      0.00
    1    9   16      0.49      0.00
    3    9   16     -0.21      0.00
    5    9   16      0.74      0.00
    7    9   16     -1.09      0.00
    9    9   16      0.04      0.00
   11    9   16      4.25      0.00
   13    9   16     -1.76      0.00
   15    9   16      4.13      0.00
   17    9   16      3.47      0.00
   19    9   16      2.87      0.00
    0   10   16      7.58      0.00
    2   10   16     -1.20      0.00
    4   10   16      2.48      0.00
    6   10   16      2.94      0.00
    8   10   16      3.86      0.00
   10   10   16     -0.97      0.00
   12   10   16      1.57      0.00
   14   10   16     -2.99      0.00
   16   10   16      2.86      0.00
   18   10   16     -3.78      0.00
    1   11   16     -9.87      0.00
    3   11   16     -2.36      0.00
    5   11   16      4.95      0.00
    7   11   16     -5.90      0.00
    9   11   16     -1.15      0.00
   11   11   16     -1.13      0.00
   13   11   16      1.98      0.00
   15   11   16      2.13      0.00
   17   11   16     -3.80      0.00
    0   12   16      4.00      0.00
    2   12   16      4.20      0.00
    4   12   16      4.65      0.00
    6   12   16      3.97      0.00
    8   12   16     -0.19      0.00
   10   12   16      5.30      0.00
   12   12   16      3.89      0.00
   14   12   16     -5.03      0.00
   16   12   16      3.51      0.00
   18   12   16      0.59      0.00
    1   13   16      1.82      0.00
    3   13   16      0.21      0.00
    5   13   16      8.43      0.00
    7   13   16     -3.68      0.00
    9   13   16      5.06      0.00
   11   13   16      3.45      0.00
   13   13   16      4.97      0.00
   15   13   16     -0.92      0.00
   17   13   16     -1.82      0.00
    0   14   16      1.33      0.00
    2   14   16     -1.09      0.00
    4   14   16     -1.19      0.00
    6   14   16     -1.18      0.00
    8   14   16     -1.41      0.00
   10   14   16      6.84      0.00
   12   14   16      3.46      0.00
   14   14   16     -1.73      0.00
   16   14   16     -1.38      0.00
    1   15   16      2.91      0.00
    3   15   16     -5.09      0.00
    5   15   16      6.90      0.00
    7   15   16     -2.39      0.00
    9   15   16      1.95      0.00
   11   15   16      2.86      0.00
   13   15   16      4.37      0.00
   15   15   16     -2.87      0.00
   17   15   16     -0.27      0.00
    0   16   16      0.60      0.00
    2   16   16     -3.50      0.00
    4   16   16      7.36      0.00
    6   16   16      0.60      0.00
    8   16   16      1.06      0.00
   10   16   16      4.62      0.00
   12   16   16     -2.02      0.00
   14   16   16      3.04      0.00
   16   16   16      1.48      0.00
    1   17   16      3.35      0.00
    3   17   16     -1.07      0.00
    5   17   16      2.27      0.00
    7   17   16      3.53      0.00
    9   17   16      4.19      0.00
   11   17   16      6.34      0.00
   13   17   16      1.10      0.00
   15   17   16     -2.58      0.00
    0   18   16      3.78      0.00
    2   18   16     -4.10      0.00
    4   18   16      3.00      0.00
    6   18   16     -2.23      0.00
    8   18   16      3.62      0.00
   10   18   16      3.98      0.00
   12   18   16     -3.04      0.00
   14   18   16     -2.75      0.00
    1   19   16     -4.90      0.00
    3   19   16     -0.78      0.00
    5   19   16    -11.44      0.00
    7   19   16      0.24      0.00
    9   19   16     -6.80      0.00
   11   19   16     -2.27      0.00
   13   19   16     -6.17      0.00
    0   20   16     -6.82      0.00
    2   20   16     -8.64      0.00
    4   20   16     -2.23      0.00
    6   20   16     -3.61      0.00
    8   20   16      1.49      0.00
   10   20   16     -2.02      0.00
   12   20   16      0.61      0.00
   14   20   16     -0.01      0.00
    1   21   16     -6.17      0.00
    3   21   16      1.74      0.00
    5   21   16    -15.72      0.00
    7   21   16     -3.55      0.00
    9   21   16     -1.60      0.00
   11   21   16      1.62      0.00
   13   21   16      1.93      0.00
    0   22   16      5.00      0.00
    2   22   16     -0.51      0.00
    4   22   16      3.15      0.00
    6   22   16     -1.58      0.00
    8   22   16      4.62      0.00
   10   22   16      0.66      0.00
   12   22   16      2.37      0.00
    1   23   16      9.07      0.00
    3   23   16     16.09      0.00
    5   23   16      0.55      0.00
    7   23   16      2.38      0.00
    9   23   16      3.95      0.00
   11   23   16     -3.04      0.00
    0   24   16      3.90      0.00
    2   24   16     -0.55      0.00
    4   24   16      7.27      0.00
    6   24   16      4.19      0.00
    8   24   16      5.60      0.00
   10   24   16      2.18      0.00
    1   25   16     -0.73      0.00
    3   25   16      4.05      0.00
    5   25   16     -4.29      0.00
    7   25   16      2.98      0.00
    0   26   16      2.67      0.00
    2   26   16     -1.35      0.00
    4   26   16     -4.51      0.00
    6   26   16     -0.37      0.00
    1   27   16      0.57      0.00
    3   27   16     -0.75      0.00
    1    0   17     -5.95      0.00
    3    0   17     -7.80      0.00
    5    0   17      6.65      0.00
    7    0   17     -2.39      0.00
    9    0   17      1.68      0.00
   11    0   17     -4.14      0.00
   13    0   17      9.34      0.00
   15    0   17     -0.49      0.00
   17    0   17      4.48      0.00
   19    0   17      6.46      0.00
    0    1   17     16.01      0.00
    2    1   17    -10.94      0.00
    4    1   17     -3.94      0.00
    6    1   17      7.17      0.00
    8    1   17      0.64      0.00
   10    1   17     -3.05      0.00
   12    1   17      3.11      0.00
   14    1   17      3.48      0.00
   16    1   17      5.12      0.00
   18    1   17     -4.55      0.00
   20    1   17      4.39      0.00
    1    2   17     15.02      0.00
    3    2   17     -0.30      0.00
    5    2   17      7.52      0.00
    7    2   17      3.48      0.00
    9    2   17      6.34      0.00
   11    2   17     -1.30      0.00
   13    2   17      6.69      0.00
   15    2   17     -0.96      0.00
   17    2   17     -1.12      0.00
   19    2   17      2.16      0.00
    0    3   17     19.03      0.00
    2    3   17      0.24      0.00
    4    3   17     -3.13      0.00
    6    3   17      1.05      0.00
    8    3   17      1.79      0.00
   10    3   17      0.59      0.00
   12    3   17      4.94      0.00
   14    3   17      5.18      0.00
   16    3   17      3.76      0.00
   18    3   17     -7.51      0.00
   20    3   17      0.43      0.00
    1    4   17      6.69      0.00
    3    4   17     -0.88      0.00
    5    4   17      0.12      0.00
    7    4   17     -6.58      0.00
    9    4   17     -3.36      0.00
   11    4   17     -0.78      0.00
   13    4   17      0.06      0.00
   15    4   17     -2.23      0.00
   17    4   17      0.23      0.00
   19    4   17      1.21      0.00
    0    5   17    -14.77      0.00
    2    5   17     -2.86      0.00
    4    5   17     -3.18      0.00
    6    5   17     -9.82      0.00
    8    5   17     -3.26      0.00
   10    5   17     -1.58      0.00
   12    5   17     -2.96      0.00
   14    5   17     -7.01      0.00
   16    5   17      2.16      0.00
   18    5   17      0.89      0.00
    1    6   17      1.98      0.00
    3    6   17      3.27      0.00
    5    6   17     -1.59      0.00
    7    6   17     -4.00      0.00
    9    6   17     -1.62      0.00
   11    6   17      0.72      0.00
   13    6   17      0.12      0.00
   15    6   17      1.08      0.00
   17    6   17      4.42      0.00
   19    6   17      3.99      0.00
    0    7   17     -4.84      0.00
    2    7   17      9.33      0.00
    4    7   17     -0.76      0.00
    6    7   17     -4.46      0.00
    8    7   17      5.62      0.00
   10    7   17      2.82      0.00
   12    7   17      1.67      0.00
   14    7   17      1.06      0.00
   16    7   17      0.98      0.00
   18    7   17     -1.16      0.00
    1    8   17      0.52      0.00
    3    8   17      2.22      0.00
    5    8   17     -2.91      0.00
    7    8   17     -0.73      0.00
    9    8   17     -4.95      0.00
   11    8   17      3.30      0.00
   13    8   17     10.68      0.00
   15    8   17      6.82      0.00
   17    8   17     -1.36      0.00
   19    8   17     -5.59      0.00
    0    9   17     -4.82      0.00
    2    9   17      2.77      0.00
    4    9   17     -0.49      0.00
    6    9   17     -2.42      0.00
    8    9   17      3.66      0.00
   10    9   17      2.17      0.00
   12    9   17     -5.58      0.00
   14    9   17     -6.11      0.00
   16    9   17     -7.67      0.00
   18    9   17      0.46      0.00
    1   10   17      1.17      0.00
    3   10   17     10.47      0.00
    5   10   17      6.14      0.00
    7   10   17      6.49      0.00
    9   10   17     -0.57      0.00
   11   10   17      2.31      0.00
   13   10   17     -3.89      0.00
   15   10   17     -3.52      0.00
   17   10   17     -1.07      0.00
    0   11   17      4.87      0.00
    2   11   17     -1.24      0.00
    4   11   17      0.73      0.00
    6   11   17     -3.78      0.00
    8   11   17      2.20      0.00
   10   11   17     -0.40      0.00
   12   11   17    -10.49      0.00
   14   11   17     -4.11      0.00
   16   11   17     -8.53      0.00
   18   11   17      4.40      0.00
    1   12   17     -1.50      0.00
    3   12   17     -0.87      0.00
    5   12   17     -8.10      0.00
    7   12   17     -3.87      0.00
    9   12   17     -0.12      0.00
   11   12   17     -0.90      0.00
   13   12   17     -5.23      0.00
   15   12   17     -0.06      0.00
   17   12   17      0.77      0.00
    0   13   17     11.46      0.00
    2   13   17     -2.24      0.00
    4   13   17      2.57      0.00
    6   13   17     -3.42      0.00
    8   13   17      4.89      0.00
   10   13   17     -0.73      0.00
   12   13   17     -8.00      0.00
   14   13   17      3.81      0.00
   16   13   17     -2.53      0.00
    1   14   17      0.53      0.00
    3   14   17      4.46      0.00
    5   14   17     -1.15      0.00
    7   14   17     -1.90      0.00
    9   14   17      6.95      0.00
   11   14   17     -0.85      0.00
   13   14   17     -5.80      0.00
   15   14   17      4.29      0.00
   17   14   17     -0.43      0.00
    0   15   17      8.82      0.00
    2   15   17      2.33      0.00
    4   15   17      4.78      0.00
    6   15   17     -2.06      0.00
    8   15   17      2.23      0.00
   10   15   17     -2.96      0.00
   12   15   17     -0.36      0.00
   14   15   17      3.82      0.00
   16   15   17      2.43      0.00
    1   16   17      3.18      0.00
    3   16   17      1.01      0.00
    5   16   17     -2.14      0.00
    7   16   17     -5.43      0.00
    9   16   17      0.08      0.00
   11   16   17     -5.19      0.00
   13   16   17     -6.60      0.00
   15   16   17      0.76      0.00
    0   17   17     -1.74      0.00
    2   17   17      0.19      0.00
    4   17   17     -0.43      0.00
    6   17   17     -3.64      0.00
    8   17   17      2.55      0.00
   10   17   17     -8.95      0.00
   12   17   17      0.60      0.00
   14   17   17     -0.15      0.00
    1   18   17     -1.35      0.00
    3   18   17     -1.08      0.00
    5   18   17      6.46      0.00
    7   18   17      0.26      0.00
    9   18   17      6.62      0.00
   11   18   17     -0.95      0.00
   13   18   17      0.20      0.00
   15   18   17      3.57      0.00
    0   19   17     -1.51      0.00
    2   19   17     -3.69      0.00
    4   19   17      3.30      0.00
    6   19   17     -2.30      0.00
    8   19   17      7.73      0.00
   10   19   17     -1.66      0.00
   12   19   17      3.16      0.00
   14   19   17      5.71      0.00
    1   20   17      0.70      0.00
    3   20   17     -1.69      0.00
    5   20   17      7.20      0.00
    7   20   17     -6.69      0.00
    9   20   17      0.20      0.00
   11   20   17     -3.14      0.00
   13   20   17     -0.62      0.00
    0   21   17      4.42      0.00
    2   21   17     -6.33      0.00
    4   21   17      0.63      0.00
    6   21   17     -8.52      0.00
    8   21   17     -4.29      0.00
   10   21   17     -3.36      0.00
   12   21   17     -0.30      0.00
    1   22   17     -1.46      0.00
    3   22   17      2.14      0.00
    5   22   17      6.19      0.00
    7   22   17     -5.18      0.00
    9   22   17     -3.34      0.00
   11   22   17     -1.42      0.00
    0   23   17      1.65      0.00
    2   23   17      0.53      0.00
    4   23   17      5.26      0.00
    6   23   17      2.62      0.00
    8   23   17     -1.79      0.00
   10   23   17     -0.52      0.00
    1   24   17      3.10      0.00
    3   24   17      4.90      0.00
    5   24   17      1.89      0.00
    7   24   17     -4.34      0.00
    9   24   17     -0.80      0.00
    0   25   17     -7.31      0.00
    2   25   17      0.73      0.00
    4   25   17      3.55      0.00
    6   25   17      6.35      0.00
    8   25   17     -0.47      0.00
    1   26   17      0.39      0.00
    3   26   17      3.53      0.00
    5   26   17      3.93      0.00
    0   27   17     -9.41      0.00
    2   27   17     -3.26      0.00
    0    0   18     -0.43      0.00
    2    0   18      5.23      0.00
    4    0   18      3.32      0.00
    6    0   18     -3.90      0.00
    8    0   18      3.50      0.00
   10    0   18     -7.61      0.00
   12    0   18      1.58      0.00
   14    0   18     -2.62      0.00
   16    0   18     -9.18      0.00
   18    0   18      5.12      0.00
    1    1   18      6.98      0.00
    3    1   18     -4.24      0.00
    5    1   18      5.16      0.00
    7    1   18     -3.22      0.00
    9    1   18      0.05      0.00
   11    1   18     -1.08      0.00
   13    1   18    -12.87      0.00
   15    1   18     11.44      0.00
   17    1   18     -0.29      0.00
   19    1   18     -0.08      0.00
    0    2   18    -17.94      0.00
    2    2   18     -6.57      0.00
    4    2   18     -2.08      0.00
    6    2   18     -2.57      0.00
    8    2   18      3.42      0.00
   10    2   18     -2.15      0.00
   12    2   18      5.12      0.00
   14    2   18     -6.53      0.00
   16    2   18     -7.05      0.00
   18    2   18      4.46      0.00
    1    3   18      2.04      0.00
    3    3   18     -2.92      0.00
    5    3   18      2.90      0.00
    7    3   18     -2.55      0.00
    9    3   18      3.99      0.00
   11    3   18     -0.70      0.00
   13    3   18     -9.16      0.00
   15    3   18      3.99      0.00
   17    3   18     -3.37      0.00
   19    3   18      0.42      0.00
    0    4   18      0.66      0.00
    2    4   18      5.47      0.00
    4    4   18     -0.68      0.00
    6    4   18      4.52      0.00
    8    4   18      1.59      0.00
   10    4   18     -5.44      0.00
   12    4   18      4.67      0.00
   14    4   18     -4.08      0.00
   16    4   18     -4.17      0.00
   18    4   18     -0.22      0.00
    1    5   18     15.39      0.00
    3    5   18      5.99      0.00
    5    5   18      3.46      0.00
    7    5   18      1.22      0.00
    9    5   18      0.83      0.00
   11    5   18     -2.23      0.00
   13    5   18      7.66      0.00
   15    5   18      6.98      0.00
   17    5   18     -4.53      0.00
   19    5   18     -0.51      0.00
    0    6   18     -5.21      0.00
    2    6   18     -5.01      0.00
    4    6   18     -8.78      0.00
    6    6   18      1.28      0.00
    8    6   18     -2.32      0.00
   10    6   18     -3.59      0.00
   12    6   18      6.88      0.00
   14    6   18      4.37      0.00
   16    6   18      0.98      0.00
   18    6   18     -0.06      0.00
    1    7   18     -9.99      0.00
    3    7   18     -8.24      0.00
    5    7   18     -3.02      0.00
    7    7   18      0.52      0.00
    9    7   18      1.49      0.00
   11    7   18      0.05      0.00
   13    7   18      1.14      0.00
   15    7   18     -4.30      0.00
   17    7   18     -0.15      0.00
   19    7   18      2.82      0.00
    0    8   18      0.41      0.00
    2    8   18      0.36      0.00
    4    8   18      3.43      0.00
    6    8   18      3.14      0.00
    8    8   18      4.42      0.00
   10    8   18      2.14      0.00
   12    8   18     -0.12      0.00
   14    8   18     -4.61      0.00
   16    8   18     -8.56      0.00
   18    8   18     -4.89      0.00
    1    9   18      4.28      0.00
    3    9   18      4.67      0.00
    5    9   18      5.57      0.00
    7    9   18      2.25      0.00
    9    9   18     -1.66      0.00
   11    9   18      2.96      0.00
   13    9   18      4.94      0.00
   15    9   18     -1.26      0.00
   17    9   18      1.86      0.00
    0   10   18     11.60      0.00
    2   10   18      6.37      0.00
    4   10   18      4.01      0.00
    6   10   18     -6.22      0.00
    8   10   18      3.93      0.00
   10   10   18     -2.64      0.00
   12   10   18      0.16      0.00
   14   10   18      5.95      0.00
   16   10   18      0.12      0.00
   18   10   18     -0.49      0.00
    1   11   18     -6.01      0.00
    3   11   18     -8.04      0.00
    5   11   18     -6.18      0.00
    7   11   18     -2.95      0.00
    9   11   18     -4.10      0.00
   11   11   18      3.79      0.00
   13   11   18      2.68      0.00
   15   11   18      2.08      0.00
   17   11   18      0.56      0.00
    0   12   18     -4.66      0.00
    2   12   18     -1.21      0.00
    4   12   18      0.94      0.00
    6   12   18     -6.49      0.00
    8   12   18      8.02      0.00
   10   12   18      0.77      0.00
   12   12   18      0.90      0.00
   14   12   18      2.64      0.00
   16   12   18     -0.46      0.00
    1   13   18     -1.60      0.00
    3   13   18     -1.71      0.00
    5   13   18      4.03      0.00
    7   13   18      6.63      0.00
    9   13   18     -3.44      0.00
   11   13   18      2.87      0.00
   13   13   18     -0.14      0.00
   15   13   18      0.60      0.00
   17   13   18     -3.12      0.00
    0   14   18    -11.66      0.00
    2   14   18     -2.31      0.00
    4   14   18      0.96      0.00
    6   14   18     -3.47      0.00
    8   14   18      5.34      0.00
   10   14   18     -4.40      0.00
   12   14   18     -2.96      0.00
   14   14   18      2.46      0.00
   16   14   18     -0.83      0.00
    1   15   18     -3.60      0.00
    3   15   18     -9.06      0.00
    5   15   18     -6.21      0.00
    7   15   18      2.89      0.00
    9   15   18      1.66      0.00
   11   15   18      1.87      0.00
   13   15   18      2.15      0.00
   15   15   18      0.01      0.00
    0   16   18     -4.16      0.00
    2   16   18     -3.95      0.00
    4   16   18     -3.30      0.00
    6   16   18     -8.11      0.00
    8   16   18      0.47      0.00
   10   16   18      1.56      0.00
   12   16   18     -3.65      0.00
   14   16   18      3.59      0.00
   16   16   18      1.44      0.00
    1   17   18      1.34      0.00
    3   17   18     -0.76      0.00
    5   17   18     -1.26      0.00
    7   17   18     -0.16      0.00
    9   17   18     -1.23      0.00
   11   17   18     -0.66      0.00
   13   17   18      1.70      0.00
   15   17   18     -4.45      0.00
    0   18   18     12.68      0.00
    2   18   18      3.46      0.00
    4   18   18     -0.66      0.00
    6   18   18     -3.78      0.00
    8   18   18     -8.24      0.00
   10   18   18      2.69      0.00
   12   18   18     -0.45      0.00
   14   18   18      0.59      0.00
    1   19   18      6.99      0.00
    3   19   18      4.70      0.00
    5   19   18     -0.32      0.00
    7   19   18      1.63      0.00
    9   19   18     -5.69      0.00
   11   19   18     -3.29      0.00
   13   19   18     -0.85      0.00
    0   20   18      0.67      0.00
    2   20   18      3.89      0.00
    4   20   18      1.48      0.00
    6   20   18      8.71      0.00
    8   20   18      1.98      0.00
   10   20   18      0.52      0.00
   12   20   18     -1.26      0.00
    1   21   18      1.40      0.00
    3   21   18     -1.00      0.00
    5   21   18     -1.28      0.00
    7   21   18      2.56      0.00
    9   21   18      0.73      0.00
   11   21   18      2.08      0.00
    0   22   18     -9.42      0.00
    2   22   18     -0.35      0.00
    4   22   18     -4.38      0.00
    6   22   18     -1.55      0.00
    8   22   18      1.00      0.00
   10   22   18     -1.69      0.00
    1   23   18      5.81      0.00
    3   23   18     -5.93      0.00
    5   23   18     -0.53      0.00
    7   23   18     -1.90      0.00
    9   23   18      0.84      0.00
    0   24   18     -6.49      0.00
    2   24   18     -2.23      0.00
    4   24   18     -5.91      0.00
    6   24   18     -7.78      0.00
    8   24   18      3.10      0.00
    1   25   18      1.12      0.00
    3   25   18     -5.62      0.00
    5   25   18     -0.71      0.00
    7   25   18     -2.19      0.00
    0   26   18     -1.57      0.00
    2   26   18      1.13      0.00
    4   26   18      3.91      0.00
    1   27   18     -1.38      0.00
    1    0   19      0.24      0.00
    3    0   19      3.77      0.00
    5    0   19     -3.28      0.00
    7    0   19     -3.61      0.00
    9    0   19      0.83      0.00
   11    0   19      0.54      0.00
   13    0   19      9.62      0.00
   15    0   19      3.52      0.00
   17    0   19     -1.57      0.00
   19    0   19     -0.40      0.00
    0    1   19      2.79      0.00
    2    1   19      3.03      0.00
    4    1   19      5.03      0.00
    6    1   19     -7.79      0.00
    8    1   19      2.16      0.00
   10    1   19     -1.06      0.00
   12    1   19      1.66      0.00
   14    1   19      0.91      0.00
   16    1   19      5.07      0.00
   18    1   19     -0.57      0.00
    1    2   19      2.18      0.00
    3    2   19      2.56      0.00
    5    2   19     -3.54      0.00
    7    2   19     -2.38      0.00
    9    2   19     -0.68      0.00
   11    2   19     -3.00      0.00
   13    2   19      1.73      0.00
   15    2   19     -7.17      0.00
   17    2   19     -6.98      0.00
   19    2   19      1.01      0.00
    0    3   19     -3.06      0.00
    2    3   19     -5.76      0.00
    4    3   19      1.19      0.00
    6    3   19     -6.95      0.00
    8    3   19      1.78      0.00
   10    3   19     -1.02      0.00
   12    3   19     -1.41      0.00
   14    3   19      1.65      0.00
   16    3   19     -1.91      0.00
   18    3   19     -2.53      0.00
    1    4   19     -4.85      0.00
    3    4   19     -1.05      0.00
    5    4   19      2.03      0.00
    7    4   19      3.46      0.00
    9    4   19      3.70      0.00
   11    4   19     -1.27      0.00
   13    4   19     -1.29      0.00
   15    4   19     -0.79      0.00
   17    4   19      4.09      0.00
   19    4   19      3.50      0.00
    0    5   19      2.40      0.00
    2    5   19     -5.63      0.00
    4    5   19      5.44      0.00
    6    5   19     -1.75      0.00
    8    5   19      0.71      0.00
   10    5   19      1.05      0.00
   12    5   19     -3.20      0.00
   14    5   19      1.46      0.00
   16    5   19      0.80      0.00
   18    5   19      1.50      0.00
    1    6   19      0.87      0.00
    3    6   19     -0.45      0.00
    5    6   19      3.42      0.00
    7    6   19      2.68      0.00
    9    6   19      0.87      0.00
   11    6   19     -4.04      0.00
   13    6   19     -5.58      0.00
   15    6   19     -2.43      0.00
   17    6   19     -2.15      0.00
   19    6   19      2.16      0.00
    0    7   19     11.24      0.00
    2    7   19     -3.15      0.00
    4    7   19      2.26      0.00
    6    7   19      1.48      0.00
    8    7   19      1.18      0.00
   10    7   19      2.22      0.00
   12    7   19      0.18      0.00
   14    7   19     -1.33      0.00
   16    7   19     -4.47      0.00
   18    7   19     -1.29      0.00
    1    8   19     -1.06      0.00
    3    8   19     -5.19      0.00
    5    8   19     -2.46      0.00
    7    8   19      4.11      0.00
    9    8   19     -1.97      0.00
   11    8   19     -7.85      0.00
   13    8   19     -4.08      0.00
   15    8   19      7.34      0.00
   17    8   19     -4.21      0.00
    0    9   19      3.39      0.00
    2    9   19     -1.71      0.00
    4    9   19     -2.42      0.00
    6    9   19      1.53      0.00
    8    9   19      1.05      0.00
   10    9   19      1.36      0.00
   12    9   19      0.70      0.00
   14    9   19     -1.38      0.00
   16    9   19      1.20      0.00
   18    9   19      7.02      0.00
    1   10   19      5.23      0.00
    3   10   19      3.77      0.00
    5   10   19      3.44      0.00
    7   10   19      8.02      0.00
    9   10   19     -3.07      0.00
   11   10   19     -0.62      0.00
   13   10   19     -1.15      0.00
   15   10   19     12.00      0.00
   17   10   19     -1.11      0.00
    0   11   19    -10.04      0.00
    2   11   19     -0.09      0.00
    4   11   19     -0.37      0.00
    6   11   19      1.39      0.00
    8   11   19     -6.58      0.00
   10   11   19     -4.92      0.00
   12   11   19      4.99      0.00
   14   11   19      0.72      0.00
   16   11   19      2.50      0.00
    1   12   19     -5.87      0.00
    3   12   19     -3.49      0.00
    5   12   19     -4.70      0.00
    7   12   19     -2.62      0.00
    9   12   19    -12.05      0.00
   11   12   19      3.12      0.00
   13   12   19     -1.24      0.00
   15   12   19      5.94      0.00
   17   12   19      1.85      0.00
    0   13   19     -2.54      0.00
    2   13   19      3.07      0.00
    4   13   19     -1.44      0.00
    6   13   19      1.33      0.00
    8   13   19     -1.97      0.00
   10   13   19     -2.74      0.00
   12   13   19      2.31      0.00
   14   13   19     -3.05      0.00
   16   13   19      1.85      0.00
    1   14   19      0.30      0.00
    3   14   19      4.43      0.00
    5   14   19      0.85      0.00
    7   14   19      3.41      0.00
    9   14   19     -6.40      0.00
   11   14   19      8.39      0.00
   13   14   19     -1.65      0.00
   15   14   19     -4.92      0.00
    0   15   19      3.37      0.00
    2   15   19      4.37      0.00
    4   15   19      5.35      0.00
    6   15   19      6.62      0.00
    8   15   19     -3.91      0.00
   10   15   19     -3.21      0.00
   12   15   19      1.79      0.00
   14   15   19     -3.39      0.00
   16   15   19      1.91      0.00
    1   16   19     -2.06      0.00
    3   16   19      4.24      0.00
    5   16   19      0.09      0.00
    7   16   19      3.08      0.00
    9   16   19     -8.92      0.00
   11   16   19      3.54      0.00
   13   16   19      0.06      0.00
   15   16   19     -3.90      0.00
    0   17   19     -9.93      0.00
    2   17   19     -3.53      0.00
    4   17   19      1.10      0.00
    6   17   19      4.10      0.00
    8   17   19     -0.31      0.00
   10   17   19     -0.20      0.00
   12   17   19      1.24      0.00
   14   17   19      1.59      0.00
    1   18   19     -3.83      0.00
    3   18   19      1.26      0.00
    5   18   19      1.19      0.00
    7   18   19      6.59      0.00
    9   18   19      4.21      0.00
   11   18   19      1.79      0.00
   13   18   19      4.38      0.00
    0   19   19     -4.81      0.00
    2   19   19      3.97      0.00
    4   19   19      3.74      0.00
    6   19   19      0.99      0.00
    8   19   19     -0.10      0.00
   10   19   19      2.50      0.00
   12   19   19      0.61      0.00
    1   20   19      1.76      0.00
    3   20   19      2.53      0.00
    5   20   19      6.10      0.00
    7   20   19      2.61      0.00
    9   20   19      6.94      0.00
   11   20   19     -0.82      0.00
    0   21   19     -4.12      0.00
    2   21   19      1.23      0.00
    4   21   19     -6.08      0.00
    6   21   19     -3.24      0.00
    8   21   19     -3.50      0.00
   10   21   19      1.87      0.00
   12   21   19     -2.00      0.00
    1   22   19     -8.47      0.00
    3   22   19     -3.19      0.00
    5   22   19      1.51      0.00
    7   22   19      1.07      0.00
    9   22   19      2.97      0.00
   11   22   19     -5.03      0.00
    0   23   19     -6.78      0.00
    2   23   19     -0.60      0.00
    4   23   19     -5.89      0.00
    6   23   19      1.35      0.00
    8   23   19     -3.32      0.00
    1   24   19      0.43      0.00
    3   24   19      0.83      0.00
    5   24   19     -1.81      0.00
    7   24   19     -0.25      0.00
    0   25   19      0.61      0.00
    2   25   19     -0.97      0.00
    4   25   19     -2.59      0.00
    6   25   19      1.94      0.00
    1   26   19      4.92      0.00
    3   26   19     -0.52      0.00
    0    0   20      3.69      0.00
    2    0   20     -9.00      0.00
    4    0   20      5.01      0.00
    6    0   20     -8.08      0.00
    8    0   20      4.87      0.00
   10    0   20     -0.72      0.00
   12    0   20      1.32      0.00
   14    0   20      1.12      0.00
   16    0   20     -7.37      0.00
   18    0   20      4.97      0.00
    1    1   20     -4.07      0.00
    3    1   20     -1.64      0.00
    5    1   20      1.77      0.00
    7    1   20     -2.37      0.00
    9    1   20      1.39      0.00
   11    1   20     -1.24      0.00
   13    1   20     -1.68      0.00
   15    1   20     -0.72      0.00
   17    1   20     -2.00      0.00
   19    1   20      2.64      0.00
    0    2   20      2.55      0.00
    2    2   20     -9.70      0.00
    4    2   20      4.87      0.00
    6    2   20     -1.61      0.00
    8    2   20      8.51      0.00
   10    2   20     -1.11      0.00
   12    2   20      0.10      0.00
   14    2   20      4.18      0.00
   16    2   20     -1.33      0.00
   18    2   20      4.07      0.00
    1    3   20     -3.99      0.00
    3    3   20      0.52      0.00
    5    3   20      1.11      0.00
    7    3   20     -3.12      0.00
    9    3   20     -1.14      0.00
   11    3   20      0.46      0.00
   13    3   20      5.18      0.00
   15    3   20      5.88      0.00
   17    3   20     -2.03      0.00
   19    3   20      0.47      0.00
    0    4   20      8.28      0.00
    2    4   20     -5.98      0.00
    4    4   20     -0.79      0.00
    6    4   20     -3.02      0.00
    8    4   20      3.41      0.00
   10    4   20     -1.30      0.00
   12    4   20     -0.36      0.00
   14    4   20      3.00      0.00
   16    4   20     -4.58      0.00
   18    4   20      0.16      0.00
    1    5   20      0.35      0.00
    3    5   20      7.40      0.00
    5    5   20     -0.29      0.00
    7    5   20     -1.88      0.00
    9    5   20     -2.06      0.00
   11    5   20      1.36      0.00
   13    5   20     -1.54      0.00
   15    5   20      1.18      0.00
   17    5   20     -5.72      0.00
    0    6   20      4.84      0.00
    2    6   20      0.56      0.00
    4    6   20      4.21      0.00
    6    6   20      1.10      0.00
    8    6   20      5.50      0.00
   10    6   20      2.56      0.00
   12    6   20     -5.01      0.00
   14    6   20      7.05      0.00
   16    6   20      1.08      0.00
   18    6   20      4.38      0.00
    1    7   20     -6.91      0.00
    3    7   20      4.00      0.00
    5    7   20     -2.19      0.00
    7    7   20      0.43      0.00
    9    7   20     -2.23      0.00
   11    7   20      2.31      0.00
   13    7   20     -5.70      0.00
   15    7   20      6.52      0.00
   17    7   20      4.95      0.00
    0    8   20     -0.02      0.00
    2    8   20     -0.01      0.00
    4    8   20      2.31      0.00
    6    8   20     -4.68      0.00
    8    8   20     -1.04      0.00
   10    8   20      6.69      0.00
   12    8   20     -0.07      0.00
   14    8   20      7.48      0.00
   16    8   20     -0.64      0.00
   18    8   20      1.35      0.00
    1    9   20     -3.84      0.00
    3    9   20     -4.42      0.00
    5    9   20     -4.17      0.00
    7    9   20     -2.62      0.00
    9    9   20     -2.57      0.00
   11    9   20      5.55      0.00
   13    9   20     -7.32      0.00
   15    9   20     -4.23      0.00
   17    9   20      1.16      0.00
    0   10   20      3.16      0.00
    2   10   20     -1.05      0.00
    4   10   20      2.46      0.00
    6   10   20     -0.91      0.00
    8   10   20      1.18      0.00
   10   10   20      4.44      0.00
   12   10   20     -5.02      0.00
   14   10   20     -2.46      0.00
   16   10   20     -3.54      0.00
    1   11   20      2.98      0.00
    3   11   20     -4.79      0.00
    5   11   20      1.46      0.00
    7   11   20      5.66      0.00
    9   11   20      3.20      0.00
   11   11   20     -1.32      0.00
   13   11   20     -2.14      0.00
   15   11   20     -5.28      0.00
   17   11   20     -4.15      0.00
    0   12   20      0.68      0.00
    2   12   20     -4.77      0.00
    4   12   20     -0.17      0.00
    6   12   20      0.34      0.00
    8   12   20      2.09      0.00
   10   12   20      2.01      0.00
   12   12   20      1.56      0.00
   14   12   20      5.20      0.00
   16   12   20      1.52      0.00
    1   13   20      5.99      0.00
    3   13   20     -2.73      0.00
    5   13   20     -1.52      0.00
    7   13   20     -0.01      0.00
    9   13   20     -0.11      0.00
   11   13   20     -4.11      0.00
   13   13   20      5.08      0.00
   15   13   20      0.25      0.00
    0   14   20      2.72      0.00
    2   14   20      0.69      0.00
    4   14   20      2.13      0.00
    6   14   20     -0.41      0.00
    8   14   20     -1.35      0.00
   10   14   20     -1.28      0.00
   12   14   20     -0.32      0.00
   14   14   20      0.31      0.00
   16   14   20     -2.01      0.00
    1   15   20      3.52      0.00
    3   15   20      1.95      0.00
    5   15   20      0.46      0.00
    7   15   20      1.50      0.00
    9   15   20      5.43      0.00
   11   15   20     -1.28      0.00
   13   15   20      2.20      0.00
   15   15   20      2.30      0.00
    0   16   20      6.52      0.00
    2   16   20      4.14      0.00
    4   16   20     -1.97      0.00
    6   16   20      0.36      0.00
    8   16   20     -0.90      0.00
   10   16   20     -4.38      0.00
   12   16   20     -5.05      0.00
   14   16   20      0.19      0.00
    1   17   20     -5.70      0.00
    3   17   20     -0.04      0.00
    5   17   20     -0.67      0.00
    7   17   20     -1.39      0.00
    9   17   20     -2.34      0.00
   11   17   20     -5.99      0.00
   13   17   20     -3.67      0.00
    0   18   20     -1.12      0.00
    2   18   20     -1.32      0.00
    4   18   20    -12.96      0.00
    6   18   20     -2.53      0.00
    8   18   20     -0.10      0.00
   10   18   20      3.45      0.00
   12   18   20      4.63      0.00
   14   18   20      2.02      0.00
    1   19   20     -3.49      0.00
    3   19   20      3.16      0.00
    5   19   20     -0.97      0.00
    7   19   20      0.04      0.00
    9   19   20      0.18      0.00
   11   19   20      1.15      0.00
   13   19   20     -2.58      0.00
    0   20   20      5.03      0.00
    2   20   20     11.38      0.00
    4   20   20      1.97      0.00
    6   20   20      5.75      0.00
    8   20   20      2.97      0.00
   10   20   20     -2.83      0.00
   12   20   20      0.18      0.00
    1   21   20      8.04      0.00
    3   21   20      7.63      0.00
    5   21   20      4.10      0.00
    7   21   20      1.94      0.00
    9   21   20      2.62      0.00
   11   21   20      3.51      0.00
    0   22   20     -1.67      0.00
    2   22   20      0.44      0.00
    4   22   20     -2.40      0.00
    6   22   20     -2.81      0.00
    8   22   20      2.43      0.00
   10   22   20     -3.07      0.00
    1   23   20     -0.90      0.00
    3   23   20     -2.24      0.00
    5   23   20      3.70      0.00
    7   23   20      0.08      0.00
    9   23   20      0.37      0.00
    0   24   20     -0.65      0.00
    2   24   20     -0.25      0.00
    4   24   20     -0.13      0.00
    6   24   20     -3.98      0.00
    1   25   20     -1.27      0.00
    3   25   20      1.26      0.00
    5   25   20      4.95      0.00
    0   26   20      3.14      0.00
    2   26   20      3.50      0.00
    1    0   21      7.31      0.00
    3    0   21      8.43      0.00
    5    0   21      4.23      0.00
    7    0   21      8.56      0.00
    9    0   21     -1.37      0.00
   11    0   21     -1.06      0.00
   13    0   21      0.85      0.00
   15    0   21     -7.09      0.00
   17    0   21     -4.90      0.00
    0    1   21      3.89      0.00
    2    1   21      0.08      0.00
    4    1   21      1.73      0.00
    6    1   21      3.59      0.00
    8    1   21      3.94      0.00
   10    1   21     -0.69      0.00
   12    1   21     -3.71      0.00
   14    1   21     -3.17      0.00
   16    1   21      4.34      0.00
   18    1   21     -3.46      0.00
    1    2   21     -2.30      0.00
    3    2   21     -0.24      0.00
    5    2   21     -4.59      0.00
    7    2   21     -1.98      0.00
    9    2   21     -6.09      0.00
   11    2   21      1.26      0.00
   13    2   21      0.38      0.00
   15    2   21      1.33      0.00
   17    2   21      5.75      0.00
    0    3   21      1.55      0.00
    2    3   21     -2.17      0.00
    4    3   21     -0.65      0.00
    6    3   21     -2.47      0.00
    8    3   21     -0.80      0.00
   10    3   21     -1.10      0.00
   12    3   21     -1.53      0.00
   14    3   21      1.37      0.00
   16    3   21      6.31      0.00
   18    3   21      3.35      0.00
    1    4   21     -2.24      0.00
    3    4   21      1.97      0.00
    5    4   21      0.51      0.00
    7    4   21      2.94      0.00
    9    4   21      1.63      0.00
   11    4   21      3.75      0.00
   13    4   21     -5.90      0.00
   15    4   21     -3.03      0.00
   17    4   21      2.92      0.00
    0    5   21      8.02      0.00
    2    5   21      4.74      0.00
    4    5   21      2.05      0.00
    6    5   21      0.05      0.00
    8    5   21     -3.56      0.00
   10    5   21     -0.84      0.00
   12    5   21      6.12      0.00
   14    5   21      1.81      0.00
   16    5   21     -1.33      0.00
   18    5   21     -2.51      0.00
    1    6   21      1.85      0.00
    3    6   21     -0.48      0.00
    5    6   21     -0.70      0.00
    7    6   21     -2.50      0.00
    9    6   21     -0.78      0.00
   11    6   21      2.14      0.00
   13    6   21      2.24      0.00
   15    6   21     -5.52      0.00
   17    6   21     -1.23      0.00
    0    7   21     -0.37      0.00
    2    7   21     -2.05      0.00
    4    7   21     -2.65      0.00
    6    7   21      1.07      0.00
    8    7   21     -9.59      0.00
   10    7   21     -1.14      0.00
   12    7   21      6.43      0.00
   14    7   21      0.45      0.00
   16    7   21      4.72      0.00
   18    7   21      0.97      0.00
    1    8   21      4.36      0.00
    3    8   21      2.69      0.00
    5    8   21      0.25      0.00
    7    8   21      0.20      0.00
    9    8   21     -2.15      0.00
   11    8   21    -12.72      0.00
   13    8   21     -0.47      0.00
   15    8   21     -7.24      0.00
   17    8   21     -1.52      0.00
    0    9   21     -4.80      0.00
    2    9   21      0.75      0.00
    4    9   21      5.29      0.00
    6    9   21      3.41      0.00
    8    9   21     -7.25      0.00
   10    9   21      2.27      0.00
   12    9   21      3.84      0.00
   14    9   21      4.62      0.00
   16    9   21      2.61      0.00
    1   10   21      1.80      0.00
    3   10   21      2.07      0.00
    5   10   21     -4.80      0.00
    7   10   21      1.80      0.00
    9   10   21      2.05      0.00
   11   10   21     -7.15      0.00
   13   10   21      0.99      0.00
   15   10   21     -4.46      0.00
   17   10   21     -2.80      0.00
    0   11   21     -3.82      0.00
    2   11   21     -1.31      0.00
    4   11   21      3.15      0.00
    6   11   21     -4.14      0.00
    8   11   21     -6.43      0.00
   10   11   21      6.45      0.00
   12   11   21     -2.39      0.00
   14   11   21     -0.11      0.00
   16   11   21     -3.19      0.00
    1   12   21      2.68      0.00
    3   12   21      2.99      0.00
    5   12   21     -1.88      0.00
    7   12   21     -1.15      0.00
    9   12   21      3.69      0.00
   11   12   21      3.14      0.00
   13   12   21     -7.05      0.00
   15   12   21     -2.45      0.00
    0   13   21      3.05      0.00
    2   13   21      1.54      0.00
    4   13   21      3.57      0.00
    6   13   21      2.81      0.00
    8   13   21      3.59      0.00
   10   13   21      9.80      0.00
   12   13   21     -3.29      0.00
   14   13   21      2.35      0.00
   16   13   21     -0.44      0.00
    1   14   21     -1.87      0.00
    3   14   21      0.80      0.00
    5   14   21      1.80      0.00
    7   14   21     -0.85      0.00
    9   14   21      4.29      0.00
   11   14   21      6.62      0.00
   13   14   21     -1.14      0.00
   15   14   21      0.37      0.00
    0   15   21      5.72      0.00
    2   15   21      3.02      0.00
    4   15   21     -5.86      0.00
    6   15   21      0.43      0.00
    8   15   21      1.65      0.00
   10   15   21      5.19      0.00
   12   15   21     -1.19      0.00
   14   15   21      1.59      0.00
    1   16   21      2.24      0.00
    3   16   21     -0.11      0.00
    5   16   21     -2.11      0.00
    7   16   21     -5.53      0.00
    9   16   21      1.66      0.00
   11   16   21      2.60      0.00
   13   16   21     -1.66      0.00
    0   17   21     -2.46      0.00
    2   17   21     -0.89      0.00
    4   17   21     -1.84      0.00
    6   17   21      1.83      0.00
    8   17   21     -0.25      0.00
   10   17   21      3.05      0.00
   12   17   21     -1.25      0.00
   14   17   21     -5.13      0.00
    1   18   21     -3.55      0.00
    3   18   21     -6.29      0.00
    5   18   21     -1.03      0.00
    7   18   21     -3.36      0.00
    9   18   21     -3.52      0.00
   11   18   21     -1.77      0.00
   13   18   21     -0.39      0.00
    0   19   21      2.26      0.00
    2   19   21     -6.38      0.00
    4   19   21     -3.75      0.00
    6   19   21     -4.72      0.00
    8   19   21     -1.95      0.00
   10   19   21      0.95      0.00
   12   19   21     -1.92      0.00
    1   20   21      0.49      0.00
    3   20   21     -7.38      0.00
    5   20   21      1.34      0.00
    7   20   21      6.35      0.00
    9   20   21     -0.20      0.00
   11   20   21      4.09      0.00
    0   21   21     10.29      0.00
    2   21   21     -1.78      0.00
    4   21   21     -2.78      0.00
    6   21   21     -6.77      0.00
    8   21   21     -2.30      0.00
   10   21   21      4.84      0.00
    1   22   21     -2.23      0.00
    3   22   21     -3.49      0.00
    5   22   21      1.86      0.00
    7   22   21      1.94      0.00
    9   22   21    -10.19      0.00
    0   23   21      4.92      0.00
    2   23   21      0.41      0.00
    4   23   21     -0.81      0.00
    6   23   21     -0.96      0.00
    8   23   21     -4.09      0.00
    1   24   21      1.89      0.00
    3   24   21     -0.65      0.00
    5   24   21      4.58      0.00
    0   25   21      1.17      0.00
    2   25   21     -0.82      0.00
    4   25   21     -1.90      0.00
    0    0   22      3.65      0.00
    2    0   22      2.15      0.00
    4    0   22      4.39      0.00
    6    0   22      5.16      0.00
    8    0   22      2.60      0.00
   10    0   22      2.80      0.00
   12    0   22      1.09      0.00
   14    0   22      4.49      0.00
   16    0   22      3.23      0.00
   18    0   22      0.00      0.00
    1    1   22      4.23      0.00
    3    1   22      0.15      0.00
    5    1   22     -2.81      0.00
    7    1   22      2.55      0.00
    9    1   22     -6.41      0.00
   11    1   22     12.04      0.00
   13    1   22     -6.37      0.00
   15    1   22     -0.98      0.00
   17    1   22     -0.88      0.00
    0    2   22      2.14      0.00
    2    2   22      1.52      0.00
    4    2   22     -0.32      0.00
    6    2   22      0.94      0.00
    8    2   22     -1.75      0.00
   10    2   22     -2.08      0.00
   12    2   22     -1.85      0.00
   14    2   22     -2.94      0.00
   16    2   22     -4.29      0.00
   18    2   22     -2.78      0.00
    1    3   22      1.85      0.00
    3    3   22      2.36      0.00
    5    3   22     -5.02      0.00
    7    3   22     -2.96      0.00
    9    3   22     -7.52      0.00
   11    3   22      6.89      0.00
   13    3   22      3.29      0.00
   15    3   22     -2.93      0.00
   17    3   22      1.22      0.00
    0    4   22     -7.84      0.00
    2    4   22     -6.60      0.00
    4    4   22     -4.62      0.00
    6    4   22      2.85      0.00
    8    4   22      2.98      0.00
   10    4   22      1.84      0.00
   12    4   22     -0.42      0.00
   14    4   22      1.29      0.00
   16    4   22      3.56      0.00
   18    4   22      0.45      0.00
    1    5   22     -4.47      0.00
    3    5   22      1.75      0.00
    5    5   22     -3.91      0.00
    7    5   22      3.41      0.00
    9    5   22      1.91      0.00
   11    5   22      0.11      0.00
   13    5   22     -0.88      0.00
   15    5   22     -3.49      0.00
   17    5   22      5.20      0.00
    0    6   22      0.00      0.00
    2    6   22      1.85      0.00
    4    6   22      1.10      0.00
    6    6   22      0.42      0.00
    8    6   22      4.05      0.00
   10    6   22      0.14      0.00
   12    6   22     -3.98      0.00
   14    6   22     -0.61      0.00
   16    6   22     -1.37      0.00
   18    6   22      0.90      0.00
    1    7   22      1.56      0.00
    3    7   22      4.68      0.00
    5    7   22     -5.37      0.00
    7    7   22      1.52      0.00
    9    7   22      0.25      0.00
   11    7   22      1.31      0.00
   13    7   22     -0.29      0.00
   15    7   22     -2.66      0.00
   17    7   22      0.34      0.00
    0    8   22     -6.20      0.00
    2    8   22     -0.31      0.00
    4    8   22     -0.10      0.00
    6    8   22     -2.36      0.00
    8    8   22      2.43      0.00
   10    8   22      1.52      0.00
   12    8   22      7.48      0.00
   14    8   22      5.87      0.00
   16    8   22     -0.58      0.00
    1    9   22     -0.58      0.00
    3    9   22     -2.66      0.00
    5    9   22     -2.76      0.00
    7    9   22      1.78      0.00
    9    9   22     -1.37      0.00
   11    9   22      0.52      0.00
   13    9   22     -3.06      0.00
   15    9   22      0.28      0.00
   17    9   22      2.57      0.00
    0   10   22     -4.69      0.00
    2   10   22      1.96      0.00
    4   10   22     -3.13      0.00
    6   10   22      1.87      0.00
    8   10   22     -0.48      0.00
   10   10   22     -2.96      0.00
   12   10   22      2.59      0.00
   14   10   22     -0.38      0.00
   16   10   22      2.91      0.00
    1   11   22      2.91      0.00
    3   11   22      1.94      0.00
    5   11   22      1.01      0.00
    7   11   22      0.40      0.00
    9   11   22     -2.45      0.00
   11   11   22     -4.13      0.00
   13   11   22      3.58      0.00
   15   11   22      1.15      0.00
    0   12   22     -4.46      0.00
    2   12   22      4.08      0.00
    4   12   22     -4.25      0.00
    6   12   22      4.63      0.00
    8   12   22     -1.37      0.00
   10   12   22     -0.85      0.00
   12   12   22      4.65      0.00
   14   12   22      1.69      0.00
   16   12   22      2.25      0.00
    1   13   22     -0.80      0.00
    3   13   22      3.70      0.00
    5   13   22     -0.81      0.00
    7   13   22     -0.08      0.00
    9   13   22     -2.05      0.00
   11   13   22    -10.22      0.00
   13   13   22      1.05      0.00
   15   13   22      0.30      0.00
    0   14   22     -1.17      0.00
    2   14   22     -1.86      0.00
    4   14   22     -3.04      0.00
    6   14   22      1.22      0.00
    8   14   22     -3.97      0.00
   10   14   22     -1.14      0.00
   12   14   22     -2.18      0.00
   14   14   22     -4.06      0.00
    1   15   22    -12.41      0.00
    3   15   22      0.45      0.00
    5   15   22      1.99      0.00
    7   15   22     -1.14      0.00
    9   15   22     -3.01      0.00
   11   15   22     -2.16      0.00
   13   15   22      2.34      0.00
   15   15   22      2.44      0.00
    0   16   22      3.73      0.00
    2   16   22     -7.04      0.00
    4   16   22      1.99      0.00
    6   16   22      0.55      0.00
    8   16   22     -0.19      0.00
   10   16   22      0.71      0.00
   12   16   22     -0.07      0.00
   14   16   22      1.70      0.00
    1   17   22      1.24      0.00
    3   17   22      4.64      0.00
    5   17   22      3.45      0.00
    7   17   22      1.02      0.00
    9   17   22     -2.99      0.00
   11   17   22      0.82      0.00
   13   17   22      0.49      0.00
    0   18   22     15.07      0.00
    2   18   22      2.93      0.00
    4   18   22      3.64      0.00
    6   18   22     -2.57      0.00
    8   18   22      3.98      0.00
   10   18   22      7.38      0.00
   12   18   22      5.39      0.00
    1   19   22     -1.49      0.00
    3   19   22      0.98      0.00
    5   19   22     -0.41      0.00
    7   19   22     -4.58      0.00
    9   19   22     -5.15      0.00
   11   19   22      1.09      0.00
    0   20   22     -3.86      0.00
    2   20   22     -2.59      0.00
    4   20   22      4.28      0.00
    6   20   22     -3.29      0.00
    8   20   22     -5.43      0.00
   10   20   22     -2.72      0.00
    1   21   22     -2.51      0.00
    3   21   22      0.54      0.00
    5   21   22      3.82      0.00
    7   21   22      0.53      0.00
    9   21   22      0.49      0.00
    0   22   22     -3.27      0.00
    2   22   22     -4.43      0.00
    4   22   22      0.14      0.00
    6   22   22     -3.72      0.00
    8   22   22      1.92      0.00
    1   23   22     -2.78      0.00
    3   23   22      1.94      0.00
    5   23   22      0.97      0.00
    7   23   22     -0.33      0.00
    0   24   22      5.21      0.00
    2   24   22      3.66      0.00
    4   24   22      2.07      0.00
    1   25   22     -3.10      0.00
    1    0   23     -2.61      0.00
    3    0   23     -0.58      0.00
    5    0   23      0.67      0.00
    7    0   23     -1.28      0.00
    9    0   23     -2.26      0.00
   11    0   23      2.48      0.00
   13    0   23      3.07      0.00
   15    0   23     -0.13      0.00
   17    0   23      4.38      0.00
    0    1   23     -7.63      0.00
    2    1   23     -4.17      0.00
    4    1   23     -1.21      0.00
    6    1   23     -1.62      0.00
    8    1   23      2.76      0.00
   10    1   23      0.08      0.00
   12    1   23     -1.10      0.00
   14    1   23     -0.82      0.00
   16    1   23     -0.35      0.00
   18    1   23      3.91      0.00
    1    2   23      5.96      0.00
    3    2   23      3.03      0.00
    5    2   23      2.04      0.00
    7    2   23      1.43      0.00
    9    2   23     -0.67      0.00
   11    2   23      1.09      0.00
   13    2   23     -0.27      0.00
   15    2   23      6.31      0.00
   17    2   23      3.49      0.00
    0    3   23      4.28      0.00
    2    3   23      1.35      0.00
    4    3   23      1.19      0.00
    6    3   23      0.05      0.00
    8    3   23      1.94      0.00
   10    3   23      0.17      0.00
   12    3   23     -2.06      0.00
   14    3   23      0.70      0.00
   16    3   23      2.59      0.00
   18    3   23      1.14      0.00
    1    4   23     -2.57      0.00
    3    4   23     -6.78      0.00
    5    4   23     -5.41      0.00
    7    4   23     -0.55      0.00
    9    4   23     -3.60      0.00
   11    4   23     -0.94      0.00
   13    4   23     -6.65      0.00
   15    4   23      1.37      0.00
   17    4   23     -2.23      0.00
    0    5   23      1.35      0.00
    2    5   23     -2.10      0.00
    4    5   23     -0.56      0.00
    6    5   23     -0.82      0.00
    8    5   23     -3.19      0.00
   10    5   23     -2.07      0.00
   12    5   23     -0.19      0.00
   14    5   23     -5.97      0.00
   16    5   23     -1.07      0.00
    1    6   23      7.02      0.00
    3    6   23      2.99      0.00
    5    6   23      4.76      0.00
    7    6   23      7.46      0.00
    9    6   23      3.30      0.00
   11    6   23      1.95      0.00
   13    6   23     -1.60      0.00
   15    6   23     -1.23      0.00
   17    6   23     -6.61      0.00
    0    7   23     -3.31      0.00
    2    7   23     -5.99      0.00
    4    7   23     -1.04      0.00
    6    7   23      5.81      0.00
    8    7   23      1.92      0.00
   10    7   23     -0.06      0.00
   12    7   23     -2.79      0.00
   14    7   23     -5.88      0.00
   16    7   23      3.43      0.00
    1    8   23      4.74      0.00
    3    8   23     -2.63      0.00
    5    8   23     -4.84      0.00
    7    8   23      0.13      0.00
    9    8   23      2.07      0.00
   11    8   23     -5.95      0.00
   13    8   23      0.07      0.00
   15    8   23     -3.92      0.00
   17    8   23     -7.96      0.00
    0    9   23     -4.35      0.00
    2    9   23     -4.08      0.00
    4    9   23     -3.78      0.00
    6    9   23     -1.51      0.00
    8    9   23     -2.87      0.00
   10    9   23      2.69      0.00
   12    9   23      3.23      0.00
   14    9   23      1.40      0.00
   16    9   23      5.75      0.00
    1   10   23     -3.60      0.00
    3   10   23     -3.05      0.00
    5   10   23     -3.41      0.00
    7   10   23      0.05      0.00
    9   10   23      6.92      0.00
   11   10   23     -1.48      0.00
   13   10   23      1.88      0.00
   15   10   23     -3.19      0.00
    0   11   23      0.09      0.00
    2   11   23      1.93      0.00
    4   11   23      1.72      0.00
    6   11   23      2.23      0.00
    8   11   23      0.53      0.00
   10   11   23      1.54      0.00
   12   11   23      0.38      0.00
   14   11   23     -3.67      0.00
   16   11   23     -0.19      0.00
    1   12   23      2.57      0.00
    3   12   23     -0.17      0.00
    5   12   23      2.40      0.00
    7   12   23     -2.67      0.00
    9   12   23      1.87      0.00
   11   12   23     -1.44      0.00
   13   12   23     -1.40      0.00
   15   12   23      0.47      0.00
    0   13   23      1.30      0.00
    2   13   23      1.46      0.00
    4   13   23     -1.59      0.00
    6   13   23      2.17      0.00
    8   13   23      1.16      0.00
   10   13   23     -2.91      0.00
   12   13   23      1.36      0.00
   14   13   23     -0.39      0.00
    1   14   23     -0.80      0.00
    3   14   23     -2.34      0.00
    5   14   23      3.20      0.00
    7   14   23     -0.86      0.00
    9   14   23      1.53      0.00
   11   14   23     -0.79      0.00
   13   14   23     -1.56      0.00
   15   14   23      1.26      0.00
    0   15   23     -0.92      0.00
    2   15   23      2.15      0.00
    4   15   23     -5.03      0.00
    6   15   23      1.72      0.00
    8   15   23      3.82      0.00
   10   15   23      0.32      0.00
   12   15   23      3.09      0.00
   14   15   23      3.16      0.00
    1   16   23      2.92      0.00
    3   16   23      0.44      0.00
    5   16   23      0.63      0.00
    7   16   23     -1.67      0.00
    9   16   23     -0.23      0.00
   11   16   23     -2.72      0.00
   13   16   23     -3.65      0.00
    0   17   23     -3.20      0.00
    2   17   23      2.87      0.00
    4   17   23      2.59      0.00
    6   17   23      5.92      0.00
    8   17   23     -0.97      0.00
   10   17   23     -2.95      0.00
   12   17   23     -2.04      0.00
    1   18   23     -1.03      0.00
    3   18   23      0.67      0.00
    5   18   23      4.32      0.00
    7   18   23      1.15      0.00
    9   18   23     -1.91      0.00
   11   18   23     -2.85      0.00
    0   19   23     -0.14      0.00
    2   19   23     -0.46      0.00
    4   19   23      1.37      0.00
    6   19   23      5.63      0.00
    8   19   23      1.35      0.00
   10   19   23     -4.03      0.00
    1   20   23     -0.88      0.00
    3   20   23      1.59      0.00
    5   20   23      4.61      0.00
    7   20   23      3.55      0.00
    9   20   23     -0.80      0.00
    0   21   23      2.40      0.00
    2   21   23      2.82      0.00
    4   21   23      1.09      0.00
    6   21   23      2.15      0.00
    8   21   23      1.94      0.00
    1   22   23     -1.25      0.00
    3   22   23      1.28      0.00
    5   22   23      1.63      0.00
    7   22   23     -0.63      0.00
    0   23   23      3.59      0.00
    2   23   23      4.53      0.00
    4   23   23     -0.99      0.00
    6   23   23      1.02      0.00
    1   24   23      0.49      0.00
    3   24   23     -1.10      0.00
    0    0   24      0.76      0.00
    2    0   24      4.52      0.00
    4    0   24     -4.31      0.00
    6    0   24      4.05      0.00
    8    0   24      0.35      0.00
   10    0   24     -0.12      0.00
   12    0   24     -5.88      0.00
   14    0   24      5.75      0.00
   16    0   24     -0.72      0.00
    1    1   24     -7.12      0.00
    3    1   24      1.07      0.00
    5    1   24     -4.44      0.00
    7    1   24     -2.89      0.00
    9    1   24     -2.35      0.00
   11    1   24     -3.73      0.00
   13    1   24      5.55      0.00
   15    1   24     -6.01      0.00
   17    1   24     -0.49      0.00
    0    2   24     -6.85      0.00
    2    2   24     -0.50      0.00
    4    2   24     -4.18      0.00
    6    2   24      2.46      0.00
    8    2   24      0.15      0.00
   10    2   24     -0.93      0.00
   12    2   24     -5.63      0.00
   14    2   24     -1.86      0.00
   16    2   24     -4.14      0.00
    1    3   24     -1.28      0.00
    3    3   24      6.42      0.00
    5    3   24      0.12      0.00
    7    3   24     -0.17      0.00
    9    3   24     -1.75      0.00
   11    3   24     -0.72      0.00
   13    3   24      7.37      0.00
   15    3   24     -7.84      0.00
   17    3   24      0.31      0.00
    0    4   24     -5.66      0.00
    2    4   24     -0.40      0.00
    4    4   24      0.52      0.00
    6    4   24      2.06      0.00
    8    4   24      0.51      0.00
   10    4   24      1.01      0.00
   12    4   24      0.06      0.00
   14    4   24      2.06      0.00
   16    4   24     -0.93      0.00
    1    5   24      2.55      0.00
    3    5   24      3.38      0.00
    5    5   24      0.72      0.00
    7    5   24      0.96      0.00
    9    5   24     -2.30      0.00
   11    5   24     -1.32      0.00
   13    5   24     11.64      0.00
   15    5   24      2.92      0.00
   17    5   24      1.47      0.00
    0    6   24      3.08      0.00
    2    6   24      3.39      0.00
    4    6   24      4.33      0.00
    6    6   24      0.52      0.00
    8    6   24     -3.31      0.00
   10    6   24      0.05      0.00
   12    6   24     -1.63      0.00
   14    6   24      2.64      0.00
   16    6   24      2.17      0.00
    1    7   24      5.97      0.00
    3    7   24      2.20      0.00
    5    7   24      3.25      0.00
    7    7   24     -0.67      0.00
    9    7   24      1.76      0.00
   11    7   24      3.02      0.00
   13    7   24      4.94      0.00
   15    7   24      2.47      0.00
   17    7   24      4.96      0.00
    0    8   24     -1.33      0.00
    2    8   24     -3.11      0.00
    4    8   24      4.20      0.00
    6    8   24     -0.80      0.00
    8    8   24     -3.25      0.00
   10    8   24      4.94      0.00
   12    8   24     -0.67      0.00
   14    8   24     -2.37      0.00
   16    8   24      3.36      0.00
    1    9   24      3.30      0.00
    3    9   24      0.73      0.00
    5    9   24      7.24      0.00
    7    9   24     -2.78      0.00
    9    9   24     -1.22      0.00
   11    9   24     -0.53      0.00
   13    9   24      1.98      0.00
   15    9   24      3.25      0.00
    0   10   24     -0.60      0.00
    2   10   24     -9.19      0.00
    4   10   24      1.86      0.00
    6   10   24      3.02      0.00
    8   10   24      0.77      0.00
   10   10   24      0.01      0.00
   12   10   24     -2.80      0.00
   14   10   24      0.53      0.00
   16   10   24      6.13      0.00
    1   11   24     -0.23      0.00
    3   11   24     -0.65      0.00
    5   11   24      2.24      0.00
    7   11   24     -3.04      0.00
    9   11   24     -0.60      0.00
   11   11   24     -2.28      0.00
   13   11   24      4.82      0.00
   15   11   24      1.71      0.00
    0   12   24      6.35      0.00
    2   12   24     -3.51      0.00
    4   12   24      2.50      0.00
    6   12   24     -0.01      0.00
    8   12   24      0.11      0.00
   10   12   24      2.92      0.00
   12   12   24      1.88      0.00
   14   12   24     -2.13      0.00
    1   13   24     -0.54      0.00
    3   13   24      5.84      0.00
    5   13   24      1.49      0.00
    7   13   24     -3.57      0.00
    9   13   24      0.28      0.00
   11   13   24     -2.50      0.00
   13   13   24      1.88      0.00
   15   13   24     -3.86      0.00
    0   14   24      8.77      0.00
    2   14   24      0.42      0.00
    4   14   24      0.92      0.00
    6   14   24     -1.09      0.00
    8   14   24     -1.43      0.00
   10   14   24     -0.31      0.00
   12   14   24      3.89      0.00
   14   14   24      0.31      0.00
    1   15   24      0.39      0.00
    3   15   24      3.39      0.00
    5   15   24     -0.31      0.00
    7   15   24     -3.87      0.00
    9   15   24      2.26      0.00
   11   15   24     -0.39      0.00
   13   15   24      3.32      0.00
    0   16   24      0.52      0.00
    2   16   24     -4.02      0.00
    4   16   24     -9.06      0.00
    6   16   24     -5.02      0.00
    8   16   24      4.41      0.00
   10   16   24      0.40      0.00
   12   16   24      3.17      0.00
    1   17   24     -1.32      0.00
    3   17   24     -1.26      0.00
    5   17   24     -5.10      0.00
    7   17   24     -4.66      0.00
    9   17   24      4.71      0.00
   11   17   24      0.82      0.00
    0   18   24     -1.13      0.00
    2   18   24      5.87      0.00
    4   18   24     -1.66      0.00
    6   18   24     -4.78      0.00
    8   18   24      3.92      0.00
   10   18   24     -0.77      0.00
    1   19   24     -5.78      0.00
    3   19   24     -1.63      0.00
    5   19   24     -4.95      0.00
    7   19   24     -2.25      0.00
    9   19   24      0.87      0.00
   11   19   24     -1.99      0.00
    0   20   24    -10.35      0.00
    2   20   24     -1.09      0.00
    4   20   24     -5.93      0.00
    6   20   24     -8.53      0.00
    8   20   24      2.09      0.00
   10   20   24      1.45      0.00
    1   21   24      1.28      0.00
    3   21   24      1.75      0.00
    5   21   24     -2.06      0.00
    7   21   24      4.81      0.00
    0   22   24      2.58      0.00
    2   22   24      3.91      0.00
    4   22   24      1.45      0.00
    6   22   24     -3.08      0.00
    1   23   24     -1.88      0.00
    3   23   24      2.80      0.00
    5   23   24      0.67      0.00
    0   24   24      2.15      0.00
    2   24   24     -1.34      0.00
    1    0   25      1.99      0.00
    3    0   25      4.98      0.00
    5    0   25     -2.89      0.00
    7    0   25      1.09      0.00
    9    0   25      2.79      0.00
   11    0   25      3.58      0.00
   13    0   25      1.07      0.00
   15    0   25      5.27      0.00
   17    0   25      7.02      0.00
    0    1   25     -2.04      0.00
    2    1   25      2.14      0.00
    4    1   25     -5.13      0.00
    6    1   25      4.68      0.00
    8    1   25     -4.87      0.00
   10    1   25      6.02      0.00
   12    1   25      2.48      0.00
   14    1   25     -3.34      0.00
   16    1   25      1.20      0.00
    1    2   25      1.68      0.00
    3    2   25      0.33      0.00
    5    2   25     -3.41      0.00
    7    2   25      3.28      0.00
    9    2   25      3.05      0.00
   11    2   25      0.35      0.00
   13    2   25     -0.71      0.00
   15    2   25      3.15      0.00
   17    2   25      0.23      0.00
    0    3   25      3.12      0.00
    2    3   25      2.55      0.00
    4    3   25     -1.97      0.00
    6    3   25      5.33      0.00
    8    3   25     -4.54      0.00
   10    3   25      4.33      0.00
   12    3   25      1.64      0.00
   14    3   25      0.35      0.00
   16    3   25      0.98      0.00
    1    4   25     -1.15      0.00
    3    4   25     -1.65      0.00
    5    4   25     -3.58      0.00
    7    4   25     -1.68      0.00
    9    4   25     -0.82      0.00
   11    4   25     -3.45      0.00
   13    4   25     -0.88      0.00
   15    4   25      7.29      0.00
   17    4   25      1.63      0.00
    0    5   25     -3.00      0.00
    2    5   25     -0.20      0.00
    4    5   25      0.70      0.00
    6    5   25     -0.58      0.00
    8    5   25     -4.96      0.00
   10    5   25      3.43      0.00
   12    5   25      1.51      0.00
   14    5   25     -3.83      0.00
   16    5   25      3.00      0.00
    1    6   25      1.14      0.00
    3    6   25      3.50      0.00
    5    6   25      2.28      0.00
    7    6   25     -1.07      0.00
    9    6   25      0.15      0.00
   11    6   25     -1.48      0.00
   13    6   25     -0.15      0.00
   15    6   25      1.60      0.00
    0    7   25     -7.37      0.00
    2    7   25     -2.84      0.00
    4    7   25     -0.89      0.00
    6    7   25      0.59      0.00
    8    7   25     -1.17      0.00
   10    7   25     -5.98      0.00
   12    7   25     -4.63      0.00
   14    7   25    -11.28      0.00
   16    7   25     -2.66      0.00
    1    8   25     -1.10      0.00
    3    8   25     -1.80      0.00
    5    8   25     -3.44      0.00
    7    8   25     -0.25      0.00
    9    8   25     -1.92      0.00
   11    8   25     -4.99      0.00
   13    8   25      1.96      0.00
   15    8   25     -3.08      0.00
    0    9   25      3.70      0.00
    2    9   25      4.87      0.00
    4    9   25     -3.23      0.00
    6    9   25     -2.46      0.00
    8    9   25     -0.64      0.00
   10    9   25     -2.48      0.00
   12    9   25      1.60      0.00
   14    9   25     -5.36      0.00
   16    9   25      1.80      0.00
    1   10   25     -0.56      0.00
    3   10   25      2.58      0.00
    5   10   25     -3.12      0.00
    7   10   25     -1.20      0.00
    9   10   25      0.55      0.00
   11   10   25      3.04      0.00
   13   10   25      5.60      0.00
   15   10   25     -0.60      0.00
    0   11   25      1.11      0.00
    2   11   25      1.60      0.00
    4   11   25     -0.93      0.00
    6   11   25      0.10      0.00
    8   11   25     -1.13      0.00
   10   11   25      0.43      0.00
   12   11   25      1.46      0.00
   14   11   25     -6.11      0.00
    1   12   25     -3.90      0.00
    3   12   25      0.41      0.00
    5   12   25     -1.60      0.00
    7   12   25      1.28      0.00
    9   12   25     -0.89      0.00
   11   12   25      0.42      0.00
   13   12   25      1.48      0.00
   15   12   25      1.33      0.00
    0   13   25      0.03      0.00
    2   13   25     -4.77      0.00
    4   13   25     -3.50      0.00
    6   13   25     -2.03      0.00
    8   13   25     -0.45      0.00
   10   13   25     -1.79      0.00
   12   13   25     -4.31      0.00
   14   13   25     -6.86      0.00
    1   14   25     -0.79      0.00
    3   14   25     -1.09      0.00
    5   14   25     -4.94      0.00
    7   14   25     -1.12      0.00
    9   14   25     -1.83      0.00
   11   14   25     -0.03      0.00
   13   14   25     -3.31      0.00
    0   15   25     -6.34      0.00
    2   15   25     -4.37      0.00
    4   15   25      4.23      0.00
    6   15   25     -0.77      0.00
    8   15   25     -0.73      0.00
   10   15   25      3.29      0.00
   12   15   25      4.27      0.00
    1   16   25      1.16      0.00
    3   16   25      4.85      0.00
    5   16   25      6.24      0.00
    7   16   25      5.05      0.00
    9   16   25     -0.85      0.00
   11   16   25      0.04      0.00
    0   17   25     -0.43      0.00
    2   17   25      2.64      0.00
    4   17   25      8.18      0.00
    6   17   25      3.95      0.00
    8   17   25     -1.95      0.00
   10   17   25     -4.21      0.00
   12   17   25      1.40      0.00
    1   18   25      2.04      0.00
    3   18   25     -2.99      0.00
    5   18   25      0.66      0.00
    7   18   25      1.26      0.00
    9   18   25      6.32      0.00
   11   18   25      3.93      0.00
    0   19   25     -1.75      0.00
    2   19   25     -2.39      0.00
    4   19   25     -2.49      0.00
    6   19   25      0.86      0.00
    8   19   25     -0.92      0.00
   10   19   25     -2.25      0.00
    1   20   25      5.71      0.00
    3   20   25      1.16      0.00
    5   20   25      2.26      0.00
    7   20   25     -5.86      0.00
    9   20   25      3.20      0.00
    0   21   25      6.17      0.00
    2   21   25      6.39      0.00
    4   21   25      2.32      0.00
    6   21   25      5.43      0.00
    1   22   25      0.61      0.00
    3   22   25     -2.25      0.00
    5   22   25     -1.31      0.00
    0   23   25     -3.29      0.00
    2   23   25     -1.15      0.00
    0    0   26     11.53      0.00
    2    0   26     -3.02      0.00
    4    0   26     -0.86      0.00
    6    0   26      4.25      0.00
    8    0   26      3.40      0.00
   10    0   26     -1.63      0.00
   12    0   26     -1.46      0.00
   14    0   26      2.02      0.00
   16    0   26     -6.77      0.00
    1    1   26      0.86      0.00
    3    1   26     -2.50      0.00
    5    1   26      3.22      0.00
    7    1   26     -0.32      0.00
    9    1   26     -0.02      0.00
   11    1   26     -2.54      0.00
   13    1   26     -4.06      0.00
   15    1   26      3.56      0.00
    0    2   26      6.50      0.00
    2    2   26      4.00      0.00
    4    2   26      4.90      0.00
    6    2   26      2.99      0.00
    8    2   26      1.43      0.00
   10    2   26      0.64      0.00
   12    2   26     -0.69      0.00
   14    2   26     -0.31      0.00
   16    2   26     -3.80      0.00
    1    3   26      3.18      0.00
    3    3   26      0.81      0.00
    5    3   26      6.11      0.00
    7    3   26      0.99      0.00
    9    3   26      3.62      0.00
   11    3   26      1.00      0.00
   13    3   26     -0.25      0.00
   15    3   26      2.54      0.00
    0    4   26     -5.82      0.00
    2    4   26      0.65      0.00
    4    4   26     -5.35      0.00
    6    4   26     -2.78      0.00
    8    4   26     -2.36      0.00
   10    4   26      1.54      0.00
   12    4   26     -0.73      0.00
   14    4   26     -6.82      0.00
   16    4   26     -2.84      0.00
    1    5   26     -0.92      0.00
    3    5   26    -11.22      0.00
    5    5   26     -4.41      0.00
    7    5   26     -0.37      0.00
    9    5   26      0.05      0.00
   11    5   26     -2.70      0.00
   13    5   26      3.24      0.00
   15    5   26      2.35      0.00
    0    6   26     -5.40      0.00
    2    6   26      3.83      0.00
    4    6   26     -4.77      0.00
    6    6   26      0.84      0.00
    8    6   26      1.26      0.00
   10    6   26      3.91      0.00
   12    6   26      0.60      0.00
   14    6   26     -3.89      0.00
   16    6   26     -0.14      0.00
    1    7   26     -0.41      0.00
    3    7   26     -1.58      0.00
    5    7   26      2.52      0.00
    7    7   26      5.14      0.00
    9    7   26      4.84      0.00
   11    7   26      2.53      0.00
   13    7   26      7.91      0.00
   15    7   26      7.09      0.00
    0    8   26     -5.36      0.00
    2    8   26      2.14      0.00
    4    8   26     -2.08      0.00
    6    8   26     -0.72      0.00
    8    8   26     -0.78      0.00
   10    8   26      0.87      0.00
   12    8   26     -1.99      0.00
   14    8   26     -5.05      0.00
    1    9   26      4.24      0.00
    3    9   26      4.34      0.00
    5    9   26      1.68      0.00
    7    9   26     -1.89      0.00
    9    9   26     -2.87      0.00
   11    9   26     -1.64      0.00
   13    9   26     -0.62      0.00
   15    9   26     -0.24      0.00
    0   10   26     -4.99      0.00
    2   10   26     -1.20      0.00
    4   10   26     -1.88      0.00
    6   10   26      3.47      0.00
    8   10   26      7.30      0.00
   10   10   26      0.50      0.00
   12   10   26     -4.14      0.00
   14   10   26     -4.74      0.00
    1   11   26      8.38      0.00
    3   11   26      3.22      0.00
    5   11   26      0.24      0.00
    7   11   26      2.32      0.00
    9   11   26      0.37      0.00
   11   11   26      0.14      0.00
   13   11   26      0.82      0.00
    0   12   26      1.14      0.00
    2   12   26      4.98      0.00
    4   12   26     -0.19      0.00
    6   12   26      1.30      0.00
    8   12   26      3.40      0.00
   10   12   26     -0.29      0.00
   12   12   26     -0.94      0.00
   14   12   26      1.76      0.00
    1   13   26     -1.15      0.00
    3   13   26     -2.43      0.00
    5   13   26     -1.87      0.00
    7   13   26      0.99      0.00
    9   13   26     -1.90      0.00
   11   13   26      0.24      0.00
   13   13   26      0.53      0.00
    0   14   26     -9.98      0.00
    2   14   26     -2.75      0.00
    4   14   26     -3.95      0.00
    6   14   26      1.22      0.00
    8   14   26      0.30      0.00
   10   14   26     -2.67      0.00
   12   14   26      0.31      0.00
    1   15   26      2.80      0.00
    3   15   26      2.74      0.00
    5   15   26      0.39      0.00
    7   15   26      1.03      0.00
    9   15   26     -2.45      0.00
   11   15   26     -0.82      0.00
    0   16   26      3.17      0.00
    2   16   26      1.60      0.00
    4   16   26     -3.10      0.00
    6   16   26      2.52      0.00
    8   16   26      1.07      0.00
   10   16   26     -3.73      0.00
   12   16   26     -2.41      0.00
    1   17   26     -0.82      0.00
    3   17   26      2.85      0.00
    5   17   26     -1.07      0.00
    7   17   26      0.22      0.00
    9   17   26      0.70      0.00
   11   17   26      3.28      0.00
    0   18   26      9.73      0.00
    2   18   26      3.34      0.00
    4   18   26      0.44      0.00
    6   18   26      2.11      0.00
    8   18   26     -1.92      0.00
   10   18   26     -2.94      0.00
    1   19   26      1.70      0.00
    3   19   26      4.80      0.00
    5   19   26      0.12      0.00
    7   19   26      1.64      0.00
    9   19   26     -4.25      0.00
    0   20   26      4.11      0.00
    2   20   26     -5.03      0.00
    4   20   26     -4.27      0.00
    6   20   26     -1.84      0.00
    8   20   26     -2.65      0.00
    1   21   26     -6.46      0.00
    3   21   26     -3.85      0.00
    5   21   26     -0.17      0.00
    0   22   26     -1.79      0.00
    2   22   26     -7.26      0.00
    4   22   26      0.50      0.00
    1    0   27      1.68      0.00
    3    0   27      9.97      0.00
    5    0   27      5.71      0.00
    7    0   27     -4.92      0.00
    9    0   27     -3.07      0.00
   11    0   27      1.38      0.00
   13    0   27      5.94      0.00
   15    0   27      1.45      0.00
    0    1   27      1.60      0.00
    2    1   27      0.67      0.00
    4    1   27      0.75      0.00
    6    1   27     -4.21      0.00
    8    1   27    -10.22      0.00
   10    1   27      5.91      0.00
   12    1   27     -4.53      0.00
   14    1   27      2.52      0.00
   16    1   27      2.00      0.00
    1    2   27     -7.36      0.00
    3    2   27     -3.89      0.00
    5    2   27     -1.78      0.00
    7    2   27     -5.29      0.00
    9    2   27     -5.21      0.00
   11    2   27     -3.51      0.00
   13    2   27      2.87      0.00
   15    2   27      0.38      0.00
    0    3   27      1.44      0.00
    2    3   27     -2.90      0.00
    4    3   27     -2.03      0.00
    6    3   27      1.02      0.00
    8    3   27     -4.40      0.00
   10    3   27      3.42      0.00
   12    3   27     -6.14      0.00
   14    3   27     -3.83      0.00
   16    3   27     -3.01      0.00
    1    4   27     -2.57      0.00
    3    4   27      3.35      0.00
    5    4   27      5.05      0.00
    7    4   27      2.33      0.00
    9    4   27      5.11      0.00
   11    4   27     -3.37      0.00
   13    4   27     -2.08      0.00
   15    4   27     -3.70      0.00
    0    5   27      1.87      0.00
    2    5   27      0.81      0.00
    4    5   27      0.59      0.00
    6    5   27      2.22      0.00
    8    5   27      1.47      0.00
   10    5   27      6.85      0.00
   12    5   27      3.31      0.00
   14    5   27     -1.51      0.00
   16    5   27     -3.54      0.00
    1    6   27     -2.42      0.00
    3    6   27     -2.06      0.00
    5    6   27     -2.19      0.00
    7    6   27     -6.82      0.00
    9    6   27     -0.08      0.00
   11    6   27     -2.61      0.00
   13    6   27      0.96      0.00
   15    6   27      2.33      0.00
    0    7   27      2.12      0.00
    2    7   27     -0.23      0.00
    4    7   27     -5.73      0.00
    6    7   27     -3.85      0.00
    8    7   27     -4.22      0.00
   10    7   27     -1.10      0.00
   12    7   27      4.02      0.00
   14    7   27     -1.50      0.00
    1    8   27     -3.77      0.00
    3    8   27     -4.26      0.00
    5    8   27      0.36      0.00
    7    8   27      0.49      0.00
    9    8   27      1.70      0.00
   11    8   27      2.14      0.00
   13    8   27      4.73      0.00
   15    8   27      2.76      0.00
    0    9   27      1.72      0.00
    2    9   27      5.43      0.00
    4    9   27      3.91      0.00
    6    9   27      3.23      0.00
    8    9   27      0.76      0.00
   10    9   27     -0.95      0.00
   12    9   27      3.68      0.00
   14    9   27      1.13      0.00
    1   10   27     -0.50      0.00
    3   10   27      0.23      0.00
    5   10   27      3.40      0.00
    7   10   27      2.89      0.00
    9   10   27     -1.81      0.00
   11   10   27      1.12      0.00
   13   10   27      4.27      0.00
    0   11   27     -4.98      0.00
    2   11   27     -0.54      0.00
    4   11   27     -0.10      0.00
    6   11   27     -2.69      0.00
    8   11   27      0.49      0.00
   10   11   27      1.19      0.00
   12   11   27      1.79      0.00
   14   11   27      1.99      0.00
    1   12   27     -2.23      0.00
    3   12   27     -1.63      0.00
    5   12   27      1.21      0.00
    7   12   27      0.83      0.00
    9   12   27      1.59      0.00
   11   12   27      5.11      0.00
   13   12   27      4.61      0.00
    0   13   27     -4.48      0.00
    2   13   27     -1.48      0.00
    4   13   27      1.79      0.00
    6   13   27     -0.99      0.00
    8   13   27      1.81      0.00
   10   13   27     -1.90      0.00
   12   13   27     -5.02      0.00
    1   14   27      2.63      0.00
    3   14   27     -3.45      0.00
    5   14   27     -1.95      0.00
    7   14   27     -3.92      0.00
    9   14   27     -0.80      0.00
   11   14   27     -1.39      0.00
    0   15   27      0.81      0.00
    2   15   27     -0.28      0.00
    4   15   27      0.54      0.00
    6   15   27     -1.35      0.00
    8   15   27      2.41      0.00
   10   15   27      3.15      0.00
   12   15   27     -1.41      0.00
    1   16   27     -1.56      0.00
    3   16   27     -3.31      0.00
    5   16   27      0.35      0.00
    7   16   27     -0.98      0.00
    9   16   27      3.66      0.00
   11   16   27      2.19      0.00
    0   17   27      1.08      0.00
    2   17   27     -0.63      0.00
    4   17   27      1.09      0.00
    6   17   27      0.62      0.00
    8   17   27     -0.68      0.00
   10   17   27     -1.37      0.00
    1   18   27     -0.53      0.00
    3   18   27      1.25      0.00
    5   18   27      2.53      0.00
    7   18   27     -0.63      0.00
    9   18   27      2.30      0.00
    0   19   27     -1.77      0.00
    2   19   27     -3.52      0.00
    4   19   27     -0.90      0.00
    6   19   27      2.45      0.00
    8   19   27      0.34      0.00
    1   20   27     -2.71      0.00
    3   20   27      1.29      0.00
    5   20   27     -2.52      0.00
    7   20   27     -4.18      0.00
    0   21   27     -0.58      0.00
    2   21   27      0.73      0.00
    4   21   27     -1.24      0.00
    1   22   27     -1.71      0.00
    0    0   28     -6.53      0.00
    2    0   28    -10.94      0.00
    4    0   28     -3.45      0.00
    6    0   28      6.66      0.00
    8    0   28      0.00      0.00
   10    0   28     -2.54      0.00
   12    0   28      4.48      0.00
   14    0   28     -0.81      0.00
    1    1   28     -2.46      0.00
    3    1   28      2.08      0.00
    5    1   28     -9.45      0.00
    7    1   28      3.65      0.00
    9    1   28     10.17      0.00
   11    1   28     -4.10      0.00
   13    1   28     -0.42      0.00
   15    1   28     -0.99      0.00
    0    2   28     -1.85      0.00
    2    2   28     -2.62      0.00
    4    2   28     -0.41      0.00
    6    2   28      0.55      0.00
    8    2   28     -0.12      0.00
   10    2   28     -3.20      0.00
   12    2   28      2.08      0.00
   14    2   28     -3.10      0.00
    1    3   28      5.41      0.00
    3    3   28      5.95      0.00
    5    3   28     -0.42      0.00
    7    3   28      6.25      0.00
    9    3   28      6.23      0.00
   11    3   28     -1.17      0.00
   13    3   28      3.54      0.00
   15    3   28      1.83      0.00
    0    4   28      2.33      0.00
    2    4   28      4.18      0.00
    4    4   28      6.12      0.00
    6    4   28      1.22      0.00
    8    4   28      1.06      0.00
   10    4   28     -5.78      0.00
   12    4   28     -1.35      0.00
   14    4   28      0.23      0.00
    1    5   28      3.76      0.00
    3    5   28     -2.17      0.00
    5    5   28      2.75      0.00
    7    5   28      4.71      0.00
    9    5   28     -2.31      0.00
   11    5   28     -3.06      0.00
   13    5   28      2.22      0.00
   15    5   28      2.94      0.00
    0    6   28     -3.33      0.00
    2    6   28      1.36      0.00
    4    6   28      4.62      0.00
    6    6   28     -1.84      0.00
    8    6   28      1.65      0.00
   10    6   28     -1.19      0.00
   12    6   28     -3.47      0.00
   14    6   28      1.10      0.00
    1    7   28      0.96      0.00
    3    7   28     -2.35      0.00
    5    7   28      4.10      0.00
    7    7   28      1.65      0.00
    9    7   28      0.21      0.00
   11    7   28     -1.66      0.00
   13    7   28      2.83      0.00
   15    7   28      4.52      0.00
    0    8   28     -0.17      0.00
    2    8   28      0.96      0.00
    4    8   28      0.72      0.00
    6    8   28     -1.85      0.00
    8    8   28      1.46      0.00
   10    8   28      1.67      0.00
   12    8   28     -5.53      0.00
   14    8   28      4.04      0.00
    1    9   28      6.97      0.00
    3    9   28     -1.37      0.00
    5    9   28      0.37      0.00
    7    9   28     -4.40      0.00
    9    9   28      3.85      0.00
   11    9   28     -2.00      0.00
   13    9   28     -3.84      0.00
    0   10   28     -2.99      0.00
    2   10   28     -4.12      0.00
    4   10   28     -2.47      0.00
    6   10   28     -0.56      0.00
    8   10   28     -1.96      0.00
   10   10   28      2.54      0.00
   12   10   28     -6.01      0.00
   14   10   28      0.71      0.00
    1   11   28      2.16      0.00
    3   11   28     -1.52      0.00
    5   11   28     -0.50      0.00
    7   11   28     -7.01      0.00
    9   11   28     -3.18      0.00
   11   11   28     -3.91      0.00
   13   11   28     -3.36      0.00
    0   12   28      0.94      0.00
    2   12   28     -0.78      0.00
    4   12   28      3.02      0.00
    6   12   28      2.92      0.00
    8   12   28     -4.26      0.00
   10   12   28      1.12      0.00
   12   12   28     -1.48      0.00
    1   13   28      6.12      0.00
    3   13   28      3.39      0.00
    5   13   28      1.74      0.00
    7   13   28      1.86      0.00
    9   13   28     -1.87      0.00
   11   13   28      1.98      0.00
    0   14   28      6.11      0.00
    2   14   28      0.21      0.00
    4   14   28      0.80      0.00
    6   14   28      0.19      0.00
    8   14   28     -0.48      0.00
   10   14   28      3.99      0.00
   12   14   28     -0.25      0.00
    1   15   28      0.77      0.00
    3   15   28      0.16      0.00
    5   15   28     -3.48      0.00
    7   15   28     -0.29      0.00
    9   15   28     -4.66      0.00
   11   15   28      1.92      0.00
    0   16   28      9.47      0.00
    2   16   28      0.97      0.00
    4   16   28     -1.89      0.00
    6   16   28     -0.28      0.00
    8   16   28      0.97      0.00
   10   16   28      0.05      0.00
    1   17   28     -4.58      0.00
    3   17   28     -1.31      0.00
    5   17   28     -2.32      0.00
    7   17   28     -0.44      0.00
    9   17   28     -0.90      0.00
    0   18   28     -1.63      0.00
    2   18   28     -4.08      0.00
    4   18   28     -4.72      0.00
    6   18   28     -0.57      0.00
    8   18   28      2.25      0.00
    1   19   28     -8.12      0.00
    3   19   28     -1.07      0.00
    5   19   28      0.49      0.00
    7   19   28     -0.98      0.00
    0   20   28     -0.22      0.00
    2   20   28     -1.63      0.00
    4   20   28     -1.06      0.00
    6   20   28      0.60      0.00
    1   21   28      3.09      0.00
    3   21   28      2.39      0.00
    1    0   29     -5.97      0.00
    3    0   29     -5.40      0.00
    5    0   29      2.68      0.00
    7    0   29      1.37      0.00
    9    0   29      3.66      0.00
   11    0   29      0.23      0.00
   13    0   29      8.66      0.00
   15    0   29     -3.63      0.00
    0    1   29     -1.36      0.00
    2    1   29     -4.28      0.00
    4    1   29     -2.50      0.00
    6    1   29     -7.83      0.00
    8    1   29      8.31      0.00
   10    1   29     -5.99      0.00
   12    1   29      5.94      0.00
   14    1   29     -4.44      0.00
    1    2   29      2.07      0.00
    3    2   29      1.76      0.00
    5    2   29      5.86      0.00
    7    2   29     -3.00      0.00
    9    2   29     -2.24      0.00
   11    2   29     -2.75      0.00
   13    2   29      6.97      0.00
   15    2   29      1.19      0.00
    0    3   29      4.93      0.00
    2    3   29      0.98      0.00
    4    3   29      2.32      0.00
    6    3   29     -4.85      0.00
    8    3   29      0.10      0.00
   10    3   29     -5.07      0.00
   12    3   29      3.50      0.00
   14    3   29     -0.01      0.00
    1    4   29     -0.39      0.00
    3    4   29      1.54      0.00
    5    4   29      1.22      0.00
    7    4   29     -4.81      0.00
    9    4   29      2.45      0.00
   11    4   29      2.52      0.00
   13    4   29      7.15      0.00
   15    4   29      5.27      0.00
    0    5   29      4.25      0.00
    2    5   29      0.38      0.00
    4    5   29     -0.63      0.00
    6    5   29     -2.86      0.00
    8    5   29     -2.90      0.00
   10    5   29     -1.02      0.00
   12    5   29      4.38      0.00
   14    5   29      5.48      0.00
    1    6   29     -1.35      0.00
    3    6   29      3.32      0.00
    5    6   29     -1.19      0.00
    7    6   29     -7.06      0.00
    9    6   29     -2.97      0.00
   11    6   29     -5.12      0.00
   13    6   29     -6.71      0.00
    0    7   29      2.70      0.00
    2    7   29     -0.71      0.00
    4    7   29     -0.15      0.00
    6    7   29      2.22      0.00
    8    7   29     -3.30      0.00
   10    7   29      0.29      0.00
   12    7   29     -0.80      0.00
   14    7   29     -1.34      0.00
    1    8   29     -8.30      0.00
    3    8   29      1.93      0.00
    5    8   29      0.47      0.00
    7    8   29      2.21      0.00
    9    8   29      0.64      0.00
   11    8   29      2.13      0.00
   13    8   29     -4.47      0.00
    0    9   29     -1.96      0.00
    2    9   29     -1.52      0.00
    4    9   29      2.06      0.00
    6    9   29      3.98      0.00
    8    9   29     -2.36      0.00
   10    9   29     -0.25      0.00
   12    9   29     -0.18      0.00
    1   10   29     -3.09      0.00
    3   10   29      2.19      0.00
    5   10   29     -3.56      0.00
    7   10   29      3.08      0.00
    9   10   29     -5.35      0.00
   11   10   29     -0.55      0.00
   13   10   29     -4.24      0.00
    0   11   29      0.44      0.00
    2   11   29     -0.24      0.00
    4   11   29     -5.02      0.00
    6   11   29     -4.67      0.00
    8   11   29     -1.50      0.00
   10   11   29     -0.24      0.00
   12   11   29      0.37      0.00
    1   12   29     -3.20      0.00
    3   12   29     -1.20      0.00
    5   12   29     -4.45      0.00
    7   12   29      1.98      0.00
    9   12   29     -1.14      0.00
   11   12   29      4.91      0.00
    0   13   29     -5.23      0.00
    2   13   29      2.34      0.00
    4   13   29      1.38      0.00
    6   13   29      3.49      0.00
    8   13   29      4.18      0.00
   10   13   29     -1.58      0.00
    1   14   29     -2.34      0.00
    3   14   29      1.25      0.00
    5   14   29      4.02      0.00
    7   14   29      2.32      0.00
    9   14   29     -0.36      0.00
   11   14   29      2.79      0.00
    0   15   29     -0.10      0.00
    2   15   29      9.44      0.00
    4   15   29      5.37      0.00
    6   15   29      5.54      0.00
    8   15   29      2.46      0.00
   10   15   29     -2.90      0.00
    1   16   29     -7.51      0.00
    3   16   29     -2.67      0.00
    5   16   29     -0.69      0.00
    7   16   29     -5.99      0.00
    9   16   29     -4.69      0.00
    0   17   29     -3.46      0.00
    2   17   29     -0.36      0.00
    4   17   29     -2.53      0.00
    6   17   29      0.87      0.00
    8   17   29      0.60      0.00
    1   18   29      4.85      0.00
    3   18   29      4.41      0.00
    5   18   29      1.77      0.00
    7   18   29     -1.40      0.00
    0   19   29     10.76      0.00
    2   19   29      4.43      0.00
    4   19   29      3.26      0.00
    6   19   29      5.50      0.00
    1   20   29      3.40      0.00
    3   20   29      3.58      0.00
    0    0   30      5.49      0.00
    2    0   30      3.80      0.00
    4    0   30      4.29      0.00
    6    0   30      4.26      0.00
    8    0   30    -10.66      0.00
   10    0   30     -4.44      0.00
   12    0   30     -7.43      0.00
   14    0   30     -3.97      0.00
    1    1   30      9.57      0.00
    3    1   30      3.30      0.00
    5    1   30      1.76      0.00
    7    1   30     -3.65      0.00
    9    1   30      7.59      0.00
   11    1   30      0.16      0.00
   13    1   30     -4.52      0.00
    0    2   30     -4.46      0.00
    2    2   30     -5.52      0.00
    4    2   30     -5.45      0.00
    6    2   30      2.90      0.00
    8    2   30     -0.64      0.00
   10    2   30      1.73      0.00
   12    2   30     -0.78      0.00
   14    2   30     -1.89      0.00
    1    3   30     -1.24      0.00
    3    3   30     -0.92      0.00
    5    3   30      0.84      0.00
    7    3   30      0.90      0.00
    9    3   30     10.21      0.00
   11    3   30      3.94      0.00
   13    3   30     -3.14      0.00
    0    4   30     -4.09      0.00
    2    4   30     -2.24      0.00
    4    4   30     -3.91      0.00
    6    4   30     -1.02      0.00
    8    4   30      0.92      0.00
   10    4   30     -1.12      0.00
   12    4   30     -3.50      0.00
   14    4   30     -8.63      0.00
    1    5   30      1.71      0.00
    3    5   30      3.32      0.00
    5    5   30     -0.06      0.00
    7    5   30      0.13      0.00
    9    5   30      2.89      0.00
   11    5   30      1.87      0.00
   13    5   30     -3.64      0.00
    0    6   30     -3.67      0.00
    2    6   30     -1.45      0.00
    4    6   30     -0.58      0.00
    6    6   30     -0.63      0.00
    8    6   30      5.76      0.00
   10    6   30      0.03      0.00
   12    6   30      0.42      0.00
   14    6   30     -6.91      0.00
    1    7   30      0.99      0.00
    3    7   30     -0.36      0.00
    5    7   30     -4.61      0.00
    7    7   30      5.14      0.00
    9    7   30      0.80      0.00
   11    7   30      0.17      0.00
   13    7   30     -1.39      0.00
    0    8   30      0.83      0.00
    2    8   30      0.29      0.00
    4    8   30     -0.52      0.00
    6    8   30     -5.53      0.00
    8    8   30      3.03      0.00
   10    8   30     -1.67      0.00
   12    8   30      4.77      0.00
    1    9   30      6.39      0.00
    3    9   30      0.76      0.00
    5    9   30     -4.93      0.00
    7    9   30      2.81      0.00
    9    9   30      1.59      0.00
   11    9   30      3.46      0.00
   13    9   30      2.89      0.00
    0   10   30     -2.60      0.00
    2   10   30      0.37      0.00
    4   10   30      6.80      0.00
    6   10   30      1.24      0.00
    8   10   30      5.07      0.00
   10   10   30     -1.06      0.00
   12   10   30      4.72      0.00
    1   11   30     -1.21      0.00
    3   11   30     -3.69      0.00
    5   11   30      1.06      0.00
    7   11   30      4.15      0.00
    9   11   30      3.29      0.00
   11   11   30     -0.58      0.00
    0   12   30     -5.32      0.00
    2   12   30     -3.33      0.00
    4   12   30      1.02      0.00
    6   12   30     -4.32      0.00
    8   12   30      3.56      0.00
   10   12   30      2.06      0.00
    1   13   30      3.43      0.00
    3   13   30     -1.61      0.00
    5   13   30      2.21      0.00
    7   13   30     -2.53      0.00
    9   13   30      2.38      0.00
   11   13   30      1.43      0.00
    0   14   30      1.56      0.00
    2   14   30     -0.41      0.00
    4   14   30      1.78      0.00
    6   14   30     -5.57      0.00
    8   14   30      2.88      0.00
   10   14   30      2.23      0.00
    1   15   30     -5.04      0.00
    3   15   30     -4.87      0.00
    5   15   30      3.56      0.00
    7   15   30     -2.51      0.00
    9   15   30      0.58      0.00
    0   16   30      5.22      0.00
    2   16   30     -0.25      0.00
    4   16   30      0.61      0.00
    6   16   30     -4.06      0.00
    8   16   30      3.27      0.00
    1   17   30      0.58      0.00
    3   17   30     -0.39      0.00
    5   17   30      1.57      0.00
    7   17   30     -3.88      0.00
    0   18   30      3.39      0.00
    2   18   30      2.07      0.00
    4   18   30      1.62      0.00
    6   18   30     -2.22      0.00
    1   19   30     -1.18      0.00
    3   19   30      1.53      0.00
    1    0   31     -3.61      0.00
    3    0   31      2.93      0.00
    5    0   31      6.26      0.00
    7    0   31     -3.72      0.00
    9    0   31     -7.19      0.00
   11    0   31      2.77      0.00
   13    0   31     -2.55      0.00
    0    1   31      2.01      0.00
    2    1   31      3.98      0.00
    4    1   31     -3.30      0.00
    6    1   31      1.68      0.00
    8    1   31     -0.73      0.00
   10    1   31     -5.10      0.00
   12    1   31     -1.26      0.00
   14    1   31     -1.96      0.00
    1    2   31      0.88      0.00
    3    2   31      4.28      0.00
    5    2   31      5.01      0.00
    7    2   31     -2.20      0.00
    9    2   31     -7.03      0.00
   11    2   31      2.57      0.00
   13    2   31     -2.68      0.00
    0    3   31      3.48      0.00
    2    3   31      2.67      0.00
    4    3   31     -0.64      0.00
    6    3   31      2.43      0.00
    8    3   31     -2.68      0.00
   10    3   31     -5.05      0.00
   12    3   31     -1.31      0.00
    1    4   31     -3.35      0.00
    3    4   31     -3.68      0.00
    5    4   31     -0.65      0.00
    7    4   31      3.99      0.00
    9    4   31     -3.68      0.00
   11    4   31      5.53      0.00
   13    4   31      1.96      0.00
    0    5   31     -1.71      0.00
    2    5   31     -6.30      0.00
    4    5   31     -2.42      0.00
    6    5   31      3.66      0.00
    8    5   31      1.38      0.00
   10    5   31     -1.43      0.00
   12    5   31      2.38      0.00
    1    6   31     -1.59      0.00
    3    6   31     -2.60      0.00
    5    6   31     -2.62      0.00
    7    6   31      0.14      0.00
    9    6   31     -4.37      0.00
   11    6   31      4.92      0.00
   13    6   31     -0.93      0.00
    0    7   31      3.16      0.00
    2    7   31     -3.68      0.00
    4    7   31      2.68      0.00
    6    7   31      0.19      0.00
    8    7   31     -0.94      0.00
   10    7   31      1.81      0.00
   12    7   31      6.03      0.00
    1    8   31      2.86      0.00
    3    8   31      1.80      0.00
    5    8   31      2.69      0.00
    7    8   31     -0.80      0.00
    9    8   31     -1.64      0.00
   11    8   31      3.97      0.00
    0    9   31      4.22      0.00
    2    9   31     -4.37      0.00
    4    9   31      1.35      0.00
    6    9   31     -1.22      0.00
    8    9   31     -1.02      0.00
   10    9   31     -1.05      0.00
   12    9   31     -1.29      0.00
    1   10   31      3.67      0.00
    3   10   31      2.06      0.00
    5   10   31      4.35      0.00
    7   10   31     -3.56      0.00
    9   10   31     -1.78      0.00
   11   10   31     -2.46      0.00
    0   11   31     12.50      0.00
    2   11   31      2.99      0.00
    4   11   31      2.29      0.00
    6   11   31     -0.06      0.00
    8   11   31     -2.14      0.00
   10   11   31     -2.59      0.00
    1   12   31      0.23      0.00
    3   12   31     -0.30      0.00
    5   12   31      3.73      0.00
    7   12   31     -2.53      0.00
    9   12   31      0.22      0.00
    0   13   31      6.48      0.00
    2   13   31     -0.94      0.00
    4   13   31     -5.76      0.00
    6   13   31     -0.97      0.00
    8   13   31     -2.97      0.00
   10   13   31     -5.95      0.00
    1   14   31     -3.81      0.00
    3   14   31     -3.08      0.00
    5   14   31     -2.52      0.00
    7   14   31     -2.49      0.00
    9   14   31      0.04      0.00
    0   15   31      0.61      0.00
    2   15   31      2.55      0.00
    4   15   31      0.87      0.00
    6   15   31      4.73      0.00
    8   15   31     -0.61      0.00
    1   16   31     -5.29      0.00
    3   16   31      0.05      0.00
    5   16   31     -1.75      0.00
    7   16   31      0.30      0.00
    0   17   31     -4.20      0.00
    2   17   31     -0.84      0.00
    4   17   31     -2.10      0.00
    6   17   31      2.26      0.00
    1   18   31      0.13      0.00
    3   18   31     -0.57      0.00
    0   19   31     -1.54      0.00
    0    0   32     -5.70      0.00
    2    0   32      2.43      0.00
    4    0   32     -3.58      0.00
    6    0   32      2.01      0.00
    8    0   32      3.27      0.00
   10    0   32     -0.07      0.00
   12    0   32      2.52      0.00
    1    1   32     -2.12      0.00
    3    1   32     -4.35      0.00
    5    1   32     -1.73      0.00
    7    1   32      3.23      0.00
    9    1   32      4.18      0.00
   11    1   32      7.28      0.00
   13    1   32      6.10      0.00
    0    2   32     -6.01      0.00
    2    2   32     -2.33      0.00
    4    2   32     -5.28      0.00
    6    2   32     -1.41      0.00
    8    2   32      2.05      0.00
   10    2   32      1.02      0.00
   12    2   32      5.04      0.00
    1    3   32     -0.57      0.00
    3    3   32      1.18      0.00
    5    3   32      0.71      0.00
    7    3   32     -2.74      0.00
    9    3   32      0.73      0.00
   11    3   32      3.46      0.00
   13    3   32      1.51      0.00
    0    4   32      1.01      0.00
    2    4   32     -3.69      0.00
    4    4   32     -3.24      0.00
    6    4   32     -4.16      0.00
    8    4   32      0.75      0.00
   10    4   32     -1.01      0.00
   12    4   32     -2.84      0.00
    1    5   32      5.82      0.00
    3    5   32      7.21      0.00
    5    5   32      5.99      0.00
    7    5   32     -4.16      0.00
    9    5   32     -1.33      0.00
   11    5   32     -0.50      0.00
    0    6   32      3.23      0.00
    2    6   32     -1.72      0.00
    4    6   32      2.52      0.00
    6    6   32     -0.53      0.00
    8    6   32      2.36      0.00
   10    6   32     -0.58      0.00
   12    6   32     -6.81      0.00
    1    7   32     -0.28      0.00
    3    7   32     -0.11      0.00
    5    7   32      5.01      0.00
    7    7   32     -0.39      0.00
    9    7   32     -0.54      0.00
   11    7   32     -4.31      0.00
    0    8   32     -2.01      0.00
    2    8   32     -1.97      0.00
    4    8   32      1.76      0.00
    6    8   32     -2.77      0.00
    8    8   32      0.69      0.00
   10    8   32      0.40      0.00
    1    9   32     -5.90      0.00
    3    9   32     -2.59      0.00
    5    9   32      1.36      0.00
    7    9   32     -2.30      0.00
    9    9   32     -1.50      0.00
   11    9   32      1.08      0.00
    0   10   32     -7.21      0.00
    2   10   32     -2.54      0.00
    4   10   32      2.03      0.00
    6   10   32     -4.70      0.00
    8   10   32     -0.49      0.00
   10   10   32      1.57      0.00
    1   11   32     -2.74      0.00
    3   11   32     -0.16      0.00
    5   11   32     -1.78      0.00
    7   11   32      0.67      0.00
    9   11   32     -1.06      0.00
    0   12   32     -3.88      0.00
    2   12   32     -0.78      0.00
    4   12   32      2.50      0.00
    6   12   32     -4.88      0.00
    8   12   32     -0.92      0.00
   10   12   32      1.18      0.00
    1   13   32     -1.28      0.00
    3   13   32      4.86      0.00
    5   13   32      2.46      0.00
    7   13   32      5.01      0.00
    9   13   32      0.08      0.00
    0   14   32      2.19      0.00
    2   14   32      0.37      0.00
    4   14   32     -0.78      0.00
    6   14   32     -3.11      0.00
    8   14   32      2.21      0.00
    1   15   32      6.85      0.00
    3   15   32      3.90      0.00
    5   15   32     -1.54      0.00
    7   15   32      1.82      0.00
    0   16   32      5.48      0.00
    2   16   32      2.81      0.00
    4   16   32     -2.55      0.00
    6   16   32     -2.35      0.00
    1   17   32     -1.19      0.00
    3   17   32     -0.30      0.00
    0   18   32     -4.11      0.00
    1    0   33     -6.64      0.00
    3    0   33     11.67      0.00
    5    0   33      4.18      0.00
    7    0   33     -1.36      0.00
    9    0   33     -0.43      0.00
   11    0   33      2.16      0.00
    0    1   33     10.82      0.00
    2    1   33     -1.62      0.00
    4    1   33      3.90      0.00
    6    1   33     -3.07      0.00
    8    1   33      6.42      0.00
   10    1   33     -0.05      0.00
   12    1   33     -2.63      0.00
    1    2   33     -4.88      0.00
    3    2   33      4.75      0.00
    5    2   33     -2.22      0.00
    7    2   33     -1.19      0.00
    9    2   33     -2.50      0.00
   11    2   33     -2.60      0.00
    0    3   33      7.53      0.00
    2    3   33     -1.22      0.00
    4    3   33     -0.34      0.00
    6    3   33     -3.74      0.00
    8    3   33     -0.84      0.00
   10    3   33     -4.60      0.00
   12    3   33     -4.69      0.00
    1    4   33     -5.41      0.00
    3    4   33      0.48      0.00
    5    4   33     -3.99      0.00
    7    4   33      0.53      0.00
    9    4   33     -2.51      0.00
   11    4   33     -0.97      0.00
    0    5   33      2.07      0.00
    2    5   33     -0.28      0.00
    4    5   33      0.14      0.00
    6    5   33      1.21      0.00
    8    5   33      0.55      0.00
   10    5   33      1.21      0.00
   12    5   33      0.51      0.00
    1    6   33      3.26      0.00
    3    6   33      1.75      0.00
    5    6   33     -2.89      0.00
    7    6   33      2.47      0.00
    9    6   33     -2.01      0.00
   11    6   33      1.13      0.00
    0    7   33      2.83      0.00
    2    7   33      2.84      0.00
    4    7   33      1.78      0.00
    6    7   33      3.13      0.00
    8    7   33     -0.21      0.00
   10    7   33      1.58      0.00
    1    8   33     10.10      0.00
    3    8   33      0.73      0.00
    5    8   33     -1.43      0.00
    7    8   33      6.04      0.00
    9    8   33     -2.31      0.00
   11    8   33      0.22      0.00
    0    9   33      4.36      0.00
    2    9   33      1.01      0.00
    4    9   33     -6.05      0.00
    6    9   33     -0.60      0.00
    8    9   33     -0.72      0.00
   10    9   33      0.54      0.00
    1   10   33      5.70      0.00
    3   10   33     -3.24      0.00
    5   10   33     -0.57      0.00
    7   10   33      7.97      0.00
    9   10   33     -0.39      0.00
    0   11   33      2.68      0.00
    2   11   33      1.75      0.00
    4   11   33     -2.99      0.00
    6   11   33      4.64      0.00
    8   11   33     -0.14      0.00
    1   12   33     -3.35      0.00
    3   12   33     -1.98      0.00
    5   12   33      1.15      0.00
    7   12   33      2.62      0.00
    0   13   33      2.20      0.00
    2   13   33      0.48      0.00
    4   13   33     -4.24      0.00
    6   13   33      1.30      0.00
    8   13   33     -6.22      0.00
    1   14   33     -0.63      0.00
    3   14   33      1.64      0.00
    5   14   33      2.22      0.00
    7   14   33      0.40      0.00
    0   15   33      1.37      0.00
    2   15   33     -1.08      0.00
    4   15   33      0.99      0.00
    1   16   33      1.16      0.00
    3   16   33     -0.78      0.00
    0   17   33      1.35      0.00
    0    0   34      6.32      0.00
    2    0   34      2.12      0.00
    4    0   34     -1.81      0.00
    6    0   34     -0.77      0.00
    8    0   34      1.44      0.00
   10    0   34     -4.40      0.00
    1    1   34      3.76      0.00
    3    1   34     -7.67      0.00
    5    1   34      1.85      0.00
    7    1   34      2.95      0.00
    9    1   34     -2.94      0.00
   11    1   34     -0.26      0.00
    0    2   34     -0.66      0.00
    2    2   34      0.18      0.00
    4    2   34      1.38      0.00
    6    2   34     -1.36      0.00
    8    2   34     -0.08      0.00
   10    2   34     -1.77      0.00
    1    3   34      5.98      0.00
    3    3   34      2.86      0.00
    5    3   34      4.18      0.00
    7    3   34      1.77      0.00
    9    3   34     -0.90      0.00
   11    3   34      3.07      0.00
    0    4   34     -3.80      0.00
    2    4   34     -1.65      0.00
    4    4   34      0.19      0.00
    6    4   34     -0.06      0.00
    8    4   34      4.66      0.00
   10    4   34      3.44      0.00
    1    5   34      0.93      0.00
    3    5   34      0.71      0.00
    5    5   34      0.62      0.00
    7    5   34      3.72      0.00
    9    5   34      1.05      0.00
   11    5   34      1.76      0.00
    0    6   34     -7.71      0.00
    2    6   34     -1.84      0.00
    4    6   34     -3.67      0.00
    6    6   34     -6.21      0.00
    8    6   34     -2.58      0.00
   10    6   34     -2.58      0.00
    1    7   34     -4.80      0.00
    3    7   34      0.61      0.00
    5    7   34     -0.02      0.00
    7    7   34     -0.70      0.00
    9    7   34     -1.26      0.00
    0    8   34     -6.44      0.00
    2    8   34      4.02      0.00
    4    8   34      1.06      0.00
    6    8   34      0.25      0.00
    8    8   34      2.94      0.00
   10    8   34      2.84      0.00
    1    9   34    -12.35      0.00
    3    9   34     -1.91      0.00
    5    9   34      2.18      0.00
    7    9   34     -2.09      0.00
    9    9   34      1.03      0.00
    0   10   34     -8.29      0.00
    2   10   34     -1.29      0.00
    4   10   34     -7.28      0.00
    6   10   34     -4.25      0.00
    8   10   34     -1.02      0.00
    1   11   34     -1.93      0.00
    3   11   34     -0.46      0.00
    5   11   34     -0.12      0.00
    7   11   34     -3.75      0.00
    0   12   34      1.99      0.00
    2   12   34      3.35      0.00
    4   12   34     -2.08      0.00
    6   12   34      1.03      0.00
    1   13   34     -0.80      0.00
    3   13   34      2.24      0.00
    5   13   34      3.45      0.00
    0   14   34     -1.59      0.00
    2   14   34     -1.69      0.00
    4   14   34     -2.23      0.00
    1   15   34     -0.88      0.00
    3   15   34      4.47      0.00
    1    0   35     -1.59      0.00
    3    0   35      6.99      0.00
    5    0   35     -0.59      0.00
    7    0   35     -1.88      0.00
    9    0   35     -1.11      0.00
    0    1   35      0.78      0.00
    2    1   35      2.93      0.00
    4    1   35     -4.00      0.00
    6    1   35     -0.96      0.00
    8    1   35     -2.70      0.00
   10    1   35      4.15      0.00
    1    2   35     -4.29      0.00
    3    2   35      2.19      0.00
    5    2   35      1.68      0.00
    7    2   35      3.31      0.00
    9    2   35      1.06      0.00
    0    3   35     -1.88      0.00
    2    3   35     -1.15      0.00
    4    3   35     -4.40      0.00
    6    3   35      0.45      0.00
    8    3   35     -0.89      0.00
   10    3   35      2.19      0.00
    1    4   35     -5.63      0.00
    3    4   35     -1.75      0.00
    5    4   35      0.99      0.00
    7    4   35     -0.29      0.00
    9    4   35     -1.06      0.00
    0    5   35      2.85      0.00
    2    5   35      4.33      0.00
    4    5   35     -1.35      0.00
    6    5   35     -1.97      0.00
    8    5   35     -1.10      0.00
   10    5   35      2.43      0.00
    1    6   35      2.24      0.00
    3    6   35      0.41      0.00
    5    6   35      1.79      0.00
    7    6   35     -2.89      0.00
    9    6   35     -1.01      0.00
    0    7   35     -0.36      0.00
    2    7   35      2.66      0.00
    4    7   35     -2.70      0.00
    6    7   35     -0.14      0.00
    8    7   35      3.15      0.00
    1    8   35      2.57      0.00
    3    8   35     -1.54      0.00
    5    8   35      3.88      0.00
    7    8   35      1.26      0.00
    0    9   35     -0.89      0.00
    2    9   35      6.46      0.00
    4    9   35      2.12      0.00
    6    9   35     -1.83      0.00
    8    9   35     -0.73      0.00
    1   10   35      0.72      0.00
    3   10   35      3.07      0.00
    5   10   35      6.09      0.00
    7   10   35      2.87      0.00
    0   11   35     -0.43      0.00
    2   11   35      5.49      0.00
    4   11   35      1.68      0.00
    6   11   35     -2.23      0.00
    1   12   35     -1.15      0.00
    3   12   35      0.92      0.00
    5   12   35     -1.52      0.00
    0   13   35      1.36      0.00
    2   13   35      2.43      0.00
    4   13   35     -1.25      0.00
    1   14   35     -0.69      0.00
    0    0   36     -3.97      0.00
    2    0   36     -7.21      0.00
    4    0   36      1.15      0.00
    6    0   36     -5.27      0.00
    8    0   36     -4.41      0.00
    1    1   36     -4.41      0.00
    3    1   36     -3.11      0.00
    5    1   36      0.94      0.00
    7    1   36      3.15      0.00
    9    1   36     -0.90      0.00
    0    2   36     -2.19      0.00
    2    2   36     -3.37      0.00
    4    2   36     -0.30      0.00
    6    2   36     -2.28      0.00
    8    2   36     -1.42      0.00
    1    3   36      4.98      0.00
    3    3   36      2.34      0.00
    5    3   36      0.45      0.00
    7    3   36      2.91      0.00
    9    3   36      0.02      0.00
    0    4   36     -0.52      0.00
    2    4   36      2.57      0.00
    4    4   36      0.60      0.00
    6    4   36      1.67      0.00
    8    4   36     -2.78      0.00
    1    5   36      2.51      0.00
    3    5   36     -1.27      0.00
    5    5   36      0.21      0.00
    7    5   36      6.44      0.00
    0    6   36     -0.86      0.00
    2    6   36      0.26      0.00
    4    6   36     -1.44      0.00
    6    6   36      0.15      0.00
    8    6   36     -7.70      0.00
    1    7   36     -1.23      0.00
    3    7   36      0.71      0.00
    5    7   36     -0.49      0.00
    7    7   36      3.32      0.00
    0    8   36      5.93      0.00
    2    8   36      0.93      0.00
    4    8   36      0.55      0.00
    6    8   36     -0.43      0.00
    1    9   36     -0.05      0.00
    3    9   36     -1.19      0.00
    5    9   36     -6.41      0.00
    7    9   36     -2.25      0.00
    0   10   36     10.09      0.00
    2   10   36     -1.66      0.00
    4   10   36     -1.19      0.00
    6   10   36      1.19      0.00
    1   11   36     -0.47      0.00
    3   11   36      2.33      0.00
    5   11   36      1.86      0.00
    0   12   36      2.63      0.00
    2   12   36     -2.51      0.00
    1   13   36     -3.10      0.00
    1    0   37      4.34      0.00
    3    0   37      4.00      0.00
    5    0   37     -3.66      0.00
    7    0   37      2.39      0.00
    0    1   37     -0.87      0.00
    2    1   37      5.19      0.00
    4    1   37     -1.72      0.00
    6    1   37     -4.42      0.00
    8    1   37     -4.41      0.00
    1    2   37      2.40      0.00
    3    2   37      1.36      0.00
    5    2   37     -0.70      0.00
    7    2   37      1.41      0.00
    0    3   37      1.36      0.00
    2    3   37      2.22      0.00
    4    3   37      1.47      0.00
    6    3   37     -3.88      0.00
    8    3   37     -3.13      0.00
    1    4   37      1.64      0.00
    3    4   37     -0.48      0.00
    5    4   37      3.13      0.00
    7    4   37      3.26      0.00
    0    5   37     -1.28      0.00
    2    5   37     -1.37      0.00
    4    5   37      3.52      0.00
    6    5   37     -1.24      0.00
    1    6   37     -3.53      0.00
    3    6   37     -3.06      0.00
    5    6   37     -0.78      0.00
    7    6   37     -2.44      0.00
    0    7   37     -0.87      0.00
    2    7   37     -4.50      0.00
    4    7   37     -4.63      0.00
    6    7   37     -3.03      0.00
    1    8   37     -2.54      0.00
    3    8   37     -0.92      0.00
    5    8   37      0.01      0.00
    0    9   37     -1.04      0.00
    2    9   37      1.87      0.00
    4    9   37      1.79      0.00
    1   10   37     -4.56      0.00
    3   10   37      4.07      0.00
    0   11   37      3.52      0.00
    2   11   37      3.64      0.00
    0    0   38      2.47      0.00
    2    0   38     -1.66      0.00
    4    0   38      0.71      0.00
    6    0   38      5.63      0.00
    1    1   38     -0.05      0.00
    3    1   38     -0.97      0.00
    5    1   38      7.15      0.00
    0    2   38      2.40      0.00
    2    2   38      1.81      0.00
    4    2   38     -0.74      0.00
    6    2   38      1.71      0.00
    1    3   38     -0.50      0.00
    3    3   38      1.69      0.00
    5    3   38     -0.17      0.00
    0    4   38      1.36      0.00
    2    4   38      5.19      0.00
    4    4   38     -0.22      0.00
    6    4   38     -1.99      0.00
    1    5   38     -3.46      0.00
    3    5   38      2.03      0.00
    5    5   38      2.94      0.00
    0    6   38     -4.02      0.00
    2    6   38      1.70      0.00
    4    6   38      1.24      0.00
    1    7   38     -5.07      0.00
    3    7   38      2.04      0.00
    0    8   38     -2.97      0.00
    2    8   38     -3.19      0.00
    1    9   38      0.81      0.00
    1    0   39     -4.06      0.00
    3    0   39     -2.72      0.00
    0    1   39     -3.46      0.00
    2    1   39     -1.02      0.00
    4    1   39     -1.09      0.00
    1    2   39     -4.88      0.00
    3    2   39     -6.80      0.00
    0    3   39     -6.11      0.00
    2    3   39     -4.59      0.00
    4    3   39     -1.57      0.00
    1    4   39     -0.59      0.00
    3    4   39     -7.23      0.00
    0    5   39      2.86      0.00
    2    5   39     -0.55      0.00
    1    6   39     12.46      0.00
   20    0    0    -13.93      0.00
   22    0    0      4.49      0.00
    1    1    0     77.53      0.00
   21    1    0     -3.33      0.00
   22    2    0      9.36      0.00
   21    3    0     28.08      0.00
   22    4    0      3.54      0.00
   22    6    0      1.84      0.00
   21    7    0     -0.48      0.00
   21    9    0    -26.88      0.00
   21   11    0     -7.97      0.00
   20   14    0      5.75      0.00
   10   18    0    -23.43      0.00
   18   18    0      7.00      0.00
    9   19    0     12.32      0.00
    8   20    0      4.93      0.00
    4   22    0     -2.30      0.00
    6   22    0     -5.82      0.00
    1   23    0     -2.28      0.00
    3   23    0     -1.57      0.00
    5   23    0     18.68      0.00
    7   23    0     -8.89      0.00
    0   24    0     -2.68      0.00
    2   24    0     -9.21      0.00
    4   24    0      2.63      0.00
    6   24    0     -2.92      0.00
    8   24    0     -4.43      0.00
    1   25    0    -23.33      0.00
    3   25    0     -9.59      0.00
    5   25    0     10.08      0.00
    7   25    0    -12.19      0.00
    9   25    0     -6.95      0.00
    0   26    0     -2.04      0.00
    2   26    0     -6.93      0.00
    4   26    0      8.43      0.00
    6   26    0     14.70      0.00
    8   26    0      5.73      0.00
    1   27    0     -4.23      0.00
    3   27    0      2.08      0.00
    5   27    0     13.61      0.00
    0   28    0      1.18      0.00
    2   28    0      7.18      0.00
    4   28    0     -6.02      0.00
    6   28    0     12.14      0.00
    8   28    0      8.81      0.00
    1   29    0      8.42      0.00
    3   29    0      3.30      0.00
    5   29    0      6.97      0.00
    7   29    0     -2.08      0.00
    0   30    0    -10.15      0.00
    2   30    0      4.69      0.00
    4   30    0    -12.10      0.00
    1    0    1   -243.68      0.00
   21    0    1     15.51      0.00
    0    1    1   -518.46      0.00
   22    1    1     -7.97      0.00
   22    3    1     -8.87      0.00
   22    5    1      5.55      0.00
   21    6    1      3.89      0.00
   21    8    1      3.64      0.00
   21   10    1     -2.00      0.00
   19   16    1     -6.24      0.00
   17   20    1      0.64      0.00
    6   21    1     11.08      0.00
    3   22    1     -2.48      0.00
    5   22    1    -20.57      0.00
    2   23    1      6.02      0.00
    4   23    1      4.59      0.00
    6   23    1      6.63      0.00
    1   24    1      4.24      0.00
    3   24    1     -1.02      0.00
    5   24    1    -14.25      0.00
    7   24    1      2.46      0.00
    9   24    1      8.59      0.00
    0   25    1    -20.10      0.00
    2   25    1      9.54      0.00
    4   25    1      5.01      0.00
    6   25    1      6.66      0.00
    8   25    1     -1.55      0.00
   10   25    1     -2.32      0.00
    1   26    1      8.75      0.00
    3   26    1     -3.94      0.00
    7   26    1      1.68      0.00
    0   27    1    -12.20      0.00
    2   27    1      4.50      0.00
    4   27    1     -2.41      0.00
    1   28    1      2.05      0.00
    3   28    1     -3.05      0.00
    5   28    1     -0.11      0.00
    7   28    1      2.33      0.00
    0   29    1      1.65      0.00
    2   29    1      0.56      0.00
    4   29    1      3.01      0.00
    6   29    1     -5.13      0.00
    1   30    1     -5.00      0.00
    3   30    1     -4.10      0.00
    0    0    2    188.55      0.00
   22    0    2      5.17      0.00
   22    2    2     -5.26      0.00
   22    4    2     -9.73      0.00
    1    5    2     73.78      0.00
   22    6    2    -11.12      0.00
   21    7    2     -8.42      0.00
   21    9    2     -3.68      0.00
   18   18    2      0.13      0.00
    4   22    2     -1.81      0.00
    6   22    2     -2.36      0.00
    3   23    2      0.98      0.00
    5   23    2      4.47      0.00
    7   23    2     15.73      0.00
    0   24    2     10.62      0.00
    2   24    2      2.04      0.00
    4   24    2     -3.70      0.00
    6   24    2      2.70      0.00
    8   24    2      4.41      0.00
    1   25    2     10.23      0.00
    3   25    2     -0.11      0.00
    5   25    2     -2.57      0.00
    7   25    2      3.46      0.00
    9   25    2      1.96      0.00
    0   26    2     20.29      0.00
    2   26    2      8.21      0.00
    4   26    2     -1.27      0.00
    1   27    2      0.69      0.00
    3   27    2      0.40      0.00
    5   27    2     -3.45      0.00
    0   28    2     -6.10      0.00
    2   28    2     -4.34      0.00
    4   28    2     -0.49      0.00
    6   28    2      8.51      0.00
    8   28    2      6.77      0.00
    1   29    2      2.14      0.00
    3   29    2      5.50      0.00
    5   29    2      2.50      0.00
    0   30    2     -2.94      0.00
    2   30    2     -1.44      0.00
    4   30    2     -1.78      0.00
   22    1    3     -8.42      0.00
   22    3    3      1.25      0.00
   22    5    3      2.38      0.00
   21    8    3      1.91      0.00
   21   10    3     -4.31      0.00
   19   16    3     -5.87      0.00
    6   21    3      1.99      0.00
    5   22    3     15.09      0.00
    7   22    3     -0.15      0.00
    4   23    3      4.46      0.00
    6   23    3     -7.00      0.00
    3   24    3     -3.80      0.00
    5   24    3     -6.68      0.00
    7   24    3    -12.07      0.00
    0   25    3      1.29      0.00
    2   25    3     -5.98      0.00
    4   25    3      3.07      0.00
    6   25    3    -10.81      0.00
    1   26    3      2.72      0.00
    3   26    3      6.58      0.00
    5   26    3      2.43      0.00
    0   27    3      0.76      0.00
    2   27    3     -2.56      0.00
    4   27    3      0.07      0.00
    6   27    3     -7.96      0.00
   10   27    3      2.11      0.00
    1   28    3     -6.55      0.00
    3   28    3     -4.01      0.00
    5   28    3     -5.07      0.00
    7   28    3     -1.72      0.00
    0   29    3     -1.04      0.00
    2   29    3      0.95      0.00
    4   29    3     -2.28      0.00
    6   29    3     -3.97      0.00
    1   30    3     -3.98      0.00
    3   30    3     -0.90      0.00
   22    0    4      3.85      0.00
   22    2    4     -3.70      0.00
   22    4    4     -3.21      0.00
   21    9    4     -0.35      0.00
   18   18    4      1.48      0.00
    7   21    4      0.40      0.00
    6   22    4     -7.93      0.00
    8   22    4    -10.78      0.00
    5   23    4      1.59      0.00
    7   23    4      1.36      0.00
    4   24    4     -8.48      0.00
    6   24    4      3.54      0.00
    3   25    4     -3.82      0.00
    0   26    4      2.17      0.00
    2   26    4     -5.47      0.00
    4   26    4     -6.95      0.00
    1   27    4     -3.56      0.00
    3   27    4     -6.38      0.00
    5   27    4      0.67      0.00
    0   28    4      4.44      0.00
    2   28    4     -4.53      0.00
    4   28    4      4.33      0.00
    6   28    4      7.68      0.00
    8   28    4      5.33      0.00
    1   29    4      9.23      0.00
    3   29    4      6.00      0.00
    5   29    4      2.31      0.00
    0   30    4     12.83      0.00
    2   30    4     -1.47      0.00
   22    1    5     -7.06      0.00
    0    3    5    -76.00      0.00
   22    3    5     -0.27      0.00
   22    5    5     -0.09      0.00
   21   10    5      1.83      0.00
   20   13    5     -5.53      0.00
    7   20    5      1.94      0.00
   16   21    5     -9.78      0.00
    7   22    5     -1.72      0.00
    6   23    5     -9.29      0.00
    8   23    5      3.30      0.00
    4   25    5     12.41      0.00
    1   26    5    -13.61      0.00
    3   26    5     11.55      0.00
    5   26    5      3.41      0.00
    0   27    5      2.33      0.00
    2   27    5    -11.84      0.00
    4   27    5      3.49      0.00
    6   27    5     -4.54      0.00
   10   27    5     -1.74      0.00
    1   28    5     -8.35      0.00
    3   28    5     -0.33      0.00
    5   28    5     -2.25      0.00
    7   28    5      4.42      0.00
    0   29    5     15.08      0.00
    2   29    5      3.84      0.00
    4   29    5      6.60      0.00
    6   29    5      1.22      0.00
    1   30    5      1.55      0.00
    3   30    5      2.01      0.00
   22    0    6     13.24      0.00
   22    4    6      1.66      0.00
   21    9    6      5.65      0.00
    7   21    6      2.72      0.00
    6   22    6      1.28      0.00
    8   22    6      3.06      0.00
    3   25    6     -0.70      0.00
    0   26    6      8.24      0.00
    2   26    6      8.68      0.00
    4   26    6     -5.67      0.00
    1   27    6      9.18      0.00
    3   27    6      1.49      0.00
    5   27    6     -0.31      0.00
    0   28    6     -3.06      0.00
    2   28    6      9.22      0.00
    4   28    6     -2.75      0.00
    6   28    6     -0.60      0.00
    8   28    6      5.56      0.00
    1   29    6     -2.92      0.00
    3   29    6     -1.88      0.00
    5   29    6     -3.49      0.00
    0   30    6     -6.49      0.00
    2   30    6     -2.37      0.00
   22    1    7     -6.20      0.00
   22    3    7      0.22      0.00
   20   13    7      1.41      0.00
    8   21    7     -1.63      0.00
    7   22    7      8.09      0.00
   15   22    7      0.23      0.00
    4   25    7    -16.54      0.00
   12   25    7      2.15      0.00
    3   26    7      0.78      0.00
    5   26    7    -11.69      0.00
   11   26    7      6.25      0.00
    0   27    7      1.53      0.00
    2   27    7      1.39      0.00
    4   27    7     -7.20      0.00
    6   27    7     -8.39      0.00
    1   28    7    -13.54      0.00
    3   28    7      0.74      0.00
    5   28    7      2.70      0.00
    7   28    7      2.53      0.00
    0   29    7      5.79      0.00
    2   29    7      2.73      0.00
    4   29    7      1.33      0.00
    1   30    7     -5.26      0.00
   22    0    8      3.97      0.00
   22    2    8      2.15      0.00
   21    9    8      0.55      0.00
   19   15    8     -4.96      0.00
   17   19    8      4.23      0.00
    4   26    8      2.43      0.00
    3   27    8     -2.98      0.00
    5   27    8      8.10      0.00
    9   27    8     -0.87      0.00
    2   28    8      1.38      0.00
    4   28    8     -1.99      0.00
    6   28    8      2.98      0.00
    3   29    8     -5.65      0.00
    5   29    8      1.68      0.00
   21    8    9      3.37      0.00
   18   17    9      0.53      0.00
    4   25    9     10.07      0.00
    3   26    9     -2.68      0.00
    5   26    9     10.35      0.00
    0   27    9      1.14      0.00
    2   27    9      0.10      0.00
    4   27    9      5.69      0.00
    6   27    9     -3.49      0.00
    1   28    9     -0.67      0.00
    3   28    9      0.77      0.00
    5   28    9      7.47      0.00
    7   28    9      5.29      0.00
    0   29    9      7.97      0.00
    4   29    9      4.12      0.00
   16   20   10     -2.98      0.00
    4   26   10     -2.59      0.00
    3   27   10      0.67      0.00
    5   27   10      0.59      0.00
    7   27   10     -2.19      0.00
    2   28   10     -8.60      0.00
    4   28   10     -7.00      0.00
    6   28   10      0.59      0.00
   20   11   11     -5.92      0.00
   19   14   11      1.53      0.00
   17   18   11     -8.37      0.00
    5   26   11    -10.77      0.00
    4   27   11     -6.28      0.00
    6   27   11    -16.57      0.00
    8   27   11     -5.74      0.00
    3   28   11      2.91      0.00
    5   28   11     -5.14      0.00
    0   29   11     -2.19      0.00
    2   29   11      5.92      0.00
   21    5   12     -2.49      0.00
   20   10   12      1.73      0.00
   14   22   12      4.42      0.00
   13   23   12      2.41      0.00
   12   24   12     -2.26      0.00
    5   25   12     -5.12      0.00
   11   25   12     -0.34      0.00
    4   26   12     -3.21      0.00
    6   26   12      2.00      0.00
    5   27   12    -10.63      0.00
    7   27   12      5.09      0.00
    6   28   12     -1.69      0.00
    1   29   12      5.98      0.00
   21    4   13     11.67      0.00
   18   15   13     -1.14      0.00
   16   19   13      5.74      0.00
    5   26   13     22.44      0.00
    9   26   13      7.94      0.00
    4   27   13     15.40      0.00
    6   27   13      8.98      0.00
    5   28   13     22.28      0.00
   21    1   14      8.92      0.00
   21    3   14      1.75      0.00
    6   26   14     10.21      0.00
    7   27   14      6.47      0.00
    4   28   14     -2.02      0.00
   14   21   15     -3.03      0.00
   13   22   15      0.41      0.00
   12   23   15      0.97      0.00
   11   24   15      3.86      0.00
    6   27   15    -12.19      0.00
    3   28   15     -2.96      0.00
   20    6   16     -2.69      0.00
   19   11   16      1.44      0.00
   15   19   16     -6.43      0.00
    9   25   16      1.49      0.00
    5   27   16    -10.74      0.00
    0   28   16      1.53      0.00
   20    5   17      2.08      0.00
   19   10   17     -7.04      0.00
   18   13   17      1.76      0.00
   16   17   17     -3.55      0.00
    7   26   17     -0.14      0.00
    4   27   17     -3.69      0.00
   20    0   18     -4.40      0.00
   20    2   18     -3.58      0.00
   19    9   18      4.06      0.00
   18   12   18      0.63      0.00
    6   26   18     -1.55      0.00
    3   27   18      0.96      0.00
   18   11   19      5.27      0.00
   14   19   19      4.73      0.00
   13   20   19      1.72      0.00
   10   23   19     -2.02      0.00
    9   24   19      3.47      0.00
    5   26   19     -0.01      0.00
   19    5   20     -3.11      0.00
   18   10   20     -5.56      0.00
   17   13   20     -0.84      0.00
    8   24   20     -1.62      0.00
   19    0   21     -8.46      0.00
   19    2   21     -0.21      0.00
   18    9   21      0.41      0.00
   17   12   21      2.80      0.00
   15   16   21     -4.37      0.00
    7   24   21      7.29      0.00
    1   26   21      1.10      0.00
   17   11   22     -2.88      0.00
    6   24   22     -6.36      0.00
    3   25   22      3.99      0.00
   18    5   23      0.35      0.00
   12   19   23     -6.61      0.00
   11   20   23     -1.87      0.00
   10   21   23      1.68      0.00
    5   24   23      2.42      0.00
    0   25   23     -3.46      0.00
   18    0   24     -7.39      0.00
   18    2   24     -2.53      0.00
   13   17   24      0.81      0.00
   12   18   24      2.27      0.00
    9   21   24      4.50      0.00
   17    6   25     -0.79      0.00
   13   16   25     -1.90      0.00
    8   21   25     -1.66      0.00
    4   23   25     -4.65      0.00
   17    1   26     -3.03      0.00
   17    3   26     -2.72      0.00
   16    8   26     -0.71      0.00
   15   11   26      0.44      0.00
   13   15   26      0.27      0.00
    7   21   26      3.91      0.00
    1   23   26      0.64      0.00
   13   14   27     -0.56      0.00
    6   21   27      0.98      0.00
    3   22   27      2.89      0.00
   16    0   28      3.49      0.00
   16    2   28     -0.55      0.00
   13   13   28      0.82      0.00
   14    9   29     -3.46      0.00
   12   13   29     -1.17      0.00
    5   20   29     -0.95      0.00
    0   21   29      2.05      0.00
    2   21   29     -1.52      0.00
   12   12   30      2.32      0.00
    5   19   30      1.03      0.00
    0   20   30     -1.75      0.00
    2   20   30     -0.31      0.00
   14    3   31     -2.78      0.00
   13    8   31      2.03      0.00
   11   12   31     -2.84      0.00
    5   18   31     -5.37      0.00
    2   19   31     -0.29      0.00
   13    5   32      2.55      0.00
   12    8   32     -5.80      0.00
    5   17   32      1.70      0.00
    2   18   32     -1.55      0.00
   10   11   33      1.36      0.00
    9   12   33     -0.27      0.00
    6   15   33      6.29      0.00
    5   16   33     -0.12      0.00
    2   17   33     -1.68      0.00
   12    0   34     -4.64      0.00
    8   12   34      1.89      0.00
    7   13   34      3.49      0.00
    6   14   34     -1.37      0.00
    0   16   34     -5.21      0.00
    2   16   34     -3.25      0.00
   11    0   35      0.89      0.00
   11    2   35     -0.79      0.00
    9    8   35     -0.85      0.00
    3   14   35      1.35      0.00
    0   15   35      0.91      0.00
   10    0   36      1.30      0.00
    9    5   36      2.26      0.00
    8    8   36     -4.19      0.00
    4   12   36      1.32      0.00
    3   13   36     -2.61      0.00
    8    5   37      2.20      0.00
    7    1   38      5.17      0.00
    7    3   38     -3.17      0.00
    5    7   38      5.63      0.00
    4    8   38     -0.77      0.00
    3    9   38     -4.28      0.00
    0   10   38      4.05      0.00
    5    0   39     -0.29      0.00
    5    2   39      1.57      0.00
    4    5   39     -2.72      0.00
    3    6   39     -0.70      0.00
    0    7   39      9.64      0.00
    2    7   39      3.58      0.00
    0    0   40      4.03      0.00
    2    0   40      4.88      0.00
    1    1   40      4.95      0.00
    0    2   40      3.10      0.00
    2    2   40      4.51      0.00
    1    3   40      0.95      0.00
    0    0    0      0.00      0.00
# SQUEEZE RESULTS (Version = 220119)
# Note: Data are Listed for all Voids in the P1 Unit Cell
# i.e. Centre of Gravity, Solvent Accessible Volume,
# Recovered number of Electrons in the Void and
# Details about the Squeezed Material
loop_
  _platon_squeeze_void_nr
  _platon_squeeze_void_average_x
  _platon_squeeze_void_average_y
  _platon_squeeze_void_average_z
  _platon_squeeze_void_volume
  _platon_squeeze_void_count_electrons
  _platon_squeeze_void_content
   1 -0.045  0.500 -0.001      3702       984 ' '
   2 -0.009  0.000  0.420      3688       983 ' '
# Missing Reflections Below sin(th)/lambda = 0.25
loop_
  _platon_missing_refln_index_h
  _platon_missing_refln_index_k
  _platon_missing_refln_index_l
  _platon_missing_refln_theta
    1    1    0     2.945
    1    0    1     2.716
    0    1    1     2.194
    0    0    2     2.653
    1    5    2     9.475
    0    3    5     8.483
_platon_squeeze_void_probe_radius                  1.20
_platon_squeeze_details
)
TITL UHM-63           I m m m      R = 0.12
CELL   18.6420   25.2812   33.3107     90.00     90.00     90.00
SPGR Immm
# Solvent Accessible Volume =      7362
# Electrons Found in S.A.V. =      1947
# Note: Atoms in Void are Labelled as Cxxx and Qxxx for all Others
C101 1.000 0.391-0.001 !       1.76 eA-3
C102 0.500 0.727 0.123 !       1.53 eA-3
C103 0.728 0.500 0.250 !       1.51 eA-3
C104 1.000 0.344 0.001 !       1.40 eA-3
Q105 0.780 0.898 0.000 !       1.21 eA-3
C106 0.470 0.369 0.248 !       1.17 eA-3
C107 0.797 0.042 0.233 !       1.17 eA-3
Q108 0.731 0.102 0.001 !       1.14 eA-3
C109 0.258 0.444 0.197 !       1.10 eA-3
C110 0.500 0.388 0.275 !       1.10 eA-3
C111 0.978 0.225 0.333 !       1.06 eA-3
C112 0.970 0.477 0.001 !       1.04 eA-3
C113 0.500 0.561 0.190 !       1.03 eA-3
C114 0.234 0.039 0.220 !       0.98 eA-3
C115 0.049 0.445 0.000 !       0.95 eA-3
C116 0.091 0.585 0.015 !       0.95 eA-3
Q117 0.740 0.939 0.229 !       0.91 eA-3
C118 0.019 0.492 0.016 !       0.91 eA-3
C119 1.000 0.171 0.183 !       0.90 eA-3
Q120 0.964 1.000 0.000 !       0.89 eA-3
C121 0.560 0.257 0.140 !       0.88 eA-3
C122 0.500 0.765 0.086 !       0.86 eA-3
Q123 0.197 0.938-0.002 !       0.84 eA-3
C124 0.199 0.499 0.078 !       0.84 eA-3
C125 0.391 1.000 0.000 !       0.83 eA-3
C126 1.000 0.498 0.406 !       0.82 eA-3
C127 0.272 0.978 0.305 !       0.82 eA-3
C128 0.308 0.586-0.001 !       0.82 eA-3
C129 0.926 0.476 0.016 !       0.82 eA-3
Q130 0.463 0.502 0.273 !       0.81 eA-3
C131 0.393 0.330 0.118 !       0.81 eA-3
C132 1.000 0.805 0.159 !       0.80 eA-3
Q133 0.200 0.507 0.413 !       0.80 eA-3
C134 0.343 0.564 0.259 !       0.77 eA-3
Q135 0.280 0.292 0.467 !       0.76 eA-3
Q136 0.684 0.998 0.039 !       0.76 eA-3
Q137 0.500 0.523 0.212 !       0.75 eA-3
C138 0.777 0.498 0.141 !       0.75 eA-3
C139 0.251 0.502 0.203 !       0.75 eA-3
Q140 1.000 0.789 0.111 !       0.74 eA-3
Q141 1.000 0.152 0.103 !       0.74 eA-3
C142 0.017 0.789 0.430 !       0.74 eA-3
C143 0.874 0.065 0.233 !       0.73 eA-3
Q144 0.429 0.402 0.171 !       0.72 eA-3
Q145 0.869 1.000 0.000 !       0.72 eA-3
C146 0.500 0.298 0.057 !       0.72 eA-3
C147 1.000 0.342 0.041 !       0.72 eA-3
C148 0.417 0.696 0.119 !       0.71 eA-3
C149 0.500 0.432 0.025 !       0.71 eA-3
C150 0.483 0.499 0.039 !       0.70 eA-3
C151 0.771 0.501 0.047 !       0.70 eA-3
C152 0.229 0.501 0.117 !       0.70 eA-3
Q153 0.580 0.368 0.202 !       0.69 eA-3
C154 0.327 0.503 0.016 !       0.69 eA-3
Q155 0.533 0.560 0.234 !       0.69 eA-3
C156 0.095 0.524 0.391 !       0.69 eA-3
C157 0.620 0.057 0.094 !       0.68 eA-3
C158 0.188 0.524 0.131 !       0.68 eA-3
C159 0.373 0.020 0.094 !       0.68 eA-3
C160 0.824 0.522 0.110 !       0.66 eA-3
C161 0.477 0.680 0.061 !       0.66 eA-3
C162 0.278 0.375 0.001 !       0.66 eA-3
Q163 1.000 0.977-0.001 !       0.66 eA-3
C164 0.696 0.025 0.467 !       0.66 eA-3
C165 0.576 0.885 0.445 !       0.66 eA-3
C166 0.500 0.755 0.052 !       0.66 eA-3
C167 0.760 0.550 0.148 !       0.65 eA-3
C168 0.669 1.003 0.359 !       0.65 eA-3
C169 0.356 0.422 0.001 !       0.64 eA-3
C170 0.444 1.000 0.094 !       0.64 eA-3
C171 0.500 0.598 0.238 !       0.64 eA-3
C172 0.455 0.045 0.095 !       0.63 eA-3
C173 0.927 0.095 0.230 !       0.63 eA-3
C174 0.334 0.038 0.437 !       0.63 eA-3
Q175 1.000 0.812 0.086 !       0.63 eA-3
C176 0.724 0.577 0.046 !       0.62 eA-3
C177 0.201 0.561 0.037 !       0.62 eA-3
Q178 0.726 1.000 0.242 !       0.62 eA-3
C179 0.168 0.438 0.000 !       0.62 eA-3
C180 0.651 0.940 0.459 !       0.62 eA-3
C181 0.391 0.522 0.098 !       0.62 eA-3
C182 1.000 0.928 0.342 !       0.61 eA-3
C183 0.625 0.921 0.422 !       0.61 eA-3
C184 0.225 1.001 0.461 !       0.61 eA-3
C185 0.246 0.414 0.000 !       0.61 eA-3
C186 0.291 0.039 0.421 !       0.60 eA-3
Q187 0.143 0.070-0.004 !       0.60 eA-3
C188 0.437 0.946 0.079 !       0.60 eA-3
C189 0.748 0.548 0.040 !       0.60 eA-3
C190 0.405 0.025 0.075 !       0.60 eA-3
C191 0.801 0.467 0.096 !       0.60 eA-3
C192 0.855 0.978 0.226 !       0.60 eA-3
Q193 1.000 0.350 0.076 !       0.60 eA-3
Q194 0.915 0.070 0.000 !       0.60 eA-3
C195 0.540 0.997 0.109 !       0.60 eA-3
Q196 1.000 0.743 0.142 !       0.59 eA-3
Q197 0.705 0.999 0.063 !       0.59 eA-3
Q198 0.260 1.000 0.000 !       0.59 eA-3
C199 0.132 0.500 0.008 !       0.58 eA-3
)
;
_shelx_fab_checksum              70300
loop_
_space_group_symop_operation_xyz
'x, y, z'
'-x, -y, z'
'-x, y, -z'
'x, -y, -z'
'x+1/2, y+1/2, z+1/2'
'-x+1/2, -y+1/2, z+1/2'
'-x+1/2, y+1/2, -z+1/2'
'x+1/2, -y+1/2, -z+1/2'
'-x, -y, -z'
'x, y, -z'
'x, -y, z'
'-x, y, z'
'-x+1/2, -y+1/2, -z+1/2'
'x+1/2, y+1/2, -z+1/2'
'x+1/2, -y+1/2, z+1/2'
'-x+1/2, y+1/2, z+1/2'
loop_
_atom_site_label
_atom_site_type_symbol
_atom_site_fract_x
_atom_site_fract_y
_atom_site_fract_z
_atom_site_U_iso_or_equiv
_atom_site_adp_type
_atom_site_occupancy
_atom_site_site_symmetry_order
_atom_site_calc_flag
_atom_site_refinement_flags_posn
_atom_site_refinement_flags_adp
_atom_site_refinement_flags_occupancy
_atom_site_disorder_assembly
_atom_site_disorder_group
O1 O 0.000000 0.000000 0.000000 0.106(4) Uiso 0.53(3) 8 d S . P . .
Cl1 Cl 0.000000 0.000000 0.000000 0.106(4) Uiso 0.47(3) 8 d S . P . .
O50 O 0.000000 0.1121(5) 0.000000 0.182(6) Uani 1 4 d S T P . .
O100 O 0.1587(3) 0.1467(2) 0.29989(18) 0.1246(19) Uani 1 1 d . . . . .
O200 O 0.000000 0.000000 0.2228(2) 0.113(4) Uani 1 4 d S T P . .
Cu1 Cu 0.21414(5) 0.21223(4) 0.26925(3) 0.0795(4) Uani 1 1 d . . . . .
Cu2 Cu 0.000000 0.000000 0.15133(6) 0.0973(7) Uani 1 4 d S T P . .
Cu3 Cu 0.000000 0.000000 0.07189(5) 0.0896(7) Uani 1 4 d S T P . .
P40A P 0.5197(3) 0.000000 0.24573(16) 0.101(3) Uani 0.5 2 d DS T P . .
O10A O 0.3091(3) 0.1832(2) 0.27828(14) 0.0957(14) Uani 1 1 d . . . . .
O11A O 0.3705(2) 0.2466(2) 0.24537(15) 0.0904(13) Uani 1 1 d . . . . .
O40A O 0.6001(6) 0.000000 0.2413(8) 0.234(13) Uani 0.5 2 d DS T P . .
C10A C 0.500000 0.1018(3) 0.3009(3) 0.090(2) Uani 1 2 d DS T P . .
C11A C 0.4355(3) 0.1280(3) 0.2935(2) 0.0890(18) Uani 1 1 d D . . . .
H11A H 0.391257 0.111667 0.300337 0.107 Uiso 1 1 calc R U . . .
C12A C 0.4358(3) 0.1775(3) 0.27613(19) 0.0814(16) Uani 1 1 d D . . . .
C13A C 0.500000 0.2022(3) 0.2675(2) 0.077(2) Uani 1 2 d DS T P . .
H13A H 0.500000 0.236352 0.255580 0.092 Uiso 1 2 calc R U P . .
C14A C 0.3673(4) 0.2054(3) 0.2659(2) 0.0857(17) Uani 1 1 d . . . . .
C20A C 0.500000 0.000000 0.2993(3) 0.086(3) Uani 1 4 d DS T P . .
C21A C 0.500000 0.0474(3) 0.3201(3) 0.103(3) Uani 1 2 d DS T P . .
C22A C 0.500000 0.0473(3) 0.3612(3) 0.245(13) Uani 1 2 d DS T P . .
H22A H 0.500000 0.079807 0.375460 0.294 Uiso 1 2 calc R U P . .
C23A C 0.500000 0.000000 0.3820(5) 0.40(4) Uani 1 4 d DS T P . .
H23A H 0.500000 0.000000 0.410530 0.481 Uiso 1 4 calc R U P . .
C40A C 0.4711(9) 0.0514(4) 0.2210(4) 0.134(7) Uani 0.5 1 d DG . P A .
C41A C 0.3976(8) 0.0590(6) 0.2166(5) 0.193(10) Uani 0.5 1 d G . P . .
H41A H 0.364872 0.037069 0.230717 0.231 Uiso 0.5 1 calc R U P . .
C42A C 0.3722(8) 0.0988(7) 0.1916(6) 0.235(13) Uani 0.5 1 d G . P A .
H42A H 0.321994 0.104027 0.188570 0.282 Uiso 0.5 1 calc R U P . .
C43A C 0.4201(13) 0.1309(5) 0.1709(4) 0.222(12) Uani 0.5 1 d G . P . .
H43A H 0.402718 0.158127 0.153814 0.266 Uiso 0.5 1 calc R U P A .
C44A C 0.4935(12) 0.1233(6) 0.1753(5) 0.243(12) Uani 0.5 1 d G . P A -1
H44A H 0.526319 0.145270 0.161206 0.291 Uiso 0.5 1 calc R U P A -1
C45A C 0.5190(7) 0.0835(7) 0.2004(5) 0.202(10) Uani 0.5 1 d G . P . .
H45A H 0.569199 0.078312 0.203354 0.242 Uiso 0.5 1 calc R U P A .
P40B P 0.1613(4) 0.2050(3) 0.000000 0.200(3) Uani 1 2 d DS T P . .
O10B O 0.2751(3) 0.2426(2) 0.18255(14) 0.0996(15) Uani 1 1 d . . . . .
O11B O 0.2132(3) 0.1823(2) 0.21571(15) 0.0968(14) Uani 1 1 d . . . . .
O12B O 0.0740(3) 0.05364(19) 0.14408(14) 0.1085(16) Uani 1 1 d . . . . .
O13B O 0.0716(4) 0.0537(2) 0.07672(15) 0.147(3) Uani 1 1 d . . . . .
O40B O 0.0985(6) 0.1684(6) 0.000000 0.230(6) Uani 1 2 d DS T P . .
C10B C 0.2434(7) 0.1607(5) 0.0744(3) 0.152(4) Uani 1 1 d . . . . .
C11B C 0.2598(5) 0.1870(4) 0.1112(2) 0.125(3) Uani 1 1 d . . . . .
H11B H 0.296226 0.213331 0.111443 0.150 Uiso 1 1 calc R U . . .
C12B C 0.2247(4) 0.1754(3) 0.1458(2) 0.099(2) Uani 1 1 d . . . . .
C13B C 0.1721(5) 0.1354(3) 0.1452(2) 0.109(2) Uani 1 1 d . . . . .
H13B H 0.149601 0.125122 0.169573 0.131 Uiso 1 1 calc R U . . .
C14B C 0.1523(6) 0.1104(3) 0.1093(2) 0.118(3) Uani 1 1 d . . . . .
C15B C 0.1884(6) 0.1228(4) 0.0747(3) 0.143(4) Uani 1 1 d . . . . .
H15B H 0.175930 0.105394 0.050361 0.172 Uiso 1 1 calc R U . . .
C16B C 0.2398(4) 0.2019(3) 0.1841(2) 0.0909(19) Uani 1 1 d . . . . .
C17B C 0.0954(6) 0.0700(3) 0.1096(2) 0.116(3) Uani 1 1 d . . . . .
C20B C 0.2489(5) 0.1748(4) 0.000000 0.117(4) Uani 1 2 d DS T P . .
C21B C 0.2846(5) 0.1700(4) 0.03649(19) 0.178(5) Uani 1 1 d D . . . .
C22B C 0.3590(6) 0.1600(10) 0.0366(2) 0.329(14) Uani 1 1 d D . . . .
H22B H 0.383932 0.155022 0.061214 0.395 Uiso 1 1 calc R U . . .
C23B C 0.3953(8) 0.1577(18) 0.000000 0.50(4) Uani 1 2 d DS T P . .
H23B H 0.446047 0.154391 0.000000 0.599 Uiso 1 2 calc R U P . .
C40B C 0.1636(10) 0.2501(4) 0.0424(3) 0.258(8) Uani 1 1 d DG U . . .
C41B C 0.1054(8) 0.2478(5) 0.0683(5) 0.296(10) Uani 1 1 d G U . . .
H41B H 0.066215 0.225024 0.062584 0.356 Uiso 1 1 calc R U . . .
C42B C 0.1044(7) 0.2790(6) 0.1027(4) 0.418(10) Uani 1 1 d G U . . .
H42B H 0.064549 0.277400 0.120495 0.501 Uiso 1 1 calc R U . . .
C43B C 0.1617(9) 0.3123(5) 0.1112(3) 0.276(9) Uani 1 1 d G U . . .
H43B H 0.160994 0.333613 0.134686 0.331 Uiso 1 1 calc R U . . .
C44B C 0.2199(8) 0.3146(5) 0.0852(4) 0.313(10) Uani 1 1 d G U . . .
H44B H 0.259105 0.337450 0.090966 0.375 Uiso 1 1 calc R U . . .
C45B C 0.2209(8) 0.2835(6) 0.0508(3) 0.248(8) Uani 1 1 d G U . . .
H45B H 0.260772 0.285074 0.033054 0.297 Uiso 1 1 calc R U . . .
C60 C 0.235(5) 0.000000 0.0375(6) 0.50(9) Uani 0.234(15) 2 d DS TU P . .
H60A H 0.204626 0.000000 0.061464 0.757 Uiso 0.234(15) 2 calc R U P . .
H60B H 0.265504 -0.031651 0.037583 0.757 Uiso 0.117(8) 1 calc R U P . .
H60C H 0.265504 0.031651 0.037583 0.757 Uiso 0.117(8) 1 calc R U P . .
N60 N 0.188(4) 0.000000 0.000000 0.14(2) Uani 0.234(15) 4 d DS TU P . .
H60D H 0.159535 0.029153 0.000000 0.164 Uiso 0.117(8) 2 calc R U P . .
H60E H 0.159535 -0.029153 0.000000 0.164 Uiso 0.117(8) 2 calc R U P . .
loop_
_atom_site_aniso_label
_atom_site_aniso_U_11
_atom_site_aniso_U_22
_atom_site_aniso_U_33
_atom_site_aniso_U_23
_atom_site_aniso_U_13
_atom_site_aniso_U_12
O50 0.231(17) 0.096(10) 0.218(17) 0.000 0.000 0.000
O100 0.124(4) 0.114(4) 0.135(4) 0.026(3) 0.021(4) -0.013(3)
O200 0.222(13) 0.068(6) 0.049(4) 0.000 0.000 0.000
Cu1 0.0762(7) 0.0786(8) 0.0838(7) 0.0049(4) -0.0053(4) -0.0120(4)
Cu2 0.161(2) 0.0607(13) 0.0697(11) 0.000 0.000 0.000
Cu3 0.1484(19) 0.0528(11) 0.0676(11) 0.000 0.000 0.000
P40A 0.117(8) 0.085(3) 0.101(3) 0.000 0.019(3) 0.000
O10A 0.078(3) 0.109(4) 0.101(3) 0.019(3) -0.007(2) -0.006(3)
O11A 0.075(3) 0.092(3) 0.105(3) 0.012(2) -0.005(2) -0.010(2)
O40A 0.140(11) 0.37(4) 0.19(2) 0.000 0.058(14) 0.000
C10A 0.102(6) 0.067(5) 0.102(6) -0.011(4) 0.000 0.000
C11A 0.090(4) 0.078(4) 0.099(5) 0.000(3) -0.006(4) 0.001(3)
C12A 0.076(4) 0.077(4) 0.091(4) -0.011(3) -0.001(3) -0.002(3)
C13A 0.078(5) 0.067(6) 0.086(6) -0.006(4) 0.000 0.000
C14A 0.078(4) 0.089(5) 0.090(5) -0.007(3) 0.002(3) 0.000(3)
C20A 0.079(8) 0.069(7) 0.110(9) 0.000 0.000 0.000
C21A 0.138(9) 0.063(5) 0.108(6) -0.001(4) 0.000 0.000
C22A 0.56(4) 0.068(8) 0.105(7) -0.002(6) 0.000 0.000
C23A 1.03(12) 0.078(12) 0.098(14) 0.000 0.000 0.000
C40A 0.235(18) 0.060(9) 0.108(10) -0.007(6) -0.013(11) 0.013(10)
C41A 0.244(19) 0.110(17) 0.22(3) 0.002(14) 0.00(2) 0.060(16)
C42A 0.28(2) 0.22(3) 0.21(3) 0.04(2) 0.00(2) 0.11(2)
C43A 0.34(3) 0.18(2) 0.15(2) 0.001(16) -0.06(2) 0.04(2)
C44A 0.32(2) 0.23(2) 0.17(2) 0.076(16) 0.00(5) 0.04(4)
C45A 0.28(2) 0.115(15) 0.21(2) 0.044(12) 0.05(2) 0.031(18)
P40B 0.217(6) 0.277(8) 0.107(3) 0.000 0.000 0.065(5)
O10B 0.110(4) 0.104(4) 0.084(3) 0.005(3) -0.007(2) -0.021(3)
O11B 0.114(4) 0.089(4) 0.088(3) -0.003(2) -0.016(2) -0.013(3)
O12B 0.165(5) 0.083(3) 0.077(3) -0.007(2) -0.012(3) -0.011(3)
O13B 0.243(7) 0.125(5) 0.072(3) 0.003(3) -0.021(4) -0.066(5)
O40B 0.134(8) 0.40(2) 0.157(10) 0.000 0.000 0.033(9)
C10B 0.202(10) 0.161(9) 0.094(5) -0.011(5) 0.000(6) -0.070(8)
C11B 0.149(7) 0.136(7) 0.089(5) 0.005(4) -0.014(5) -0.043(6)
C12B 0.126(6) 0.092(5) 0.079(4) 0.008(3) -0.017(4) -0.016(4)
C13B 0.148(7) 0.097(6) 0.083(4) 0.000(4) -0.015(4) -0.015(5)
C14B 0.187(8) 0.089(5) 0.079(4) -0.002(4) -0.016(4) -0.034(5)
C15B 0.216(10) 0.125(8) 0.088(5) -0.006(5) -0.003(5) -0.062(7)
C16B 0.094(5) 0.087(5) 0.092(4) 0.009(3) -0.023(4) -0.003(4)
C17B 0.178(8) 0.083(5) 0.088(4) -0.010(4) -0.007(5) -0.019(5)
C20B 0.153(9) 0.112(9) 0.088(6) 0.000 0.000 -0.015(8)
C21B 0.169(8) 0.270(16) 0.094(5) 0.005(7) -0.009(5) -0.077(10)
C22B 0.179(10) 0.69(4) 0.116(10) -0.029(17) -0.017(8) 0.027(19)
C23B 0.166(18) 1.19(11) 0.143(15) 0.000 0.000 -0.11(4)
C40B 0.32(2) 0.286(18) 0.171(12) 0.001(11) -0.074(11) 0.117(14)
C41B 0.33(2) 0.27(2) 0.29(2) -0.029(14) 0.005(15) 0.114(15)
C42B 0.34(2) 0.36(2) 0.550 -0.247(17) -0.170 0.172(16)
C43B 0.38(2) 0.31(2) 0.140(12) -0.009(12) -0.011(11) 0.106(16)
C44B 0.47(2) 0.34(2) 0.128(11) -0.028(13) 0.024(14) 0.104(17)
C45B 0.346(19) 0.280(19) 0.117(9) 0.011(10) -0.032(11) 0.078(14)
C60 0.58(12) 0.57(13) 0.37(8) 0.000 -0.27(8) 0.000
N60 0.22(5) 0.05(3) 0.14(4) 0.000 0.000 0.000
loop_
_atom_type_symbol
_atom_type_description
_atom_type_scat_dispersion_real
_atom_type_scat_dispersion_imag
_atom_type_scat_source
C C 0.0181 0.0091 'International Tables Vol C Tables 4.2.6.8 and 6.1.1.4'
H H 0.0000 0.0000 'International Tables Vol C Tables 4.2.6.8 and 6.1.1.4'
O O 0.0492 0.0322 'International Tables Vol C Tables 4.2.6.8 and 6.1.1.4'
P P 0.2955 0.4335 'International Tables Vol C Tables 4.2.6.8 and 6.1.1.4'
Cu Cu -1.9646 0.5888 'International Tables Vol C Tables 4.2.6.8 and 6.1.1.4'
Cl Cl 0.3639 0.7018 'International Tables Vol C Tables 4.2.6.8 and 6.1.1.4'
N N 0.0311 0.0180 'International Tables Vol C Tables 4.2.6.8 and 6.1.1.4'
loop_
_geom_angle_atom_site_label_1
_geom_angle_atom_site_label_2
_geom_angle_atom_site_label_3
_geom_angle
_geom_angle_site_symmetry_1
_geom_angle_site_symmetry_3
Cu3 O1 Cu3 180.0 9 .
O11B Cu1 O10A 90.2(2) . .
O11B Cu1 O11A 88.3(2) . 13
O10A Cu1 O11A 168.0(2) . 13
O11B Cu1 O10B 166.5(2) . 13
O10A Cu1 O10B 90.0(2) . 13
O11A Cu1 O10B 88.7(2) 13 13
O11B Cu1 O100 97.4(2) . .
O10A Cu1 O100 94.1(2) . .
O11A Cu1 O100 97.9(2) 13 .
O10B Cu1 O100 96.0(2) 13 .
O11B Cu1 Cu1 80.87(15) . 13
O10A Cu1 Cu1 83.58(15) . 13
O11A Cu1 Cu1 84.45(14) 13 13
O10B Cu1 Cu1 85.77(15) 13 13
O100 Cu1 Cu1 177.04(17) . 13
O12B Cu2 O12B 88.1(3) 2 12
O12B Cu2 O12B 90.1(3) 2 11
O12B Cu2 O12B 165.8(3) 12 11
O12B Cu2 O12B 165.8(3) 2 .
O12B Cu2 O12B 90.1(3) 12 .
O12B Cu2 O12B 88.1(3) 11 .
O12B Cu2 O200 97.12(15) 2 .
O12B Cu2 O200 97.12(15) 12 .
O12B Cu2 O200 97.12(15) 11 .
O12B Cu2 O200 97.12(15) . .
O12B Cu2 Cu3 82.88(15) 2 .
O12B Cu2 Cu3 82.88(15) 12 .
O12B Cu2 Cu3 82.88(15) 11 .
O12B Cu2 Cu3 82.88(15) . .
O200 Cu2 Cu3 180.0 . .
O13B Cu3 O13B 170.3(3) . 2
O13B Cu3 O13B 88.6(5) . 12
O13B Cu3 O13B 90.5(5) 2 12
O13B Cu3 O13B 90.5(5) . 11
O13B Cu3 O13B 88.6(5) 2 11
O13B Cu3 O13B 170.3(3) 12 11
O13B Cu3 O1 94.83(16) . .
O13B Cu3 O1 94.83(16) 2 .
O13B Cu3 O1 94.83(16) 12 .
O13B Cu3 O1 94.83(16) 11 .
O13B Cu3 Cu2 85.17(16) . .
O13B Cu3 Cu2 85.17(16) 2 .
O13B Cu3 Cu2 85.17(16) 12 .
O13B Cu3 Cu2 85.17(16) 11 .
O1 Cu3 Cu2 180.0 . .
O40A P40A C40A 117.4(9) . .
O40A P40A C20A 107.3(11) . .
C40A P40A C20A 110.4(5) . .
O40A P40A C41A 46.2(9) . 12_655
C40A P40A C41A 71.4(13) . 12_655
C20A P40A C41A 122.4(9) . 12_655
O40A P40A C41A 46.2(14) . 2_655
C40A P40A C41A 127.1(14) . 2_655
C20A P40A C41A 122.4(10) . 2_655
C41A P40A C41A 78.7(19) 12_655 2_655
C14A O10A Cu1 123.6(5) . .
C14A O11A Cu1 122.9(5) . 13
P40A O40A H41A 124.9(19) . 12_655
C11A C10A C11A 119.0(8) 12_655 .
C11A C10A C21A 120.4(4) 12_655 .
C11A C10A C21A 120.4(4) . .
C12A C11A C10A 120.2(5) . .
C12A C11A H11A 119.9 . .
C10A C11A H11A 119.9 . .
C11A C12A C13A 120.1(5) . .
C11A C12A C14A 121.3(5) . .
C13A C12A C14A 118.6(6) . .
C12A C13A C12A 120.2(8) . 12_655
C12A C13A H13A 119.9 . .
C12A C13A H13A 119.9 12_655 .
O11A C14A O10A 125.4(7) . .
O11A C14A C12A 118.5(6) . .
O10A C14A C12A 116.1(6) . .
C21A C20A C21A 119.8(9) . 2_655
C21A C20A P40A 119.4(4) . .
C21A C20A P40A 119.4(4) 2_655 .
C22A C21A C20A 120.0(6) . .
C22A C21A C10A 115.1(7) . .
C20A C21A C10A 124.9(8) . .
C21A C22A C23A 120.2(7) . .
C21A C22A H22A 119.9 . .
C23A C22A H22A 119.9 . .
C22A C23A C22A 119.8(12) 2_655 .
C22A C23A H23A 120.1 2_655 .
C22A C23A H23A 120.1 . .
C41A C40A C45A 120.0 . .
C41A C40A P40A 130.5(11) . .
C45A C40A P40A 109.1(11) . .
C41A C40A H45A 40.1(10) . 12_655
C45A C40A H45A 79.9(10) . 12_655
P40A C40A H45A 168.4(15) . 12_655
C42A C41A C40A 120.0 . .
C42A C41A P40A 158.3(7) . 2_655
C40A C41A P40A 39.1(7) . 2_655
C42A C41A H41A 120.0 . .
C40A C41A H41A 120.0 . .
P40A C41A H41A 81.2 2_655 .
C42A C41A H45A 63.2(13) . 12_655
C40A C41A H45A 56.8(13) . 12_655
P40A C41A H45A 95.5(17) 2_655 12_655
H41A C41A H45A 176.5 . 12_655
C43A C42A C41A 120.0 . .
C43A C42A H42A 120.0 . .
C41A C42A H42A 120.0 . .
C43A C42A H45A 80.7(6) . 12_655
C41A C42A H45A 39.3(6) . 12_655
H42A C42A H45A 159.3 . 12_655
C42A C43A C44A 120.0 . .
C42A C43A H43A 120.0 . .
C44A C43A H43A 120.0 . .
C42A C43A H44A 156.0(13) . 12_655
C44A C43A H44A 36.0(13) . 12_655
H43A C43A H44A 84.0 . 12_655
C45A C44A C43A 120.0 . .
C45A C44A H44A 120.0 . .
C43A C44A H44A 120.0 . .
C45A C44A H44A 173(4) . 12_655
C43A C44A H44A 53(4) . 12_655
H44A C44A H44A 67.0 . 12_655
C44A C45A C40A 120.0 . .
C44A C45A H45A 120.0 . .
C40A C45A H45A 120.0 . .
O40B P40B C20B 116.7(8) . .
O40B P40B C40B 114.1(8) . 10
C20B P40B C40B 104.2(6) . 10
O40B P40B C40B 114.1(8) . .
C20B P40B C40B 104.2(6) . .
C40B P40B C40B 102.0(9) 10 .
C16B O10B Cu1 120.3(5) . 13
C16B O11B Cu1 127.6(5) . .
C17B O12B Cu2 123.7(5) . .
C17B O13B Cu3 123.8(6) . .
C15B C10B C11B 118.1(9) . .
C15B C10B C21B 119.1(8) . .
C11B C10B C21B 122.7(9) . .
C12B C11B C10B 121.6(9) . .
C12B C11B H11B 119.2 . .
C10B C11B H11B 119.2 . .
C11B C12B C13B 118.6(7) . .
C11B C12B C16B 123.1(8) . .
C13B C12B C16B 118.2(7) . .
C14B C13B C12B 121.3(8) . .
C14B C13B H13B 119.4 . .
C12B C13B H13B 119.4 . .
C15B C14B C13B 119.1(8) . .
C15B C14B C17B 121.1(7) . .
C13B C14B C17B 119.8(8) . .
C14B C15B C10B 121.2(8) . .
C14B C15B H15B 119.4 . .
C10B C15B H15B 119.4 . .
O10B C16B O11B 125.2(7) . .
O10B C16B C12B 116.7(7) . .
O11B C16B C12B 118.0(7) . .
O13B C17B O12B 124.5(9) . .
O13B C17B C14B 118.6(8) . .
O12B C17B C14B 116.9(7) . .
C21B C20B C21B 121.8(9) . 10
C21B C20B P40B 118.1(5) . .
C21B C20B P40B 118.1(5) 10 .
C20B C21B C22B 119.3(6) . .
C20B C21B C10B 120.4(8) . .
C22B C21B C10B 118.2(8) . .
C23B C22B C21B 118.8(7) . .
C23B C22B H22B 120.6 . .
C21B C22B H22B 120.6 . .
C22B C23B C22B 121.8(11) 10 .
C22B C23B H23B 119.1 10 .
C22B C23B H23B 119.1 . .
C41B C40B C45B 120.0 . .
C41B C40B P40B 116.1(12) . .
C45B C40B P40B 123.9(12) . .
C40B C41B C42B 120.0 . .
C40B C41B H41B 120.0 . .
C42B C41B H41B 120.0 . .
C41B C42B C43B 120.0 . .
C41B C42B H42B 120.0 . .
C43B C42B H42B 120.0 . .
C42B C43B C44B 120.0 . .
C42B C43B H43B 120.0 . .
C44B C43B H43B 120.0 . .
C45B C44B C43B 120.0 . .
C45B C44B H44B 120.0 . .
C43B C44B H44B 120.0 . .
C44B C45B C40B 120.0 . .
C44B C45B H45B 120.0 . .
C40B C45B H45B 120.0 . .
N60 C60 H60A 109.5 . .
N60 C60 H60B 109.5 . .
H60A C60 H60B 109.5 . .
N60 C60 H60C 109.5 . .
H60A C60 H60C 109.5 . .
H60B C60 H60C 109.5 . .
C60 N60 C60 110(3) . 4
C60 N60 H60D 109.7 . .
C60 N60 H60D 109.7 4 .
C60 N60 H60E 109.7 . .
C60 N60 H60E 109.7 4 .
H60D N60 H60E 108.2 . .
loop_
_geom_bond_atom_site_label_1
_geom_bond_atom_site_label_2
_geom_bond_distance
_geom_bond_site_symmetry_2
O1 Cu3 2.3947(17) 9
O1 Cu3 2.3948(17) .
O100 Cu1 2.204(5) .
O200 Cu2 2.382(8) .
Cu1 O11B 1.937(5) .
Cu1 O10A 1.940(5) .
Cu1 O11A 1.952(5) 13
Cu1 O10B 1.980(5) 13
Cu1 Cu1 2.6607(18) 13
Cu2 O12B 1.950(5) 2
Cu2 O12B 1.950(5) 12
Cu2 O12B 1.950(5) 11
Cu2 O12B 1.950(5) .
Cu2 Cu3 2.646(3) .
Cu3 O13B 1.911(6) .
Cu3 O13B 1.911(6) 2
Cu3 O13B 1.911(6) 12
Cu3 O13B 1.911(6) 11
P40A O40A 1.506(10) .
P40A C40A 1.786(8) .
P40A C20A 1.822(8) .
P40A C41A 2.35(2) 12_655
P40A C41A 2.354(19) 2_655
O10A C14A 1.290(8) .
O11A C14A 1.248(8) .
O40A H41A 1.19(3) 12_655
C10A C11A 1.396(7) 12_655
C10A C11A 1.396(7) .
C10A C21A 1.517(12) .
C11A C12A 1.378(8) .
C11A H11A 0.9500 .
C12A C13A 1.381(7) .
C12A C14A 1.497(9) .
C13A H13A 0.9500 .
C20A C21A 1.384(9) .
C20A C21A 1.384(9) 2_655
C21A C22A 1.368(13) .
C22A C23A 1.381(11) .
C22A H22A 0.9500 .
C23A H23A 0.9500 .
C40A C41A 1.3900 .
C40A C45A 1.3900 .
C40A H45A 1.171(17) 12_655
C41A C42A 1.3900 .
C41A H41A 0.9500 .
C41A H45A 0.903(19) 12_655
C42A C43A 1.3900 .
C42A H42A 0.9500 .
C42A H45A 1.27(2) 12_655
C43A C44A 1.3900 .
C43A H43A 0.9500 .
C43A H44A 1.11(5) 12_655
C44A C45A 1.3900 .
C44A H44A 0.9500 .
C44A H44A 0.82(3) 12_655
C45A H45A 0.9500 .
P40B O40B 1.494(9) .
P40B C20B 1.801(8) .
P40B C40B 1.816(7) 10
P40B C40B 1.816(7) .
O10B C16B 1.224(8) .
O11B C16B 1.264(9) .
O12B C17B 1.284(9) .
O13B C17B 1.251(8) .
C10B C15B 1.403(12) .
C10B C11B 1.427(12) .
C10B C21B 1.497(12) .
C11B C12B 1.358(11) .
C11B H11B 0.9500 .
C12B C13B 1.409(10) .
C12B C16B 1.470(10) .
C13B C14B 1.400(10) .
C13B H13B 0.9500 .
C14B C15B 1.374(11) .
C14B C17B 1.472(12) .
C15B H15B 0.9500 .
C20B C21B 1.391(7) .
C20B C21B 1.391(7) 10
C21B C22B 1.409(9) .
C22B C23B 1.397(8) .
C22B H22B 0.9500 .
C23B H23B 0.9500 .
C40B C41B 1.3900 .
C40B C45B 1.3900 .
C41B C42B 1.3900 .
C41B H41B 0.9500 .
C42B C43B 1.3900 .
C42B H42B 0.9500 .
C43B C44B 1.3900 .
C43B H43B 0.9500 .
C44B C45B 1.3900 .
C44B H44B 0.9500 .
C45B H45B 0.9500 .
C60 N60 1.53(2) .
C60 H60A 0.9800 .
C60 H60B 0.9800 .
C60 H60C 0.9800 .
N60 H60D 0.9100 .
N60 H60E 0.9100 .
