#------------------------------------------------------------------------------
#$Date: 2019-11-08 00:27:12 +0200 (Fri, 08 Nov 2019) $
#$Revision: 224262 $
#$URL: file:///home/coder/svn-repositories/cod/cif/7/70/12/7701229.cif $
#------------------------------------------------------------------------------
#
# This file is available in the Crystallography Open Database (COD),
# http://www.crystallography.net/
#
# All data on this site have been placed in the public domain by the
# contributors.
#
data_7701229
loop_
_publ_author_name
'Stein, Timo'
'Hoffmann, Frank'
'Fr\"oba, Michael'
_publ_section_title
;
 A new set of metal-organic frameworks synthesised from
 diisophthalate-based, 2'-phosphorus-substituted m-terphenyl linker
 molecules.
;
_journal_issue                   40
_journal_name_full
'Dalton transactions (Cambridge, England : 2003)'
_journal_page_first              15127
_journal_page_last               15135
_journal_paper_doi               10.1039/c9dt03044a
_journal_volume                  48
_journal_year                    2019
_chemical_formula_moiety
'3(C34 H19 O8 P 4-), 4(Cd 2+), 4(C2 H8 N +), (H2 O)'
_chemical_formula_sum            'C110 H91 Cd4 N4 O25 P3'
_chemical_formula_weight         2411.37
_chemical_name_common            UHM-70
_space_group_crystal_system      orthorhombic
_space_group_IT_number           58
_space_group_name_Hall           '-P 2 2n'
_space_group_name_H-M_alt        'P n n m'
_symmetry_space_group_name_Hall  '-P 2 2n'
_symmetry_space_group_name_H-M   'P n n m'
_atom_sites_solution_hydrogens   mixed
_audit_creation_method           SHELXL-2018/3
_audit_update_record
;
2019-07-24 deposited with the CCDC.    2019-08-14 downloaded from the CCDC.
;
_cell_angle_alpha                90
_cell_angle_beta                 90
_cell_angle_gamma                90
_cell_formula_units_Z            4
_cell_length_a                   15.7544(2)
_cell_length_b                   20.0444(2)
_cell_length_c                   42.0915(5)
_cell_measurement_reflns_used    24840
_cell_measurement_temperature    100(2)
_cell_measurement_theta_max      76.0140
_cell_measurement_theta_min      3.8190
_cell_volume                     13292.0(3)
_computing_cell_refinement       'CrysAlisPro 1.171.39.46 (Rigaku OD, 2018)'
_computing_data_collection       'CrysAlisPro 1.171.39.46 (Rigaku OD, 2018)'
_computing_data_reduction        'CrysAlisPro 1.171.39.46 (Rigaku OD, 2018)'
_computing_structure_refinement  'SHELXL-2018/3 (Sheldrick, 2018)'
_computing_structure_solution    'SHELXT 2018/2 (Sheldrick, 2018)'
_diffrn_ambient_environment      N~2~
_diffrn_ambient_temperature      100(2)
_diffrn_detector                 'CCD plate'
_diffrn_detector_area_resol_mean 5.2063
_diffrn_detector_type            Atlas
_diffrn_measured_fraction_theta_full 1.000
_diffrn_measured_fraction_theta_max 1.000
_diffrn_measurement_details
;
List of Runs (angles in degrees, time in seconds):

  # Type    Start    End  Width  t~exp~   \w     \q     \k     \f   Frames
#--------------------------------------------------------------------------
  1  \w   -117.00 -18.00   1.00    4.00    --  -42.35 -38.00  30.00   99
  2  \w   -115.00 -61.00   1.00    4.00    --  -42.35-145.00 121.00   54
  3  \w   -115.00 -14.00   1.00    4.00    --  -42.35 -57.00-180.00  101
  4  \w     29.00 109.00   1.00   20.00    --  112.00 -94.00  90.00   80
  5  \w     83.00 178.00   1.00   20.00    --  112.00  61.00 150.00   95
  6  \w     29.00 109.00   1.00   20.00    --  112.00 -94.00-150.00   80
  7  \w     36.00 116.00   1.00   20.00    --  112.00-111.00  60.00   80
  8  \w     29.00 109.00   1.00   20.00    --  112.00 -94.00-180.00   80
  9  \w     84.00 178.00   1.00   20.00    --  112.00  30.00-180.00   94
 10  \w     86.00 178.00   1.00   20.00    --  112.00  45.00 -90.00   92
 11  \w   -115.00 -20.00   1.00    4.00    --  -42.35 -57.00 -60.00   95
;
_diffrn_measurement_device       'four-circle diffractometer'
_diffrn_measurement_device_type  'SuperNova, Dual, Cu at home/near, Atlas'
_diffrn_measurement_method       '\w scans'
_diffrn_orient_matrix_type
'CrysAlisPro convention (1999,Acta A55,543-557)'
_diffrn_orient_matrix_UB_11      -0.0277411000
_diffrn_orient_matrix_UB_12      0.0361946000
_diffrn_orient_matrix_UB_13      -0.0305788000
_diffrn_orient_matrix_UB_21      -0.0523904000
_diffrn_orient_matrix_UB_22      0.0495884000
_diffrn_orient_matrix_UB_23      0.0199674000
_diffrn_orient_matrix_UB_31      0.0777501000
_diffrn_orient_matrix_UB_32      0.0462228000
_diffrn_orient_matrix_UB_33      0.0025594000
_diffrn_radiation_monochromator  mirror
_diffrn_radiation_probe          x-ray
_diffrn_radiation_type           CuK\a
_diffrn_radiation_wavelength     1.54184
_diffrn_reflns_av_R_equivalents  0.0454
_diffrn_reflns_av_unetI/netI     0.0268
_diffrn_reflns_Laue_measured_fraction_full 1.000
_diffrn_reflns_Laue_measured_fraction_max 1.000
_diffrn_reflns_limit_h_max       18
_diffrn_reflns_limit_h_min       -18
_diffrn_reflns_limit_k_max       24
_diffrn_reflns_limit_k_min       -17
_diffrn_reflns_limit_l_max       49
_diffrn_reflns_limit_l_min       -50
_diffrn_reflns_number            68468
_diffrn_reflns_point_group_measured_fraction_full 1.000
_diffrn_reflns_point_group_measured_fraction_max 1.000
_diffrn_reflns_theta_full        67.495
_diffrn_reflns_theta_max         67.495
_diffrn_reflns_theta_min         3.568
_diffrn_source                   'micro-focus sealed X-ray tube'
_diffrn_source_type              'SuperNova (Cu) X-ray Source'
_exptl_absorpt_coefficient_mu    5.895
_exptl_absorpt_correction_T_max  1.00000
_exptl_absorpt_correction_T_min  0.29746
_exptl_absorpt_correction_type   multi-scan
_exptl_absorpt_process_details
;
CrysAlisPro 1.171.39.46 (Rigaku Oxford Diffraction, 2018)
Empirical absorption correction using spherical harmonics,
 implemented in SCALE3 ABSPACK scaling algorithm.
;
_exptl_crystal_colour            colorless
_exptl_crystal_density_diffrn    1.205
_exptl_crystal_description       block
_exptl_crystal_F_000             4864
_exptl_crystal_size_max          0.30
_exptl_crystal_size_mid          0.30
_exptl_crystal_size_min          0.05
_refine_diff_density_max         2.520
_refine_diff_density_min         -0.786
_refine_diff_density_rms         0.125
_refine_ls_extinction_method     none
_refine_ls_goodness_of_fit_ref   1.049
_refine_ls_hydrogen_treatment    mixed
_refine_ls_matrix_type           full
_refine_ls_number_parameters     720
_refine_ls_number_reflns         12155
_refine_ls_number_restraints     206
_refine_ls_restrained_S_all      1.047
_refine_ls_R_factor_all          0.0839
_refine_ls_R_factor_gt           0.0770
_refine_ls_shift/su_max          0.001
_refine_ls_shift/su_mean         0.000
_refine_ls_structure_factor_coef Fsqd
_refine_ls_weighting_details
'w=1/[\s^2^(Fo^2^)+(0.0913P)^2^+92.1801P] where P=(Fo^2^+2Fc^2^)/3'
_refine_ls_weighting_scheme      calc
_refine_ls_wR_factor_gt          0.2081
_refine_ls_wR_factor_ref         0.2141
_reflns_Friedel_coverage         0.000
_reflns_number_gt                10527
_reflns_number_total             12155
_reflns_threshold_expression     'I > 2\s(I)'
_cod_data_source_file            c9dt03044a2.cif
_cod_data_source_block           UHM-70
_cod_depositor_comments
'Adding full bibliography for 7701221--7701232.cif.'
_cod_database_code               7701229
_shelx_shelxl_version_number     2018/3
_shelx_space_group_comment
;
The symmetry employed for this shelxl refinement is uniquely defined
by the following loop, which should always be used as a source of
symmetry information in preference to the above space-group names.
They are only intended as comments.
;
_cell_oxdiff_length_a            15.7567(3)
_cell_oxdiff_length_b            20.0469(3)
_cell_oxdiff_length_c            42.0801(7)
_cell_oxdiff_angle_alpha         90.0340(14)
_cell_oxdiff_angle_beta          90.0189(15)
_cell_oxdiff_angle_gamma         89.9374(16)
_cell_oxdiff_volume              13291.9(4)
_cell_oxdiff_measurement_reflns_used 24759
_shelx_estimated_absorpt_t_min   0.271
_shelx_estimated_absorpt_t_max   0.757
_oxdiff_exptl_absorpt_empirical_full_min 0.662
_oxdiff_exptl_absorpt_empirical_full_max 2.588
_oxdiff_exptl_absorpt_empirical_details
;
Empirical correction (ABSPACK) includes:
- Absorption correction using spherical harmonics
- Frame scaling
;
_shelx_res_file
;
TITL UHM-70 in Pnnm
    UHM-70.res
    created by SHELXL-2018/3 at 12:35:16 on 18-Feb-2019
REM SHELXT solution in Pnnm: R1 0.193, Rweak 0.015, Alpha 0.065
REM <I/s> 1.163 for 931 systematic absences, Orientation as input
REM Formula found by SHELXT: C104 O31 P3 Cd4

CELL  1.54184  15.7544  20.0444  42.0915   90.000   90.000   90.000
ZERR    4.00   0.0002   0.0002   0.0005    0.000    0.000    0.000
LATT   1
SYMM  - X, - Y,   Z
SYMM  1/2 - X, 1/2 + Y, 1/2 - Z
SYMM  1/2 + X, 1/2 - Y, 1/2 - Z
SFAC  C    H    O    P    CD   N
UNIT  440  364  100  12   16   16
MERG   2
MORE -1
EQIV $1 x,y,1-z
EQIV $2 -x, -y, z
EQIV $3 0.5-x,-0.5+y,0.5-z
EQIV $4 -0.5+x,0.5-y,0.5-z
EQIV $5 -x,-y,z

REM dimethylammonium cations
DFIX 1.505 N100 C100 N100 C101
DANG 2.529 C100 C101
DFIX 1.505 N200 C200 N200 C201
DANG 2.529 C200 C201
DFIX 1.505 N300 C300 N300 C301
DANG 2.529 C300 C301
DFIX 1.505 N400 C400 N400 C401
DANG 2.529 C400 C401
ISOR 0.10 N300 C300 C301 N100 C100 C101 N400 C400 C401

REM water molecule
DFIX 0.96 O500 H500
DFIX 0.96 O500 H501
DANG 1.52 H500 H501
SADI H500 O12A_$3 H501 O12A_$4
FLAT O12A_$4 O12A_$3 H501 H500

REM idealization of dimethylammonium cations
RIGU N200 C200 C201 N300 C300 C301 N400 C400 C401
ISOR 0.03 C100 N100 C101
ISOR 0.03 C300 N300 C301
ISOR 0.03 C400 N400 C401

REM reduce parameters regarding P-attached phenyls near m
EADP C40B C46B
EADP C41B C45B C47B C51B
EADP C42B C44B C48B C50B
EADP C43B C49B

REM ADP optimizations
RIGU C20B > C25B
RIGU C40B > C45B
RIGU C46B > C51B

REM cut weaker data and reflns Fo << Fc
OMIT -4 135
OMIT 2 1 0

SIZE 0.30 0.30 0.05
TEMP -173
FMAP   2
PLAN   99
ACTA
BOND
L.S. 3 0  105
ABIN
WGHT    0.091300   92.180099
FVAR       0.09998
CD1   5    0.428542    0.181215    0.115056    11.00000    0.05999    0.02834 =
         0.03400   -0.00067    0.00135    0.00463
CD2   5    0.110487    0.177146    0.386879    11.00000    0.07130    0.02848 =
         0.03189   -0.00425    0.00252   -0.00787
P40A  4    0.228428    0.444586    0.241913    11.00000    0.05043    0.06125 =
         0.04010    0.00512    0.00432    0.00108
O10A  3    0.466288    0.314367    0.113414    11.00000    0.06664    0.04232 =
         0.03644   -0.00703    0.00275    0.01153
O11A  3    0.403267    0.258336    0.152218    11.00000    0.09342    0.02824 =
         0.04600   -0.00355    0.01043    0.00242
O12A  3    0.395007    0.559923    0.113264    11.00000    0.07341    0.03665 =
         0.03558    0.00714    0.00031    0.00607
O13A  3    0.376465    0.611152    0.158696    11.00000    0.07120    0.02481 =
         0.03914    0.00370    0.00598    0.00759
O30A  3    0.071153    0.320218    0.388927    11.00000    0.05853    0.04938 =
         0.04238    0.00848    0.00574   -0.00778
O31A  3    0.166274    0.262184    0.361408    11.00000    0.09106    0.03125 =
         0.04726   -0.00203    0.01703   -0.01262
O32A  3    0.079792    0.567755    0.383866    11.00000    0.05971    0.04171 =
         0.06430   -0.01151    0.01878   -0.00524
O33A  3    0.165146    0.617405    0.350368    11.00000    0.09831    0.02943 =
         0.05121    0.00837    0.02113    0.01053
C10A  1    0.397299    0.430238    0.208951    11.00000    0.04243    0.03077 =
         0.03680    0.00030    0.00747    0.00201
C11A  1    0.410858    0.372502    0.191173    11.00000    0.05089    0.02413 =
         0.04024    0.00500    0.00505    0.00438
AFIX  43
H11A  2    0.417388    0.330982    0.201779    11.00000   -1.20000
AFIX   0
C12A  1    0.414936    0.374640    0.158574    11.00000    0.04766    0.02770 =
         0.04007    0.00068    0.00725    0.00261
C13A  1    0.407115    0.434875    0.142548    11.00000    0.03501    0.02939 =
         0.03980    0.00170    0.00321   -0.00116
AFIX  43
H13A  2    0.411203    0.436465    0.120043    11.00000   -1.20000
AFIX   0
C14A  1    0.393082    0.493355    0.160097    11.00000    0.04207    0.03129 =
         0.03518    0.00284    0.00174    0.00005
C15A  1    0.388187    0.490401    0.193021    11.00000    0.04457    0.03028 =
         0.03686   -0.00041    0.00377    0.00458
AFIX  43
H15A  2    0.378468    0.530119    0.204787    11.00000   -1.20000
AFIX   0
C16A  1    0.430303    0.311379    0.140044    11.00000    0.06143    0.03138 =
         0.04235   -0.00072   -0.00258    0.00740
C17A  1    0.387754    0.559415    0.143234    11.00000    0.04630    0.03147 =
         0.04048    0.00212    0.00122    0.00477
C20A  1    0.327793    0.433831    0.263815    11.00000    0.03980    0.02769 =
         0.04209    0.00056    0.00555   -0.00058
C21A  1    0.400910    0.425422    0.244282    11.00000    0.04633    0.03481 =
         0.03586    0.00487    0.00803    0.00054
C22A  1    0.479867    0.410519    0.257690    11.00000    0.04402    0.06238 =
         0.04700    0.01321    0.00808    0.00891
AFIX  43
H22A  2    0.527881    0.403892    0.244406    11.00000   -1.20000
AFIX   0
C23A  1    0.488003    0.405417    0.290448    11.00000    0.03772    0.08967 =
         0.05565    0.02155    0.00023    0.00749
AFIX  43
H23A  2    0.541653    0.395916    0.299705    11.00000   -1.20000
AFIX   0
C24A  1    0.416929    0.414335    0.309601    11.00000    0.04872    0.07264 =
         0.03926    0.01383    0.00240   -0.00582
AFIX  43
H24A  2    0.423079    0.410919    0.331994    11.00000   -1.20000
AFIX   0
C25A  1    0.338085    0.427928    0.297185    11.00000    0.03889    0.03396 =
         0.03863   -0.00027    0.00314   -0.00100
C30A  1    0.266409    0.433983    0.320459    11.00000    0.04638    0.03751 =
         0.03087    0.00272    0.00263   -0.00124
C31A  1    0.234725    0.376614    0.334146    11.00000    0.05646    0.03086 =
         0.03216   -0.00264   -0.00029    0.00147
AFIX  43
H31A  2    0.258204    0.334657    0.328407    11.00000   -1.20000
AFIX   0
C32A  1    0.168828    0.379088    0.356266    11.00000    0.05490    0.03151 =
         0.02789    0.00077   -0.00005    0.00059
C33A  1    0.135277    0.440521    0.365015    11.00000    0.03968    0.03642 =
         0.02987   -0.00071    0.00317    0.00219
AFIX  43
H33A  2    0.089143    0.442783    0.379508    11.00000   -1.20000
AFIX   0
C34A  1    0.170131    0.499383    0.352250    11.00000    0.05495    0.03271 =
         0.03160   -0.00141   -0.00052    0.00232
C35A  1    0.235084    0.495636    0.329746    11.00000    0.05655    0.03370 =
         0.03351    0.00470   -0.00103   -0.00626
AFIX  43
H35A  2    0.257813    0.535311    0.320799    11.00000   -1.20000
AFIX   0
C36A  1    0.132074    0.316221    0.369416    11.00000    0.06648    0.03801 =
         0.02890    0.00099   -0.00077   -0.00676
C37A  1    0.137038    0.566114    0.362529    11.00000    0.05727    0.03612 =
         0.03672   -0.00171   -0.00326    0.00180
C40A  1    0.203337    0.533936    0.246491    11.00000    0.05361    0.07705 =
         0.04781    0.02468    0.01336    0.01833
C41A  1    0.265716    0.579328    0.256808    11.00000    0.08361    0.05285 =
         0.06584    0.00650    0.01912    0.00970
AFIX  43
H41A  2    0.319359    0.563662    0.263922    11.00000   -1.20000
AFIX   0
C42A  1    0.247871    0.648144    0.256486    11.00000    0.15007    0.04541 =
         0.11559    0.02358    0.04308    0.03534
AFIX  43
H42A  2    0.290199    0.679005    0.262998    11.00000   -1.20000
AFIX   0
C43A  1    0.170279    0.670984    0.246900    11.00000    0.13959    0.06544 =
         0.14477    0.03524    0.04838    0.03484
AFIX  43
H43A  2    0.157729    0.717320    0.247558    11.00000   -1.20000
AFIX   0
C44A  1    0.109295    0.625269    0.236066    11.00000    0.11094    0.11751 =
         0.10320    0.05950    0.04781    0.05545
AFIX  43
H44A  2    0.055779    0.640746    0.228728    11.00000   -1.20000
AFIX   0
C45A  1    0.127074    0.557809    0.236074    11.00000    0.06431    0.10574 =
         0.08518    0.04901    0.02266    0.02541
AFIX  43
H45A  2    0.085337    0.527340    0.228669    11.00000   -1.20000
AFIX   0
C46A  1    0.149546    0.398890    0.265517    11.00000    0.05537    0.07509 =
         0.03614    0.00117   -0.00421   -0.01164
C47A  1    0.083180    0.428440    0.282199    11.00000    0.04800    0.10248 =
         0.03772    0.01323   -0.00006   -0.00307
AFIX  43
H47A  2    0.078662    0.475665    0.283091    11.00000   -1.20000
AFIX   0
C48A  1    0.022605    0.388213    0.297787    11.00000    0.05584    0.12944 =
         0.04187    0.01186   -0.00237   -0.01460
AFIX  43
H48A  2   -0.023109    0.408250    0.308993    11.00000   -1.20000
AFIX   0
C49A  1    0.030008    0.319891    0.296691    11.00000    0.09403    0.09955 =
         0.04776    0.00384   -0.01026   -0.04259
AFIX  43
H49A  2   -0.010119    0.292575    0.307396    11.00000   -1.20000
AFIX   0
C50A  1    0.095846    0.291170    0.280007    11.00000    0.13567    0.08131 =
         0.05695   -0.02077    0.00569   -0.03930
AFIX  43
H50A  2    0.101064    0.243983    0.279202    11.00000   -1.20000
AFIX   0
C51A  1    0.154566    0.331093    0.264373    11.00000    0.09907    0.07067 =
         0.04746   -0.00994    0.00918   -0.02000
AFIX  43
H51A  2    0.199101    0.310715    0.252652    11.00000   -1.20000
AFIX   0
P40B  4    0.518633    0.286305    0.500000    10.50000    0.04568    0.05218 =
         0.06763    0.00000    0.00000   -0.01373
O10B  3    0.123878    0.191153    0.440861    11.00000    0.06343    0.04723 =
         0.02885   -0.00361    0.00101   -0.00267
O11B  3    0.240803    0.162034    0.415467    11.00000    0.07950    0.07829 =
         0.03767   -0.01101    0.01167   -0.00082
O30B  3    0.808055    0.286178    0.584799    11.00000    0.06321    0.07708 =
         0.03960   -0.00049    0.00742   -0.00708
O31B  3    0.921922    0.318242    0.559513    11.00000    0.04659    0.09434 =
         0.03340   -0.01400    0.00094   -0.00400
C10B  1    0.380257    0.159108    0.500000    10.50000    0.05711    0.04268 =
         0.08613    0.00000    0.00000   -0.01436
C11B  1    0.335930    0.162546    0.471807    11.00000    0.05580    0.04146 =
         0.06447   -0.00003    0.01431   -0.00953
AFIX  43
H11B  2    0.365684    0.158671    0.452263    11.00000   -1.20000
AFIX   0
C12B  1    0.249180    0.171510    0.471485    11.00000    0.06007    0.03705 =
         0.04125   -0.00320    0.00281   -0.01045
C13B  1    0.205106    0.177952    0.500000    10.50000    0.03908    0.04555 =
         0.04447    0.00000    0.00000   -0.00733
AFIX  43
H13B  2    0.145823    0.186620    0.499999    10.50000   -1.20000
AFIX   0
C14B  1    0.201911    0.175348    0.440625    11.00000    0.06165    0.03936 =
         0.04176   -0.00246    0.00423   -0.01585
AFIX  66
C20B  1    0.536102    0.194716    0.500000    10.50000    0.04309    0.05439 =
         0.05274    0.00000    0.00000   -0.01717
PART -1
C21B  1    0.473447    0.147346    0.494369    10.50000    0.04370    0.05523 =
         0.09357   -0.00391   -0.00182   -0.01183
C22B  1    0.495814    0.083257    0.484935    10.50000    0.04646    0.05561 =
         0.12371   -0.00787    0.00329   -0.01138
AFIX  43
H22B  2    0.452992    0.050882    0.481087    10.50000   -1.20000
AFIX  65
C23B  1    0.580835    0.066538    0.481133    10.50000    0.05550    0.06115 =
         0.17945   -0.02223    0.00996   -0.00413
AFIX  43
H23B  2    0.596121    0.022736    0.474685    10.50000   -1.20000
AFIX  65
C24B  1    0.643491    0.113908    0.486764    10.50000    0.05601    0.07101 =
         0.11862   -0.01120    0.00573   -0.00849
AFIX  43
H24B  2    0.701599    0.102481    0.484165    10.50000   -1.20000
AFIX  65
C25B  1    0.621125    0.177997    0.496197    10.50000    0.04590    0.06742 =
         0.09331   -0.00639    0.00757   -0.01881
AFIX   0
PART 0
C30B  1    0.693978    0.225360    0.500000    10.50000    0.04753    0.05210 =
         0.06650    0.00000    0.00000   -0.00088
C31B  1    0.731309    0.244218    0.528218    11.00000    0.04460    0.07152 =
         0.05012    0.00687    0.00796   -0.00631
AFIX  43
H31B  2    0.705620    0.231729    0.547752    11.00000   -1.20000
AFIX   0
C32B  1    0.805869    0.281182    0.528565    11.00000    0.04793    0.04904 =
         0.04110    0.00122    0.00141   -0.00058
C33B  1    0.842707    0.299224    0.500000    10.50000    0.04004    0.05220 =
         0.03911    0.00000    0.00000    0.00188
AFIX  43
H33B  2    0.893884    0.324290    0.500000    10.50000   -1.20000
AFIX   0
C34B  1    0.847233    0.297416    0.559502    11.00000    0.05371    0.06208 =
         0.03629   -0.00502    0.00353    0.00404
PART -1
AFIX  66
C40B  1    0.472519    0.299903    0.540345    10.50000    0.07943    0.07522 =
         0.08714    0.00317   -0.01425   -0.02090
C41B  1    0.485299    0.253083    0.564230    10.50000    0.08896    0.08552 =
         0.09008   -0.00293   -0.01448   -0.01998
AFIX  43
H41B  2    0.514496    0.212720    0.559701    10.50000   -1.20000
AFIX  65
C42B  1    0.455361    0.265322    0.594743    10.50000    0.11097    0.16082 =
         0.09189   -0.01530   -0.02150    0.00152
AFIX  43
H42B  2    0.464096    0.233322    0.611067    10.50000   -1.20000
AFIX  65
C43B  1    0.412643    0.324380    0.601369    10.50000    0.11240    0.16888 =
         0.09716   -0.01163   -0.02131    0.00493
AFIX  43
H43B  2    0.392181    0.332743    0.622223    10.50000   -1.20000
AFIX  65
C44B  1    0.399862    0.371200    0.577484    10.50000    0.11097    0.16082 =
         0.09189   -0.01530   -0.02150    0.00152
AFIX  43
H44B  2    0.370665    0.411563    0.582013    10.50000   -1.20000
AFIX  65
C45B  1    0.429799    0.358963    0.546971    10.50000    0.08896    0.08552 =
         0.09008   -0.00293   -0.01448   -0.01998
AFIX  43
H45B  2    0.421064    0.390962    0.530647    10.50000   -1.20000
AFIX  66
C46B  1    0.432070    0.300709    0.472897    10.50000    0.07943    0.07522 =
         0.08714    0.00317   -0.01425   -0.02090
C47B  1    0.349404    0.319487    0.480191    10.50000    0.08896    0.08552 =
         0.09008   -0.00293   -0.01448   -0.01998
AFIX  43
H47B  2    0.332583    0.324340    0.501741    10.50000   -1.20000
AFIX  65
C48B  1    0.291350    0.331166    0.455954    10.50000    0.11097    0.16082 =
         0.09189   -0.01530   -0.02150    0.00152
AFIX  43
H48B  2    0.234851    0.344000    0.460939    10.50000   -1.20000
AFIX  65
C49B  1    0.315961    0.324066    0.424422    10.50000    0.11240    0.16888 =
         0.09716   -0.01163   -0.02131    0.00493
AFIX  43
H49B  2    0.276283    0.332048    0.407857    10.50000   -1.20000
AFIX  65
C50B  1    0.398627    0.305287    0.417127    10.50000    0.11097    0.16082 =
         0.09189   -0.01530   -0.02150    0.00152
AFIX  43
H50B  2    0.415448    0.300434    0.395577    10.50000   -1.20000
AFIX  65
C51B  1    0.456682    0.293608    0.441364    10.50000    0.08896    0.08552 =
         0.09008   -0.00293   -0.01448   -0.01998
AFIX  43
H51B  2    0.513181    0.280774    0.436379    10.50000   -1.20000
AFIX   0
N100  6   -0.004355    0.111889    0.471488    10.50000    0.15992    0.12577 =
         0.09015    0.01354    0.04548   -0.04564
AFIX  23
H10A  2    0.036511    0.143257    0.468275    10.50000   -1.20000
H10B  2    0.009661    0.075794    0.459471    10.50000   -1.20000
AFIX   0
C100  1   -0.084539    0.138580    0.459366    10.50000    0.17780    0.17060 =
         0.20629    0.09772    0.06121    0.11214
AFIX  33
H10C  2   -0.078133    0.149963    0.436850    10.50000   -1.50000
H10D  2   -0.129255    0.104965    0.461755    10.50000   -1.50000
H10E  2   -0.099916    0.178683    0.471376    10.50000   -1.50000
AFIX   0
C101  1   -0.000760    0.091176    0.505945    10.50000    0.31229    0.18846 =
         0.19964    0.04772   -0.17455   -0.11700
AFIX  33
H10F  2    0.056122    0.074341    0.510897    10.50000   -1.50000
H10G  2   -0.013365    0.129729    0.519463    10.50000   -1.50000
H10H  2   -0.042704    0.056011    0.509842    10.50000   -1.50000
AFIX   0
N200  6    0.087855    0.350279    0.459386    10.50000    0.04849    0.05393 =
         0.03578   -0.00943   -0.00048   -0.00126
AFIX  23
H20A  2    0.087098    0.334303    0.439151    10.50000   -1.20000
H20B  2    0.143322    0.357735    0.464263    10.50000   -1.20000
AFIX   0
C200  1    0.045254    0.419458    0.458109    10.50000    0.04347    0.06599 =
         0.05470   -0.02408   -0.01040    0.01208
AFIX  33
H20C  2    0.075162    0.447702    0.442752    10.50000   -1.50000
H20D  2   -0.014122    0.414456    0.451590    10.50000   -1.50000
H20E  2    0.047638    0.440196    0.479175    10.50000   -1.50000
AFIX   0
C201  1    0.061194    0.297274    0.478964    10.50000    0.02093    0.04934 =
         0.01850   -0.01063   -0.00741    0.01245
AFIX  33
H20F  2    0.098165    0.258615    0.475549    10.50000   -1.50000
H20G  2    0.064315    0.311035    0.501275    10.50000   -1.50000
H20H  2    0.002554    0.285296    0.473690    10.50000   -1.50000
AFIX   0
N300  6    0.735779    0.451198    0.564740    10.50000    0.27274    0.19580 =
         0.27193    0.02383    0.02874    0.06024
AFIX  23
H30A  2    0.754710    0.492368    0.570469    10.50000   -1.20000
H30B  2    0.774939    0.420519    0.570995    10.50000   -1.20000
AFIX   0
C300  1    0.651725    0.437092    0.580606    10.50000    0.22375    0.24864 =
         0.27902    0.09280   -0.07263   -0.07367
AFIX  33
H30C  2    0.658700    0.439052    0.603723    10.50000   -1.50000
H30D  2    0.609986    0.470506    0.573912    10.50000   -1.50000
H30E  2    0.631931    0.392561    0.574483    10.50000   -1.50000
AFIX   0
C301  1    0.724584    0.448131    0.530102    10.50000    0.31975    0.02859 =
         0.28194   -0.04229    0.00268    0.04193
AFIX  33
H30F  2    0.778925    0.457244    0.519635    10.50000   -1.50000
H30G  2    0.704655    0.403580    0.524075    10.50000   -1.50000
H30H  2    0.682710    0.481524    0.523503    10.50000   -1.50000
AFIX   0
PART    0
N400  6    0.704589    0.259209    0.643777    10.50000    0.10220    0.18893 =
         0.11557    0.01298    0.02915   -0.02222
AFIX  23
H40A  2    0.690712    0.226204    0.629870    10.50000   -1.20000
H40B  2    0.757221    0.273975    0.638311    10.50000   -1.20000
AFIX   0
C400  1    0.710869    0.229319    0.675208    10.50000    0.05395    0.27746 =
         0.07053   -0.00748    0.00831    0.01815
AFIX  33
H40C  2    0.753019    0.193373    0.674815    10.50000   -1.50000
H40D  2    0.728279    0.263355    0.690600    10.50000   -1.50000
H40E  2    0.655537    0.211108    0.681368    10.50000   -1.50000
AFIX   0
C401  1    0.643270    0.315977    0.638606    10.50000    0.08864    0.23537 =
         0.19941    0.06283    0.02176   -0.01493
AFIX  33
H40F  2    0.646270    0.330675    0.616428    10.50000   -1.50000
H40G  2    0.585480    0.300945    0.643399    10.50000   -1.50000
H40H  2    0.658222    0.353192    0.652630    10.50000   -1.50000
AFIX   0
O500  3    0.000000    0.000000    0.429774    10.50000    0.15051    0.12747 =
         0.07896    0.00000    0.00000   -0.01760
PART -1
H500  2    0.045619    0.027928    0.438449    10.50000   -1.50000
H501  2    0.012158    0.007691    0.407203    10.50000   -1.50000
PART 0
HKLF    4




REM  UHM-70 in Pnnm
REM wR2 = 0.2141, GooF = S = 1.049, Restrained GooF = 1.047 for all data
REM R1 = 0.0770 for 10527 Fo > 4sig(Fo) and 0.0839 for all 12155 data
REM 720 parameters refined using 206 restraints

END

WGHT      0.0913     92.1271

REM Highest difference peak  2.520,  deepest hole -0.786,  1-sigma level  0.125
Q1    1   0.1815  0.3547  0.4545  11.00000  0.05    2.52
Q2    1   0.0000  0.5000  0.4337  10.50000  0.05    1.60
Q3    1   0.7187  0.4420  0.5407  11.00000  0.05    1.32
Q4    1   0.3766  0.1882  0.1098  11.00000  0.05    1.22
Q5    1   0.2242  0.3949  0.2412  11.00000  0.05    1.15
Q6    1   0.0420  0.4650  0.4498  11.00000  0.05    1.04
Q7    1   0.5377  0.3207  0.1140  11.00000  0.05    1.02
Q8    1   0.8029  0.4548  0.5372  11.00000  0.05    1.00
Q9    1   0.0576  0.5095  0.4453  11.00000  0.05    0.94
Q10   1   0.0610  0.1700  0.3924  11.00000  0.05    0.90
Q11   1   0.6412  0.2493  0.6640  11.00000  0.05    0.86
Q12   1   0.4276  0.1796  0.1344  11.00000  0.05    0.80
Q13   1   0.6975  0.2658  0.6746  11.00000  0.05    0.75
Q14   1   0.6398  0.2623  0.6066  11.00000  0.05    0.74
Q15   1   0.2183  0.4279  0.2129  11.00000  0.05    0.72
Q16   1   0.6641  0.2028  0.6532  11.00000  0.05    0.72
Q17   1  -0.1617  0.1009  0.4497  11.00000  0.05    0.70
Q18   1   0.6280  0.1804  0.6780  11.00000  0.05    0.70
Q19   1   0.7801  0.4571  0.5656  11.00000  0.05    0.69
Q20   1   0.1610  0.1704  0.3922  11.00000  0.05    0.69
Q21   1  -0.0627  0.1545  0.4686  11.00000  0.05    0.68
Q22   1   0.6587  0.4489  0.5109  11.00000  0.05    0.68
Q23   1   0.6149  0.3673  0.6447  11.00000  0.05    0.67
Q24   1   0.1027  0.2085  0.3866  11.00000  0.05    0.67
Q25   1   0.1052  0.1755  0.4139  11.00000  0.05    0.67
Q26   1   0.1030  0.0386  0.5000  10.50000  0.05    0.66
Q27   1   0.9275  0.3170  0.5868  11.00000  0.05    0.66
Q28   1   0.0751  0.3135  0.4785  11.00000  0.05    0.65
Q29   1   0.6799  0.4101  0.5708  11.00000  0.05    0.65
Q30   1   0.6299  0.4478  0.5986  11.00000  0.05    0.65
Q31   1   0.6567  0.1973  0.6167  11.00000  0.05    0.65
Q32   1   0.5852  0.2196  0.6811  11.00000  0.05    0.60
Q33   1   0.7017  0.1781  0.6703  11.00000  0.05    0.60
Q34   1   0.3981  0.3555  0.5897  11.00000  0.05    0.57
Q35   1   0.4269  0.1509  0.1145  11.00000  0.05    0.57
Q36   1   0.6219  0.4024  0.5602  11.00000  0.05    0.53
Q37   1   0.6361  0.4144  0.5449  11.00000  0.05    0.53
Q38   1   0.6991  0.1844  0.6236  11.00000  0.05    0.53
Q39   1   0.3017  0.3264  0.4385  11.00000  0.05    0.52
Q40   1   0.4799  0.1830  0.1084  11.00000  0.05    0.50
Q41   1   0.1153  0.1709  0.3612  11.00000  0.05    0.49
Q42   1   0.7663  0.4513  0.5000  10.50000  0.05    0.48
Q43   1   0.6242  0.2987  0.6585  11.00000  0.05    0.48
Q44   1   0.6410  0.5193  0.5912  11.00000  0.05    0.45
Q45   1   0.0388  0.4014  0.4578  11.00000  0.05    0.44
Q46   1   0.0732 -0.0021  0.4441  11.00000  0.05    0.44
Q47   1   0.7473  0.4620  0.6132  11.00000  0.05    0.43
Q48   1  -0.0532  0.1032  0.4493  11.00000  0.05    0.43
Q49   1   0.2770  0.3392  0.4673  11.00000  0.05    0.43
Q50   1   0.5555  0.5006  0.5215  11.00000  0.05    0.42
Q51   1   0.0206  0.0887  0.5000  10.50000  0.05    0.41
Q52   1   0.3955  0.3995  0.5612  11.00000  0.05    0.41
Q53   1   0.2254  0.4409  0.2664  11.00000  0.05    0.40
Q54   1   0.4766  0.2674  0.5652  11.00000  0.05    0.40
Q55   1   0.5801  0.5175  0.5434  11.00000  0.05    0.40
Q56   1   0.1219  0.4398  0.3860  11.00000  0.05    0.38
Q57   1   0.3162  0.3026  0.3888  11.00000  0.05    0.38
Q58   1   0.0631  0.5785  0.2154  11.00000  0.05    0.37
Q59   1   0.4206  0.3222  0.1100  11.00000  0.05    0.35
Q60   1   0.3455  0.3016  0.4101  11.00000  0.05    0.35
Q61   1   0.1233  0.5702  0.3893  11.00000  0.05    0.34
Q62   1   0.0611  0.2807  0.3841  11.00000  0.05    0.34
Q63   1  -0.0981  0.0735  0.4597  11.00000  0.05    0.34
Q64   1  -0.1014  0.0789  0.4449  11.00000  0.05    0.33
Q65   1   0.8382  0.2287  0.6110  11.00000  0.05    0.33
Q66   1  -0.0486  0.0542  0.4390  11.00000  0.05    0.33
Q67   1   0.1829  0.7399  0.2357  11.00000  0.05    0.33
Q68   1   0.4610  0.3109  0.5312  11.00000  0.05    0.32
Q69   1   0.3382  0.3247  0.4875  11.00000  0.05    0.32
Q70   1   0.2051  0.3954  0.4686  11.00000  0.05    0.31
Q71   1   0.1044  0.4923  0.2178  11.00000  0.05    0.31
Q72   1   0.4732  0.1915  0.6156  11.00000  0.05    0.31
Q73   1   0.4542  0.2920  0.1117  11.00000  0.05    0.30
Q74   1   0.7790  0.4961  0.5000  10.50000  0.05    0.30
Q75   1   0.8220  0.2763  0.6107  11.00000  0.05    0.30
Q76   1   0.7821  0.4956  0.5277  11.00000  0.05    0.30
Q77   1   0.8527  0.3029  0.5831  11.00000  0.05    0.30
Q78   1   0.4768  0.1278  0.4869  11.00000  0.05    0.29
Q79   1   0.9366  0.3602  0.5560  11.00000  0.05    0.29
Q80   1   0.4483  0.5528  0.1128  11.00000  0.05    0.29
Q81   1   0.1611  0.4827  0.2318  11.00000  0.05    0.29
Q82   1   0.7842  0.1786  0.6602  11.00000  0.05    0.29
Q83   1   0.4341  0.4331  0.2114  11.00000  0.05    0.28
Q84   1  -0.1266  0.0813  0.4860  11.00000  0.05    0.28
Q85   1   0.4589  0.2855  0.5374  11.00000  0.05    0.27
Q86   1   0.4148  0.3750  0.1739  11.00000  0.05    0.27
Q87   1   0.0990  0.2470  0.4271  11.00000  0.05    0.27
Q88   1   0.0652  0.3123  0.3683  11.00000  0.05    0.27
Q89   1   0.0209  0.3186  0.4438  11.00000  0.05    0.27
Q90   1   0.2214  0.3633  0.2149  11.00000  0.05    0.26
Q91   1   0.6170  0.0815  0.5000  10.50000  0.05    0.26
Q92   1   0.9528  0.2917  0.5643  11.00000  0.05    0.26
Q93   1   0.2361  0.2134  0.4121  11.00000  0.05    0.26
Q94   1   0.0948  0.6091  0.3476  11.00000  0.05    0.26
Q95   1   0.3864  0.4008  0.2023  11.00000  0.05    0.26
Q96   1   0.2103  0.1409  0.4102  11.00000  0.05    0.26
Q97   1   0.0722  0.2665  0.3001  11.00000  0.05    0.26
Q98   1   0.5647  0.2812  0.6258  11.00000  0.05    0.26
Q99   1   0.3734  0.2665  0.1688  11.00000  0.05    0.26
;
_shelx_res_checksum              49811
_shelx_fab_file
;
    2    0    0    -62.94      0.00
    4    0    0    -16.46      0.00
    6    0    0     64.77      0.00
    8    0    0     -4.94      0.00
   10    0    0      4.04      0.00
   12    0    0     -4.56      0.00
   14    0    0      9.81      0.00
   16    0    0    -19.83      0.00
   18    0    0      8.80      0.00
    1    1    0   -203.21      0.00
    2    1    0     38.29      0.00
    3    1    0     78.13      0.00
    4    1    0    -28.16      0.00
    5    1    0    -37.05      0.00
    6    1    0    -10.14      0.00
    7    1    0    -24.79      0.00
    8    1    0      8.38      0.00
    9    1    0      4.87      0.00
   10    1    0     -8.39      0.00
   11    1    0     -7.60      0.00
   12    1    0      8.33      0.00
   13    1    0      3.99      0.00
   14    1    0     16.83      0.00
   15    1    0     10.85      0.00
   16    1    0     -7.94      0.00
   17    1    0     23.03      0.00
   18    1    0      0.99      0.00
   19    1    0     -7.01      0.00
    0    2    0    234.59      0.00
    1    2    0     33.13      0.00
    2    2    0   -100.17      0.00
    3    2    0    -58.18      0.00
    4    2    0     -7.31      0.00
    5    2    0     27.59      0.00
    6    2    0     15.01      0.00
    7    2    0     -4.93      0.00
    8    2    0     -4.05      0.00
    9    2    0     -0.86      0.00
   10    2    0     -2.00      0.00
   11    2    0      6.21      0.00
   12    2    0     -1.63      0.00
   13    2    0    -21.38      0.00
   14    2    0      6.30      0.00
   15    2    0      2.67      0.00
   16    2    0     -4.59      0.00
   17    2    0      4.85      0.00
   18    2    0     -0.34      0.00
   19    2    0     -1.15      0.00
    1    3    0     90.83      0.00
    2    3    0     -7.70      0.00
    3    3    0    -14.31      0.00
    4    3    0    -16.15      0.00
    5    3    0      3.28      0.00
    6    3    0      2.02      0.00
    7    3    0      2.64      0.00
    8    3    0     18.97      0.00
    9    3    0      7.18      0.00
   10    3    0     -1.99      0.00
   11    3    0     -3.57      0.00
   12    3    0      6.37      0.00
   13    3    0     -5.01      0.00
   14    3    0     18.91      0.00
   15    3    0      8.61      0.00
   16    3    0    -13.72      0.00
   17    3    0      9.55      0.00
   18    3    0      2.53      0.00
   19    3    0      1.30      0.00
    0    4    0     13.46      0.00
    1    4    0     50.44      0.00
    2    4    0    -24.16      0.00
    3    4    0    -40.36      0.00
    4    4    0      9.03      0.00
    5    4    0      8.74      0.00
    6    4    0      1.47      0.00
    7    4    0     -8.17      0.00
    8    4    0     -0.06      0.00
    9    4    0    -11.75      0.00
   10    4    0     -2.66      0.00
   11    4    0      0.04      0.00
   12    4    0      1.80      0.00
   13    4    0    -12.48      0.00
   14    4    0      6.50      0.00
   15    4    0     -7.93      0.00
   16    4    0     -1.67      0.00
   17    4    0      3.13      0.00
   18    4    0     -8.22      0.00
   19    4    0     -4.54      0.00
    1    5    0     38.30      0.00
    2    5    0     16.89      0.00
    3    5    0      2.19      0.00
    4    5    0    -37.17      0.00
    5    5    0      2.42      0.00
    6    5    0      2.94      0.00
    7    5    0      2.67      0.00
    8    5    0      9.58      0.00
    9    5    0      9.09      0.00
   10    5    0     -1.95      0.00
   11    5    0     -4.04      0.00
   12    5    0      6.95      0.00
   13    5    0     -1.70      0.00
   14    5    0      9.91      0.00
   15    5    0      5.00      0.00
   16    5    0      3.81      0.00
   17    5    0      9.03      0.00
   18    5    0     -0.80      0.00
   19    5    0      3.94      0.00
    0    6    0     32.87      0.00
    1    6    0    -28.61      0.00
    2    6    0    -42.27      0.00
    3    6    0      0.97      0.00
    4    6    0    -14.39      0.00
    5    6    0     17.91      0.00
    6    6    0      6.16      0.00
    7    6    0     -9.70      0.00
    8    6    0      2.50      0.00
    9    6    0      7.12      0.00
   10    6    0      8.04      0.00
   11    6    0      2.46      0.00
   12    6    0     -4.96      0.00
   13    6    0      2.06      0.00
   14    6    0      7.07      0.00
   15    6    0    -13.45      0.00
   16    6    0      4.46      0.00
   17    6    0      0.52      0.00
   18    6    0     -4.76      0.00
   19    6    0     -2.27      0.00
    1    7    0      9.88      0.00
    2    7    0     29.73      0.00
    3    7    0     13.97      0.00
    4    7    0    -31.98      0.00
    5    7    0      3.72      0.00
    6    7    0     12.60      0.00
    7    7    0      6.99      0.00
    8    7    0      0.56      0.00
    9    7    0     -2.87      0.00
   10    7    0     -7.81      0.00
   11    7    0     -8.22      0.00
   12    7    0      3.21      0.00
   13    7    0      2.94      0.00
   14    7    0     -7.47      0.00
   15    7    0     -8.05      0.00
   16    7    0      5.71      0.00
   17    7    0    -17.25      0.00
   18    7    0      0.91      0.00
   19    7    0      4.30      0.00
    0    8    0     38.06      0.00
    1    8    0     -2.60      0.00
    2    8    0     -4.30      0.00
    3    8    0     -4.80      0.00
    4    8    0      9.19      0.00
    5    8    0      3.47      0.00
    6    8    0     -4.09      0.00
    7    8    0    -10.74      0.00
    8    8    0     -4.36      0.00
    9    8    0      4.47      0.00
   10    8    0      8.86      0.00
   11    8    0      0.88      0.00
   12    8    0     -1.35      0.00
   13    8    0      3.07      0.00
   14    8    0     -6.36      0.00
   15    8    0      2.97      0.00
   16    8    0     19.46      0.00
   17    8    0     -1.84      0.00
   18    8    0      3.61      0.00
    1    9    0     10.16      0.00
    2    9    0     16.05      0.00
    3    9    0    -14.67      0.00
    4    9    0     -8.09      0.00
    5    9    0     -3.07      0.00
    6    9    0      2.48      0.00
    7    9    0      7.60      0.00
    8    9    0     -0.37      0.00
    9    9    0      2.20      0.00
   10    9    0     -2.23      0.00
   11    9    0      6.06      0.00
   12    9    0      5.31      0.00
   13    9    0      5.93      0.00
   14    9    0     -7.71      0.00
   15    9    0     -5.71      0.00
   16    9    0     -1.26      0.00
   17    9    0     -5.15      0.00
   18    9    0      2.96      0.00
    0   10    0      2.14      0.00
    1   10    0      3.98      0.00
    2   10    0     -4.91      0.00
    3   10    0    -11.91      0.00
    4   10    0      7.67      0.00
    5   10    0      2.89      0.00
    6   10    0     -1.61      0.00
    7   10    0     -5.64      0.00
    8   10    0     -2.37      0.00
    9   10    0     -6.96      0.00
   10   10    0      5.83      0.00
   11   10    0     -1.15      0.00
   12   10    0     -5.30      0.00
   13   10    0      7.77      0.00
   14   10    0     -0.84      0.00
   15   10    0    -15.01      0.00
   16   10    0     -1.89      0.00
   17   10    0     -0.30      0.00
   18   10    0     -3.93      0.00
    1   11    0     12.63      0.00
    2   11    0     17.66      0.00
    3   11    0     -3.78      0.00
    4   11    0    -17.76      0.00
    5   11    0     -1.09      0.00
    6   11    0      3.95      0.00
    7   11    0      0.38      0.00
    8   11    0      9.24      0.00
    9   11    0     -0.90      0.00
   10   11    0     -0.44      0.00
   11   11    0      0.33      0.00
   12   11    0     -0.75      0.00
   13   11    0     -0.97      0.00
   14   11    0     -0.46      0.00
   15   11    0     -2.82      0.00
   16   11    0     11.32      0.00
   17   11    0      1.52      0.00
    0   12    0      9.86      0.00
    1   12    0     -2.15      0.00
    2   12    0      3.07      0.00
    3   12    0      0.61      0.00
    4   12    0      6.32      0.00
    5   12    0      7.38      0.00
    6   12    0     -3.57      0.00
    7   12    0     -7.52      0.00
    8   12    0     -2.28      0.00
    9   12    0      2.18      0.00
   10   12    0      3.11      0.00
   11   12    0     -2.57      0.00
   12   12    0     -3.25      0.00
   13   12    0      6.59      0.00
   14   12    0     -3.35      0.00
   15   12    0     -8.32      0.00
   16   12    0     -2.17      0.00
   17   12    0      3.09      0.00
    1   13    0     -2.67      0.00
    2   13    0      4.34      0.00
    3   13    0     -7.28      0.00
    4   13    0    -12.00      0.00
    5   13    0     -2.61      0.00
    6   13    0      3.15      0.00
    7   13    0      3.87      0.00
    8   13    0      4.05      0.00
    9   13    0      5.29      0.00
   10   13    0     -4.74      0.00
   11   13    0      8.24      0.00
   12   13    0      3.78      0.00
   13   13    0      1.24      0.00
   14   13    0     -0.82      0.00
   15   13    0      3.37      0.00
   16   13    0     -8.89      0.00
    0   14    0      3.77      0.00
    1   14    0      6.20      0.00
    2   14    0     -3.70      0.00
    3   14    0     -5.86      0.00
    4   14    0      6.50      0.00
    5   14    0     -0.26      0.00
    6   14    0     -6.16      0.00
    7   14    0     -2.02      0.00
    8   14    0     -2.61      0.00
    9   14    0      2.77      0.00
   10   14    0      1.09      0.00
   11   14    0      1.95      0.00
   12   14    0     -5.75      0.00
   13   14    0     -6.19      0.00
   14   14    0      2.68      0.00
   15   14    0      7.24      0.00
   16   14    0      3.19      0.00
    1   15    0      4.48      0.00
    2   15    0      4.66      0.00
    3   15    0      0.07      0.00
    4   15    0      2.78      0.00
    5   15    0      5.01      0.00
    6   15    0     -1.64      0.00
    7   15    0      1.45      0.00
    8   15    0      1.08      0.00
    9   15    0     -7.22      0.00
   10   15    0     -5.54      0.00
   11   15    0     -4.43      0.00
   12   15    0     -0.26      0.00
   13   15    0     -5.67      0.00
   14   15    0      1.13      0.00
   15   15    0     -2.97      0.00
    0   16    0     -2.86      0.00
    1   16    0     -0.08      0.00
    2   16    0      5.10      0.00
    3   16    0      0.77      0.00
    4   16    0      7.99      0.00
    5   16    0      2.43      0.00
    6   16    0     -4.58      0.00
    7   16    0      0.64      0.00
    8   16    0     -1.63      0.00
    9   16    0      1.80      0.00
   10   16    0     10.23      0.00
   11   16    0      3.80      0.00
   12   16    0     -0.73      0.00
   13   16    0     -6.16      0.00
   14   16    0      0.77      0.00
    1   17    0      2.70      0.00
    2   17    0     -2.04      0.00
    3   17    0     -7.92      0.00
    4   17    0     -3.95      0.00
    5   17    0      7.98      0.00
    6   17    0     -2.23      0.00
    7   17    0     -3.03      0.00
    8   17    0      3.73      0.00
    9   17    0     -1.43      0.00
   10   17    0      0.82      0.00
   11   17    0     -4.15      0.00
   12   17    0      5.66      0.00
   13   17    0      0.51      0.00
   14   17    0     10.17      0.00
    0   18    0     -6.02      0.00
    1   18    0      2.75      0.00
    2   18    0      8.01      0.00
    3   18    0      2.06      0.00
    4   18    0     -1.13      0.00
    5   18    0      3.38      0.00
    6   18    0     -4.06      0.00
    7   18    0     -5.42      0.00
    8   18    0     -4.52      0.00
    9   18    0     -5.11      0.00
   10   18    0      3.44      0.00
   11   18    0      3.39      0.00
   12   18    0      0.25      0.00
   13   18    0     -6.15      0.00
    1   19    0      0.25      0.00
    2   19    0      0.86      0.00
    3   19    0     -5.70      0.00
    4   19    0      1.67      0.00
    5   19    0      5.21      0.00
    6   19    0     -4.62      0.00
    7   19    0     -0.82      0.00
    8   19    0      4.93      0.00
    9   19    0      0.29      0.00
   10   19    0      1.56      0.00
   11   19    0     -4.56      0.00
   12   19    0     -2.62      0.00
    0   20    0      3.86      0.00
    1   20    0      7.89      0.00
    2   20    0      0.24      0.00
    3   20    0     -6.37      0.00
    4   20    0      3.09      0.00
    5   20    0     -7.61      0.00
    6   20    0      0.16      0.00
    7   20    0     -5.94      0.00
    8   20    0      1.06      0.00
    9   20    0     -1.67      0.00
   10   20    0      5.83      0.00
   11   20    0      1.05      0.00
   12   20    0      0.62      0.00
    1   21    0     -0.57      0.00
    2   21    0     -1.72      0.00
    3   21    0      3.54      0.00
    4   21    0      4.51      0.00
    5   21    0      1.25      0.00
    6   21    0      3.49      0.00
    7   21    0     -5.28      0.00
    8   21    0      5.19      0.00
    9   21    0      1.61      0.00
   10   21    0      0.39      0.00
   11   21    0      1.86      0.00
    0   22    0     -4.78      0.00
    1   22    0      2.52      0.00
    2   22    0     -3.80      0.00
    3   22    0     -1.34      0.00
    4   22    0     -3.38      0.00
    5   22    0     -2.64      0.00
    6   22    0      2.40      0.00
    7   22    0      2.17      0.00
    8   22    0     -0.03      0.00
    9   22    0      3.01      0.00
    1   23    0     -0.74      0.00
    2   23    0      1.54      0.00
    3   23    0     -1.68      0.00
    4   23    0     -3.12      0.00
    5   23    0     -1.07      0.00
    6   23    0     -4.25      0.00
    7   23    0     -1.23      0.00
    8   23    0      0.25      0.00
    0   24    0     -1.03      0.00
    1   24    0      2.09      0.00
    2   24    0      4.25      0.00
    3   24    0     -0.09      0.00
    4   24    0      2.68      0.00
    5   24    0      1.24      0.00
    3    0    1    -11.93      0.00
    5    0    1     -0.23      0.00
    7    0    1      7.37      0.00
    9    0    1      4.48      0.00
   11    0    1      3.93      0.00
   13    0    1      0.00      0.00
   15    0    1      4.14      0.00
   17    0    1    -15.54      0.00
   19    0    1      6.01      0.00
    1    1    1    -29.24      0.00
    2    1    1     98.65      0.00
    3    1    1     21.25      0.00
    4    1    1    -16.73      0.00
    5    1    1    -14.38      0.00
    6    1    1    -22.69      0.00
    7    1    1      0.65      0.00
    8    1    1     -4.36      0.00
    9    1    1     -1.14      0.00
   10    1    1     -7.91      0.00
   11    1    1     -2.41      0.00
   12    1    1      5.33      0.00
   13    1    1     13.75      0.00
   14    1    1      0.17      0.00
   15    1    1     -0.19      0.00
   16    1    1     18.75      0.00
   17    1    1     -0.71      0.00
   18    1    1      2.59      0.00
   19    1    1     -0.45      0.00
    1    2    1     26.68      0.00
    2    2    1    -12.30      0.00
    3    2    1     27.20      0.00
    4    2    1     -1.39      0.00
    5    2    1    -17.77      0.00
    6    2    1     -0.24      0.00
    7    2    1     -7.19      0.00
    8    2    1     -2.81      0.00
    9    2    1      3.29      0.00
   10    2    1      6.69      0.00
   11    2    1      1.30      0.00
   12    2    1     -6.79      0.00
   13    2    1      5.23      0.00
   14    2    1    -14.72      0.00
   15    2    1      3.19      0.00
   16    2    1      9.73      0.00
   17    2    1     -7.67      0.00
   18    2    1     -3.48      0.00
   19    2    1      0.84      0.00
    0    3    1     13.61      0.00
    1    3    1    -84.13      0.00
    2    3    1     58.97      0.00
    3    3    1     24.00      0.00
    4    3    1    -20.57      0.00
    5    3    1     -3.70      0.00
    6    3    1     11.27      0.00
    7    3    1      1.29      0.00
    8    3    1     -4.30      0.00
    9    3    1      4.77      0.00
   10    3    1     -2.13      0.00
   11    3    1     -0.24      0.00
   12    3    1      1.73      0.00
   13    3    1     14.08      0.00
   14    3    1      2.13      0.00
   15    3    1      2.29      0.00
   16    3    1      3.56      0.00
   17    3    1     -4.22      0.00
   18    3    1      7.04      0.00
   19    3    1     -0.18      0.00
    1    4    1    -41.39      0.00
    2    4    1      2.75      0.00
    3    4    1     48.21      0.00
    4    4    1     -5.50      0.00
    5    4    1    -15.54      0.00
    6    4    1     -6.21      0.00
    7    4    1     -4.42      0.00
    8    4    1     -1.17      0.00
    9    4    1     -1.42      0.00
   10    4    1     -2.20      0.00
   11    4    1      1.36      0.00
   12    4    1     -5.54      0.00
   13    4    1      8.45      0.00
   14    4    1     -6.89      0.00
   15    4    1      0.44      0.00
   16    4    1      2.69      0.00
   17    4    1     -4.80      0.00
   18    4    1     -4.44      0.00
   19    4    1     -4.05      0.00
    0    5    1     10.56      0.00
    1    5    1    -34.38      0.00
    2    5    1     24.79      0.00
    3    5    1     -2.55      0.00
    4    5    1      1.42      0.00
    5    5    1      1.52      0.00
    6    5    1      9.06      0.00
    7    5    1     -0.16      0.00
    8    5    1     -6.70      0.00
    9    5    1     -1.13      0.00
   10    5    1     -1.47      0.00
   11    5    1      2.69      0.00
   12    5    1      8.44      0.00
   13    5    1      2.35      0.00
   14    5    1     -3.00      0.00
   15    5    1      9.22      0.00
   16    5    1      3.42      0.00
   17    5    1     -3.65      0.00
   18    5    1      6.13      0.00
   19    5    1      1.42      0.00
    1    6    1    -10.73      0.00
    2    6    1     -6.80      0.00
    3    6    1      6.85      0.00
    4    6    1     11.88      0.00
    5    6    1     -8.38      0.00
    6    6    1     -8.97      0.00
    7    6    1      1.68      0.00
    8    6    1      8.79      0.00
    9    6    1     -0.46      0.00
   10    6    1      0.55      0.00
   11    6    1     -0.82      0.00
   12    6    1     -3.10      0.00
   13    6    1      2.52      0.00
   14    6    1      5.03      0.00
   15    6    1      4.62      0.00
   16    6    1     -7.38      0.00
   17    6    1      0.98      0.00
   18    6    1     -1.59      0.00
   19    6    1     -3.71      0.00
    0    7    1    -21.90      0.00
    1    7    1    -16.23      0.00
    2    7    1     21.46      0.00
    3    7    1     -7.83      0.00
    4    7    1      5.73      0.00
    5    7    1     10.29      0.00
    6    7    1      6.78      0.00
    7    7    1     -1.02      0.00
    8    7    1     -4.96      0.00
    9    7    1     -9.29      0.00
   10    7    1     -3.76      0.00
   11    7    1      1.92      0.00
   12    7    1      9.22      0.00
   13    7    1     -4.73      0.00
   14    7    1     -1.16      0.00
   15    7    1      2.89      0.00
   16    7    1    -12.37      0.00
   17    7    1      0.58      0.00
   18    7    1     -2.96      0.00
   19    7    1     -1.09      0.00
    1    8    1      3.11      0.00
    2    8    1      6.48      0.00
    3    8    1     13.76      0.00
    4    8    1     -3.14      0.00
    5    8    1     -2.31      0.00
    6    8    1     -9.28      0.00
    7    8    1     -1.39      0.00
    8    8    1      9.06      0.00
    9    8    1     -0.14      0.00
   10    8    1     -1.93      0.00
   11    8    1     -2.12      0.00
   12    8    1     -3.90      0.00
   13    8    1     -0.78      0.00
   14    8    1      8.92      0.00
   15    8    1      5.79      0.00
   16    8    1     -3.22      0.00
   17    8    1      9.32      0.00
   18    8    1     -3.10      0.00
    0    9    1     -6.86      0.00
    1    9    1    -27.47      0.00
    2    9    1      8.33      0.00
    3    9    1      8.11      0.00
    4    9    1     -3.02      0.00
    5    9    1     11.65      0.00
    6    9    1      3.59      0.00
    7    9    1     -8.18      0.00
    8    9    1     -1.31      0.00
    9    9    1     -1.04      0.00
   10    9    1      0.54      0.00
   11    9    1      3.33      0.00
   12    9    1      7.01      0.00
   13    9    1     -5.15      0.00
   14    9    1      1.55      0.00
   15    9    1      5.50      0.00
   16    9    1     -8.77      0.00
   17    9    1      1.77      0.00
   18    9    1     -1.89      0.00
    1   10    1     -2.23      0.00
    2   10    1     -0.26      0.00
    3   10    1      5.48      0.00
    4   10    1     -4.56      0.00
    5   10    1     -3.94      0.00
    6   10    1     -4.24      0.00
    7   10    1      3.86      0.00
    8   10    1      2.43      0.00
    9   10    1     -0.63      0.00
   10   10    1     -4.18      0.00
   11   10    1     -3.42      0.00
   12   10    1     -2.38      0.00
   13   10    1      1.41      0.00
   14   10    1      1.34      0.00
   15   10    1      1.89      0.00
   16   10    1     -6.93      0.00
   17   10    1     -3.46      0.00
   18   10    1     -0.60      0.00
    0   11    1     -4.39      0.00
    1   11    1    -13.18      0.00
    2   11    1      7.55      0.00
    3   11    1      3.61      0.00
    4   11    1      3.55      0.00
    5   11    1      1.99      0.00
    6   11    1     -2.79      0.00
    7   11    1     -3.40      0.00
    8   11    1     -2.49      0.00
    9   11    1      4.05      0.00
   10   11    1     -1.35      0.00
   11   11    1      3.25      0.00
   12   11    1      2.93      0.00
   13   11    1    -11.45      0.00
   14   11    1     -2.45      0.00
   15   11    1     14.99      0.00
   16   11    1      2.07      0.00
   17   11    1      1.01      0.00
    1   12    1      7.17      0.00
    2   12    1     -3.21      0.00
    3   12    1     -1.92      0.00
    4   12    1      4.74      0.00
    5   12    1      0.12      0.00
    6   12    1     -2.71      0.00
    7   12    1      5.06      0.00
    8   12    1      1.29      0.00
    9   12    1     -2.13      0.00
   10   12    1     -1.31      0.00
   11   12    1     -1.68      0.00
   12   12    1     -1.11      0.00
   13   12    1      3.13      0.00
   14   12    1     -0.62      0.00
   15   12    1     -3.28      0.00
   16   12    1      0.04      0.00
   17   12    1     -1.15      0.00
    0   13    1    -12.96      0.00
    1   13    1     -9.80      0.00
    2   13    1      4.45      0.00
    3   13    1      0.72      0.00
    4   13    1      0.09      0.00
    5   13    1      0.86      0.00
    6   13    1     -1.14      0.00
    7   13    1     -2.21      0.00
    8   13    1      0.60      0.00
    9   13    1      1.20      0.00
   10   13    1      1.13      0.00
   11   13    1      0.40      0.00
   12   13    1      2.45      0.00
   13   13    1     -5.06      0.00
   14   13    1     -0.63      0.00
   15   13    1      0.78      0.00
   16   13    1      2.78      0.00
    1   14    1      3.92      0.00
    2   14    1     -1.02      0.00
    3   14    1     -5.30      0.00
    4   14    1     -3.62      0.00
    5   14    1      0.09      0.00
    6   14    1      2.82      0.00
    7   14    1      3.02      0.00
    8   14    1      1.89      0.00
    9   14    1     -2.18      0.00
   10   14    1      0.28      0.00
   11   14    1     -3.22      0.00
   12   14    1     -0.64      0.00
   13   14    1      4.07      0.00
   14   14    1     -1.08      0.00
   15   14    1     -1.26      0.00
   16   14    1      8.55      0.00
    0   15    1     -6.35      0.00
    1   15    1     -4.40      0.00
    2   15    1      6.55      0.00
    3   15    1      4.97      0.00
    4   15    1      1.71      0.00
    5   15    1      0.29      0.00
    6   15    1      2.55      0.00
    7   15    1     -2.91      0.00
    8   15    1     -0.44      0.00
    9   15    1      1.01      0.00
   10   15    1     -8.69      0.00
   11   15    1     -2.87      0.00
   12   15    1     -0.40      0.00
   13   15    1     -0.48      0.00
   14   15    1     -2.50      0.00
   15   15    1     -3.96      0.00
    1   16    1      2.38      0.00
    2   16    1      0.52      0.00
    3   16    1      0.88      0.00
    4   16    1     -0.81      0.00
    5   16    1     -1.85      0.00
    6   16    1      4.33      0.00
    7   16    1      2.03      0.00
    8   16    1      0.62      0.00
    9   16    1     -1.17      0.00
   10   16    1      0.78      0.00
   11   16    1      1.07      0.00
   12   16    1     -0.83      0.00
   13   16    1      3.71      0.00
   14   16    1     -1.15      0.00
    0   17    1      0.35      0.00
    1   17    1      0.04      0.00
    2   17    1     -0.20      0.00
    3   17    1     -1.70      0.00
    4   17    1      0.30      0.00
    5   17    1     -4.72      0.00
    6   17    1      1.28      0.00
    7   17    1      0.05      0.00
    8   17    1      2.91      0.00
    9   17    1      2.68      0.00
   10   17    1     -6.27      0.00
   11   17    1     -1.51      0.00
   12   17    1     -1.38      0.00
   13   17    1      5.07      0.00
   14   17    1     -0.35      0.00
    1   18    1      1.07      0.00
    2   18    1      2.05      0.00
    3   18    1      4.17      0.00
    4   18    1      0.78      0.00
    5   18    1     -2.27      0.00
    6   18    1      3.19      0.00
    7   18    1      0.53      0.00
    8   18    1     -4.66      0.00
    9   18    1     -4.12      0.00
   10   18    1     -1.63      0.00
   11   18    1      2.94      0.00
   12   18    1      0.43      0.00
   13   18    1      0.09      0.00
    0   19    1     -1.56      0.00
    1   19    1     -2.37      0.00
    2   19    1     -0.33      0.00
    3   19    1      3.32      0.00
    4   19    1     -2.20      0.00
    5   19    1     -3.79      0.00
    6   19    1      0.12      0.00
    7   19    1      1.05      0.00
    8   19    1      3.69      0.00
    9   19    1      3.87      0.00
   10   19    1     -4.12      0.00
   11   19    1      0.48      0.00
   12   19    1     -1.32      0.00
    1   20    1      1.73      0.00
    2   20    1      0.57      0.00
    3   20    1      0.99      0.00
    4   20    1     -5.81      0.00
    5   20    1      0.01      0.00
    6   20    1     -0.99      0.00
    7   20    1      2.53      0.00
    8   20    1     -4.03      0.00
    9   20    1     -1.25      0.00
   10   20    1     -1.25      0.00
   11   20    1      2.28      0.00
   12   20    1      2.37      0.00
    0   21    1     -3.16      0.00
    1   21    1     -4.99      0.00
    2   21    1      2.61      0.00
    3   21    1      2.46      0.00
    4   21    1     -0.14      0.00
    5   21    1      1.75      0.00
    6   21    1     -1.12      0.00
    7   21    1      1.66      0.00
    8   21    1      0.92      0.00
    9   21    1      0.63      0.00
   10   21    1     -0.96      0.00
   11   21    1      1.13      0.00
    1   22    1     -1.88      0.00
    2   22    1     -0.53      0.00
    3   22    1     -3.53      0.00
    4   22    1     -0.44      0.00
    5   22    1     -1.11      0.00
    6   22    1      1.34      0.00
    7   22    1      3.72      0.00
    8   22    1      0.44      0.00
    9   22    1     -1.50      0.00
    0   23    1      2.63      0.00
    1   23    1     -1.34      0.00
    2   23    1     -1.56      0.00
    3   23    1     -0.03      0.00
    4   23    1     -1.43      0.00
    5   23    1     -1.76      0.00
    6   23    1      0.49      0.00
    7   23    1     -0.80      0.00
    8   23    1      2.35      0.00
    1   24    1      0.43      0.00
    2   24    1     -1.06      0.00
    3   24    1      1.99      0.00
    4   24    1      0.77      0.00
    5   24    1      0.76      0.00
    2    0    2   -117.31      0.00
    4    0    2      5.08      0.00
    6    0    2      5.16      0.00
    8    0    2     -4.38      0.00
   10    0    2     -2.98      0.00
   12    0    2     -6.92      0.00
   14    0    2      5.27      0.00
   16    0    2     -0.88      0.00
   18    0    2      1.67      0.00
    1    1    2     36.91      0.00
    2    1    2    -23.63      0.00
    3    1    2    -10.13      0.00
    4    1    2     10.62      0.00
    5    1    2     13.09      0.00
    6    1    2      5.51      0.00
    7    1    2      1.58      0.00
    8    1    2      2.53      0.00
    9    1    2      1.56      0.00
   10    1    2     -1.26      0.00
   11    1    2      1.55      0.00
   12    1    2     -0.96      0.00
   13    1    2     -0.38      0.00
   14    1    2      0.86      0.00
   15    1    2     -0.88      0.00
   16    1    2     -1.11      0.00
   17    1    2      7.66      0.00
   18    1    2      1.11      0.00
   19    1    2     -2.33      0.00
    0    2    2    164.42      0.00
    1    2    2     59.93      0.00
    2    2    2    -50.65      0.00
    3    2    2    -21.38      0.00
    4    2    2      8.60      0.00
    5    2    2     -0.17      0.00
    6    2    2     16.22      0.00
    7    2    2     -1.08      0.00
    8    2    2     -5.52      0.00
    9    2    2     -4.21      0.00
   10    2    2      0.73      0.00
   11    2    2      1.85      0.00
   12    2    2     -2.30      0.00
   13    2    2     -3.34      0.00
   14    2    2      2.76      0.00
   15    2    2     -2.17      0.00
   16    2    2      0.66      0.00
   17    2    2     -1.35      0.00
   18    2    2      3.09      0.00
   19    2    2      1.25      0.00
    1    3    2    -18.99      0.00
    2    3    2     16.69      0.00
    3    3    2      1.90      0.00
    4    3    2    -13.26      0.00
    5    3    2     -2.69      0.00
    6    3    2     -3.78      0.00
    7    3    2     -0.16      0.00
    8    3    2      6.86      0.00
    9    3    2      4.54      0.00
   10    3    2     -4.61      0.00
   11    3    2     -4.20      0.00
   12    3    2      1.63      0.00
   13    3    2     -0.24      0.00
   14    3    2      1.20      0.00
   15    3    2      2.67      0.00
   16    3    2      0.71      0.00
   17    3    2      3.61      0.00
   18    3    2     -0.42      0.00
   19    3    2     -0.99      0.00
    0    4    2     64.83      0.00
    1    4    2      7.53      0.00
    2    4    2    -41.11      0.00
    3    4    2    -19.53      0.00
    4    4    2    -10.92      0.00
    5    4    2     16.52      0.00
    6    4    2     12.62      0.00
    7    4    2     -2.41      0.00
    8    4    2     -1.02      0.00
    9    4    2     -0.66      0.00
   10    4    2      2.74      0.00
   11    4    2      2.42      0.00
   12    4    2     -5.06      0.00
   13    4    2      6.79      0.00
   14    4    2      1.64      0.00
   15    4    2     -1.94      0.00
   16    4    2      2.64      0.00
   17    4    2      5.32      0.00
   18    4    2      1.86      0.00
   19    4    2      0.63      0.00
    1    5    2      7.41      0.00
    2    5    2     26.38      0.00
    3    5    2      0.77      0.00
    4    5    2    -16.96      0.00
    5    5    2     -0.53      0.00
    6    5    2     -0.15      0.00
    7    5    2     -1.95      0.00
    8    5    2      8.91      0.00
    9    5    2      3.78      0.00
   10    5    2     -1.96      0.00
   11    5    2     -3.28      0.00
   12    5    2     -2.69      0.00
   13    5    2      1.74      0.00
   14    5    2    -10.36      0.00
   15    5    2      0.09      0.00
   16    5    2     -2.28      0.00
   17    5    2      0.80      0.00
   18    5    2      0.81      0.00
   19    5    2     -1.18      0.00
    0    6    2     50.81      0.00
    1    6    2      8.07      0.00
    2    6    2     -6.47      0.00
    3    6    2    -10.13      0.00
    4    6    2      2.62      0.00
    5    6    2      8.22      0.00
    6    6    2      6.34      0.00
    7    6    2     -5.72      0.00
    8    6    2     -2.32      0.00
    9    6    2     -3.86      0.00
   10    6    2     -0.22      0.00
   11    6    2      1.01      0.00
   12    6    2    -10.38      0.00
   13    6    2      5.73      0.00
   14    6    2      3.56      0.00
   15    6    2      1.90      0.00
   16    6    2     -0.08      0.00
   17    6    2      5.08      0.00
   18    6    2      3.58      0.00
   19    6    2     -1.51      0.00
    1    7    2      3.34      0.00
    2    7    2     11.01      0.00
    3    7    2     -6.30      0.00
    4    7    2    -13.94      0.00
    5    7    2     -7.67      0.00
    6    7    2     -2.83      0.00
    7    7    2      1.11      0.00
    8    7    2      2.55      0.00
    9    7    2      8.46      0.00
   10    7    2      0.56      0.00
   11    7    2      2.93      0.00
   12    7    2     -0.88      0.00
   13    7    2      5.64      0.00
   14    7    2     -5.15      0.00
   15    7    2     -1.84      0.00
   16    7    2     -1.61      0.00
   17    7    2      7.78      0.00
   18    7    2      0.53      0.00
   19    7    2     -1.16      0.00
    0    8    2     16.71      0.00
    1    8    2      4.97      0.00
    2    8    2    -19.42      0.00
    3    8    2     -4.82      0.00
    4    8    2      7.58      0.00
    5    8    2      7.72      0.00
    6    8    2      3.48      0.00
    7    8    2     -0.82      0.00
    8    8    2     -4.49      0.00
    9    8    2     -1.38      0.00
   10    8    2      3.75      0.00
   11    8    2      1.71      0.00
   12    8    2     -8.26      0.00
   13    8    2      2.39      0.00
   14    8    2      4.22      0.00
   15    8    2    -10.00      0.00
   16    8    2     -1.50      0.00
   17    8    2      3.21      0.00
   18    8    2      1.43      0.00
    1    9    2     13.02      0.00
    2    9    2     17.07      0.00
    3    9    2     -1.99      0.00
    4    9    2    -15.69      0.00
    5    9    2     -1.44      0.00
    6    9    2      1.54      0.00
    7    9    2      3.02      0.00
    8    9    2      3.04      0.00
    9    9    2      1.16      0.00
   10    9    2     -2.73      0.00
   11    9    2     -6.93      0.00
   12    9    2     -0.21      0.00
   13    9    2      0.91      0.00
   14    9    2      5.43      0.00
   15    9    2     -4.25      0.00
   16    9    2      4.92      0.00
   17    9    2     -0.50      0.00
   18    9    2      1.61      0.00
    0   10    2      7.41      0.00
    1   10    2      0.47      0.00
    2   10    2     -4.25      0.00
    3   10    2     -4.29      0.00
    4   10    2      6.70      0.00
    5   10    2      8.27      0.00
    6   10    2     -4.41      0.00
    7   10    2     -3.45      0.00
    8   10    2     -4.81      0.00
    9   10    2      2.49      0.00
   10   10    2      7.23      0.00
   11   10    2      1.96      0.00
   12   10    2     -0.86      0.00
   13   10    2     -0.85      0.00
   14   10    2     -0.77      0.00
   15   10    2     -9.82      0.00
   16   10    2      5.07      0.00
   17   10    2      4.44      0.00
   18   10    2      3.67      0.00
    1   11    2      3.57      0.00
    2   11    2     13.22      0.00
    3   11    2     -6.44      0.00
    4   11    2    -14.18      0.00
    5   11    2     -2.42      0.00
    6   11    2      1.18      0.00
    7   11    2      2.82      0.00
    8   11    2     -0.80      0.00
    9   11    2      2.14      0.00
   10   11    2     -6.09      0.00
   11   11    2     -2.07      0.00
   12   11    2      2.99      0.00
   13   11    2      2.09      0.00
   14   11    2      6.31      0.00
   15   11    2     -0.91      0.00
   16   11    2     -6.05      0.00
   17   11    2      1.32      0.00
    0   12    2      1.53      0.00
    1   12    2      3.14      0.00
    2   12    2     -3.58      0.00
    3   12    2     -4.14      0.00
    4   12    2      6.03      0.00
    5   12    2      3.51      0.00
    6   12    2     -1.30      0.00
    7   12    2     -2.81      0.00
    8   12    2     -2.41      0.00
    9   12    2     -0.63      0.00
   10   12    2      6.79      0.00
   11   12    2      1.65      0.00
   12   12    2     -0.63      0.00
   13   12    2     -3.13      0.00
   14   12    2      2.43      0.00
   15   12    2     -7.41      0.00
   16   12    2     -1.33      0.00
   17   12    2      2.34      0.00
    1   13    2      5.97      0.00
    2   13    2      8.74      0.00
    3   13    2     -1.55      0.00
    4   13    2     -5.79      0.00
    5   13    2     -0.19      0.00
    6   13    2      0.17      0.00
    7   13    2     -0.38      0.00
    8   13    2      2.71      0.00
    9   13    2     -2.57      0.00
   10   13    2     -3.86      0.00
   11   13    2     -7.09      0.00
   12   13    2     -1.85      0.00
   13   13    2     -2.28      0.00
   14   13    2      6.66      0.00
   15   13    2     -0.68      0.00
   16   13    2     -1.90      0.00
    0   14    2     -1.50      0.00
    1   14    2      2.32      0.00
    2   14    2      3.36      0.00
    3   14    2     -1.13      0.00
    4   14    2      3.45      0.00
    5   14    2      3.16      0.00
    6   14    2     -3.64      0.00
    7   14    2     -2.49      0.00
    8   14    2     -1.44      0.00
    9   14    2      1.52      0.00
   10   14    2      7.79      0.00
   11   14    2      0.70      0.00
   12   14    2     -0.95      0.00
   13   14    2      2.18      0.00
   14   14    2     -2.71      0.00
   15   14    2     -1.72      0.00
   16   14    2     -0.96      0.00
    1   15    2     -0.02      0.00
    2   15    2     -0.77      0.00
    3   15    2     -5.71      0.00
    4   15    2     -1.89      0.00
    5   15    2      4.89      0.00
    6   15    2      0.12      0.00
    7   15    2     -1.37      0.00
    8   15    2      4.33      0.00
    9   15    2      3.07      0.00
   10   15    2     -3.25      0.00
   11   15    2      1.93      0.00
   12   15    2      0.02      0.00
   13   15    2      1.98      0.00
   14   15    2     -0.75      0.00
   15   15    2      3.47      0.00
    0   16    2     -3.27      0.00
    1   16    2      5.83      0.00
    2   16    2      2.66      0.00
    3   16    2     -0.64      0.00
    4   16    2     -2.19      0.00
    5   16    2      0.89      0.00
    6   16    2     -5.14      0.00
    7   16    2     -7.26      0.00
    8   16    2     -4.56      0.00
    9   16    2      1.64      0.00
   10   16    2      0.85      0.00
   11   16    2      1.62      0.00
   12   16    2     -3.00      0.00
   13   16    2      2.26      0.00
   14   16    2     -0.48      0.00
    1   17    2      2.05      0.00
    2   17    2     -1.65      0.00
    3   17    2     -2.36      0.00
    4   17    2      2.40      0.00
    5   17    2      3.05      0.00
    6   17    2      0.00      0.00
    7   17    2      1.19      0.00
    8   17    2      3.79      0.00
    9   17    2      2.64      0.00
   10   17    2     -6.07      0.00
   11   17    2     -2.02      0.00
   12   17    2     -3.63      0.00
   13   17    2     -0.45      0.00
   14   17    2     -5.65      0.00
    0   18    2     -1.48      0.00
    1   18    2      2.62      0.00
    2   18    2      1.20      0.00
    3   18    2      0.13      0.00
    4   18    2      6.13      0.00
    5   18    2     -0.92      0.00
    6   18    2      0.39      0.00
    7   18    2     -4.31      0.00
    8   18    2     -4.48      0.00
    9   18    2      1.74      0.00
   10   18    2      5.00      0.00
   11   18    2     -0.61      0.00
   12   18    2     -1.21      0.00
   13   18    2      2.86      0.00
    1   19    2      1.48      0.00
    2   19    2     -2.95      0.00
    3   19    2     -2.36      0.00
    4   19    2      3.51      0.00
    5   19    2     -0.58      0.00
    6   19    2      0.02      0.00
    7   19    2     -2.71      0.00
    8   19    2      5.46      0.00
    9   19    2      2.59      0.00
   10   19    2      0.36      0.00
   11   19    2     -2.80      0.00
   12   19    2      1.06      0.00
    0   20    2     -1.02      0.00
    1   20    2      3.28      0.00
    2   20    2     -0.05      0.00
    3   20    2      0.23      0.00
    4   20    2     -0.53      0.00
    5   20    2      1.25      0.00
    6   20    2      0.57      0.00
    7   20    2     -0.96      0.00
    8   20    2     -3.13      0.00
    9   20    2     -0.37      0.00
   10   20    2      2.66      0.00
   11   20    2     -2.23      0.00
   12   20    2     -2.63      0.00
    1   21    2     -0.68      0.00
    2   21    2     -0.57      0.00
    3   21    2      0.17      0.00
    4   21    2      0.60      0.00
    5   21    2      2.23      0.00
    6   21    2     -4.51      0.00
    7   21    2     -2.49      0.00
    8   21    2      1.35      0.00
    9   21    2      0.58      0.00
   10   21    2     -0.64      0.00
   11   21    2     -2.62      0.00
    0   22    2      2.31      0.00
    1   22    2      6.99      0.00
    2   22    2     -2.12      0.00
    3   22    2     -0.81      0.00
    4   22    2      0.58      0.00
    5   22    2      0.59      0.00
    6   22    2     -1.82      0.00
    7   22    2     -1.92      0.00
    8   22    2      0.60      0.00
    9   22    2      0.22      0.00
    1   23    2      1.18      0.00
    2   23    2     -0.37      0.00
    3   23    2      3.93      0.00
    4   23    2      1.11      0.00
    5   23    2      2.32      0.00
    6   23    2      1.71      0.00
    7   23    2     -2.09      0.00
    8   23    2      1.28      0.00
    0   24    2     -0.44      0.00
    1   24    2      2.78      0.00
    2   24    2     -5.34      0.00
    3   24    2     -1.66      0.00
    4   24    2      0.27      0.00
    5   24    2     -0.38      0.00
    1    0    3   -304.20      0.00
    3    0    3    113.78      0.00
    5    0    3    -53.61      0.00
    7    0    3    -26.13      0.00
    9    0    3     10.81      0.00
   11    0    3     -9.52      0.00
   13    0    3      0.95      0.00
   15    0    3      6.44      0.00
   17    0    3      4.03      0.00
   19    0    3     -0.97      0.00
    0    1    3    180.68      0.00
    1    1    3    -57.87      0.00
    2    1    3     29.71      0.00
    3    1    3     -8.18      0.00
    4    1    3    -23.04      0.00
    5    1    3     29.17      0.00
    6    1    3     41.12      0.00
    7    1    3     -4.53      0.00
    8    1    3     -0.33      0.00
    9    1    3      2.37      0.00
   10    1    3      1.03      0.00
   11    1    3      1.61      0.00
   12    1    3      5.71      0.00
   13    1    3     -7.09      0.00
   14    1    3     -3.96      0.00
   15    1    3      1.05      0.00
   16    1    3    -14.04      0.00
   17    1    3      2.28      0.00
   18    1    3      4.80      0.00
   19    1    3     -0.24      0.00
    1    2    3    -31.32      0.00
    2    2    3     52.91      0.00
    3    2    3     67.88      0.00
    4    2    3     -6.23      0.00
    5    2    3    -13.34      0.00
    6    2    3    -10.28      0.00
    7    2    3     -6.21      0.00
    8    2    3      4.89      0.00
    9    2    3      6.09      0.00
   10    2    3     -3.44      0.00
   11    2    3      0.86      0.00
   12    2    3      0.09      0.00
   13    2    3     -1.68      0.00
   14    2    3      4.79      0.00
   15    2    3      1.46      0.00
   16    2    3     -7.88      0.00
   17    2    3      1.81      0.00
   18    2    3     -0.33      0.00
   19    2    3      2.21      0.00
    0    3    3   -132.68      0.00
    1    3    3    -12.98      0.00
    2    3    3      4.77      0.00
    3    3    3      3.23      0.00
    4    3    3      3.00      0.00
    5    3    3     10.83      0.00
    6    3    3     -3.83      0.00
    7    3    3    -12.87      0.00
    8    3    3     -3.48      0.00
    9    3    3     -6.64      0.00
   10    3    3     -5.08      0.00
   11    3    3      1.57      0.00
   12    3    3      5.10      0.00
   13    3    3     -7.43      0.00
   14    3    3     -1.37      0.00
   15    3    3      6.02      0.00
   16    3    3     -2.07      0.00
   17    3    3      2.10      0.00
   18    3    3     -0.05      0.00
   19    3    3     -0.68      0.00
    1    4    3      9.77      0.00
    2    4    3     -2.06      0.00
    3    4    3      7.57      0.00
    4    4    3     13.27      0.00
    5    4    3     -8.17      0.00
    6    4    3     -1.07      0.00
    7    4    3     -2.80      0.00
    8    4    3      7.23      0.00
    9    4    3      5.00      0.00
   10    4    3      6.07      0.00
   11    4    3      1.46      0.00
   12    4    3     -0.52      0.00
   13    4    3     -5.26      0.00
   14    4    3      9.55      0.00
   15    4    3      0.26      0.00
   16    4    3     -3.10      0.00
   17    4    3      5.79      0.00
   18    4    3      3.11      0.00
   19    4    3      4.94      0.00
    0    5    3    -33.48      0.00
    1    5    3    -25.23      0.00
    2    5    3      7.09      0.00
    3    5    3     15.13      0.00
    4    5    3      0.16      0.00
    5    5    3     15.38      0.00
    6    5    3     -0.37      0.00
    7    5    3     -9.21      0.00
    8    5    3     -7.81      0.00
    9    5    3     -2.20      0.00
   10    5    3     -1.20      0.00
   11    5    3      1.18      0.00
   12    5    3      5.29      0.00
   13    5    3    -11.43      0.00
   14    5    3     -0.56      0.00
   15    5    3     -5.01      0.00
   16    5    3     -2.54      0.00
   17    5    3     -2.29      0.00
   18    5    3     -4.18      0.00
   19    5    3     -0.45      0.00
    1    6    3      1.51      0.00
    2    6    3     23.41      0.00
    3    6    3     36.52      0.00
    4    6    3    -18.88      0.00
    5    6    3     -3.24      0.00
    6    6    3     -1.20      0.00
    7    6    3     -0.54      0.00
    8    6    3      2.16      0.00
    9    6    3     -3.95      0.00
   10    6    3     -6.12      0.00
   11    6    3     -2.72      0.00
   12    6    3     -0.77      0.00
   13    6    3     -3.87      0.00
   14    6    3      8.93      0.00
   15    6    3      0.57      0.00
   16    6    3      8.14      0.00
   17    6    3     -2.04      0.00
   18    6    3     -1.68      0.00
   19    6    3      6.09      0.00
    0    7    3     -9.26      0.00
    1    7    3    -43.63      0.00
    2    7    3      0.52      0.00
    3    7    3      9.79      0.00
    4    7    3    -10.75      0.00
    5    7    3     13.64      0.00
    6    7    3     -3.09      0.00
    7    7    3    -14.31      0.00
    8    7    3     -3.07      0.00
    9    7    3      7.19      0.00
   10    7    3      4.31      0.00
   11    7    3      1.98      0.00
   12    7    3      8.81      0.00
   13    7    3     -4.05      0.00
   14    7    3     -5.26      0.00
   15    7    3      1.60      0.00
   16    7    3     19.01      0.00
   17    7    3     -2.63      0.00
   18    7    3      2.65      0.00
   19    7    3     -0.01      0.00
    1    8    3    -13.96      0.00
    2    8    3     10.37      0.00
    3    8    3      3.12      0.00
    4    8    3     -5.12      0.00
    5    8    3     -3.98      0.00
    6    8    3      2.67      0.00
    7    8    3      6.82      0.00
    8    8    3      5.04      0.00
    9    8    3     -6.68      0.00
   10    8    3     -4.39      0.00
   11    8    3     -1.57      0.00
   12    8    3      2.44      0.00
   13    8    3      0.86      0.00
   14    8    3     -1.86      0.00
   15    8    3      2.31      0.00
   16    8    3     -2.67      0.00
   17    8    3    -12.58      0.00
   18    8    3      1.03      0.00
    0    9    3    -10.19      0.00
    1    9    3    -16.33      0.00
    2    9    3     13.36      0.00
    3    9    3     -1.43      0.00
    4    9    3      6.30      0.00
    5    9    3      4.96      0.00
    6    9    3     -1.50      0.00
    7    9    3     -4.85      0.00
    8    9    3     -3.13      0.00
    9    9    3      0.79      0.00
   10    9    3     -5.92      0.00
   11    9    3     -1.53      0.00
   12    9    3     -1.29      0.00
   13    9    3     -7.04      0.00
   14    9    3     -4.95      0.00
   15    9    3     10.19      0.00
   16    9    3      8.10      0.00
   17    9    3     -2.12      0.00
   18    9    3     -2.01      0.00
    1   10    3      4.57      0.00
    2   10    3      2.19      0.00
    3   10    3      0.19      0.00
    4   10    3      5.20      0.00
    5   10    3     -0.98      0.00
    6   10    3     -2.16      0.00
    7   10    3      3.39      0.00
    8   10    3      7.26      0.00
    9   10    3     -5.19      0.00
   10   10    3      2.29      0.00
   11   10    3      3.27      0.00
   12   10    3     -0.94      0.00
   13   10    3      1.50      0.00
   14   10    3     -1.29      0.00
   15   10    3      4.66      0.00
   16   10    3      7.18      0.00
   17   10    3      5.22      0.00
   18   10    3     -2.31      0.00
    0   11    3    -14.92      0.00
    1   11    3    -16.54      0.00
    2   11    3      1.96      0.00
    3   11    3      4.51      0.00
    4   11    3      0.88      0.00
    5   11    3      7.96      0.00
    6   11    3      0.27      0.00
    7   11    3     -9.33      0.00
    8   11    3     -0.34      0.00
    9   11    3     -3.90      0.00
   10   11    3     -1.01      0.00
   11   11    3     -0.71      0.00
   12   11    3      0.61      0.00
   13   11    3      5.08      0.00
   14   11    3     -0.07      0.00
   15   11    3     -3.68      0.00
   16   11    3      1.55      0.00
   17   11    3     -3.59      0.00
    1   12    3     -1.29      0.00
    2   12    3      1.89      0.00
    3   12    3     -5.32      0.00
    4   12    3     -6.70      0.00
    5   12    3      0.84      0.00
    6   12    3      0.94      0.00
    7   12    3      5.42      0.00
    8   12    3      3.12      0.00
    9   12    3     -2.86      0.00
   10   12    3     -1.34      0.00
   11   12    3      2.07      0.00
   12   12    3     -0.43      0.00
   13   12    3      2.47      0.00
   14   12    3     -6.36      0.00
   15   12    3      5.63      0.00
   16   12    3      4.83      0.00
   17   12    3     -2.50      0.00
    0   13    3     -1.18      0.00
    1   13    3     -5.83      0.00
    2   13    3      6.24      0.00
    3   13    3      7.01      0.00
    4   13    3      4.73      0.00
    5   13    3      4.26      0.00
    6   13    3     -4.18      0.00
    7   13    3     -7.42      0.00
    8   13    3     -3.04      0.00
    9   13    3      2.40      0.00
   10   13    3    -11.19      0.00
   11   13    3      0.03      0.00
   12   13    3     -2.71      0.00
   13   13    3     -2.80      0.00
   14   13    3     -2.77      0.00
   15   13    3      7.92      0.00
   16   13    3      4.12      0.00
    1   14    3      4.03      0.00
    2   14    3     -0.13      0.00
    3   14    3     -0.70      0.00
    4   14    3      1.21      0.00
    5   14    3     -2.30      0.00
    6   14    3      2.65      0.00
    7   14    3      5.90      0.00
    8   14    3     -1.94      0.00
    9   14    3     -1.37      0.00
   10   14    3     -3.18      0.00
   11   14    3      5.37      0.00
   12   14    3      2.87      0.00
   13   14    3      0.55      0.00
   14   14    3     -2.11      0.00
   15   14    3     -3.00      0.00
   16   14    3     -4.83      0.00
    0   15    3     -5.01      0.00
    1   15    3     -4.02      0.00
    2   15    3     -2.97      0.00
    3   15    3     -2.88      0.00
    4   15    3      3.42      0.00
    5   15    3     -1.11      0.00
    6   15    3     -3.51      0.00
    7   15    3      0.52      0.00
    8   15    3      3.44      0.00
    9   15    3     -0.03      0.00
   10   15    3      4.65      0.00
   11   15    3      4.12      0.00
   12   15    3      2.49      0.00
   13   15    3     -5.95      0.00
   14   15    3      3.66      0.00
   15   15    3      5.05      0.00
    1   16    3      2.41      0.00
    2   16    3      2.60      0.00
    3   16    3     -8.32      0.00
    4   16    3     -1.44      0.00
    5   16    3     -3.44      0.00
    6   16    3     -0.09      0.00
    7   16    3      2.85      0.00
    8   16    3     -4.13      0.00
    9   16    3     -7.13      0.00
   10   16    3      0.40      0.00
   11   16    3     -1.80      0.00
   12   16    3      1.98      0.00
   13   16    3      0.07      0.00
   14   16    3      2.77      0.00
    0   17    3     -6.48      0.00
    1   17    3     -3.65      0.00
    2   17    3      5.97      0.00
    3   17    3      3.49      0.00
    4   17    3      0.28      0.00
    5   17    3      1.99      0.00
    6   17    3     -2.30      0.00
    7   17    3      3.43      0.00
    8   17    3      4.98      0.00
    9   17    3     -4.59      0.00
   10   17    3     -0.20      0.00
   11   17    3     -0.34      0.00
   12   17    3      0.83      0.00
   13   17    3    -12.22      0.00
   14   17    3     -1.64      0.00
    1   18    3     -0.12      0.00
    2   18    3      0.05      0.00
    3   18    3     -4.40      0.00
    4   18    3     -4.31      0.00
    5   18    3      6.67      0.00
    6   18    3      1.58      0.00
    7   18    3      1.55      0.00
    8   18    3      0.52      0.00
    9   18    3     -3.44      0.00
   10   18    3      1.50      0.00
   11   18    3      1.66      0.00
   12   18    3      0.07      0.00
   13   18    3     -0.46      0.00
    0   19    3     -1.65      0.00
    1   19    3      0.91      0.00
    2   19    3      3.63      0.00
    3   19    3     -3.01      0.00
    4   19    3     -1.67      0.00
    5   19    3      1.62      0.00
    6   19    3     -4.88      0.00
    7   19    3      1.65      0.00
    8   19    3      2.37      0.00
    9   19    3     -3.51      0.00
   10   19    3     -1.59      0.00
   11   19    3      3.46      0.00
   12   19    3      2.97      0.00
    1   20    3     -0.67      0.00
    2   20    3      0.85      0.00
    3   20    3     -1.13      0.00
    4   20    3      6.00      0.00
    5   20    3      0.34      0.00
    6   20    3      9.34      0.00
    7   20    3      3.15      0.00
    8   20    3     -0.46      0.00
    9   20    3     -5.04      0.00
   10   20    3     -1.71      0.00
   11   20    3     -0.53      0.00
   12   20    3     -2.66      0.00
    0   21    3      0.28      0.00
    1   21    3     -0.08      0.00
    2   21    3     -1.24      0.00
    3   21    3     -0.14      0.00
    4   21    3     -1.15      0.00
    5   21    3     -6.58      0.00
    6   21    3      0.51      0.00
    7   21    3     -1.48      0.00
    8   21    3      0.51      0.00
    9   21    3     -2.08      0.00
   10   21    3     -4.15      0.00
    1   22    3      2.76      0.00
    2   22    3      1.39      0.00
    3   22    3      3.35      0.00
    4   22    3      1.77      0.00
    5   22    3     -1.07      0.00
    6   22    3     -0.45      0.00
    7   22    3      0.78      0.00
    8   22    3     -1.57      0.00
    9   22    3     -2.15      0.00
    0   23    3     -3.21      0.00
    1   23    3     -4.51      0.00
    2   23    3      6.72      0.00
    3   23    3      2.80      0.00
    4   23    3     -0.02      0.00
    5   23    3      1.65      0.00
    6   23    3      2.51      0.00
    7   23    3      2.88      0.00
    8   23    3     -2.62      0.00
    1   24    3     -3.74      0.00
    2   24    3     -0.55      0.00
    3   24    3     -5.43      0.00
    4   24    3      0.30      0.00
    5   24    3     -2.50      0.00
    0    0    4   -306.81      0.00
    2    0    4    -25.23      0.00
    4    0    4     19.85      0.00
    6    0    4    -11.22      0.00
    8    0    4     -7.25      0.00
   10    0    4     -5.72      0.00
   12    0    4     -2.21      0.00
   14    0    4     -4.75      0.00
   16    0    4     17.77      0.00
   18    0    4     -0.90      0.00
    1    1    4    121.98      0.00
    2    1    4    -15.18      0.00
    3    1    4    -71.44      0.00
    4    1    4     -0.20      0.00
    5    1    4     39.73      0.00
    6    1    4      6.30      0.00
    7    1    4     15.24      0.00
    8    1    4     -3.03      0.00
    9    1    4      2.39      0.00
   10    1    4      5.22      0.00
   11    1    4      6.32      0.00
   12    1    4     -2.44      0.00
   13    1    4     -2.89      0.00
   14    1    4     -6.69      0.00
   15    1    4     -7.74      0.00
   16    1    4      5.06      0.00
   17    1    4    -13.81      0.00
   18    1    4     -0.13      0.00
   19    1    4      3.14      0.00
    0    2    4    -40.51      0.00
    1    2    4     -2.59      0.00
    2    2    4    -26.58      0.00
    3    2    4     42.66      0.00
    4    2    4     -5.09      0.00
    5    2    4     -8.01      0.00
    6    2    4     21.51      0.00
    7    2    4      3.43      0.00
    8    2    4     -3.10      0.00
    9    2    4     -3.15      0.00
   10    2    4     -2.77      0.00
   11    2    4     -1.77      0.00
   12    2    4     -3.68      0.00
   13    2    4     11.09      0.00
   14    2    4     -4.39      0.00
   15    2    4     -5.74      0.00
   16    2    4      4.73      0.00
   17    2    4      1.60      0.00
   18    2    4      1.64      0.00
   19    2    4     -0.40      0.00
    1    3    4    -59.50      0.00
    2    3    4     19.42      0.00
    3    3    4      7.48      0.00
    4    3    4     -9.42      0.00
    5    3    4      3.98      0.00
    6    3    4      3.26      0.00
    7    3    4     -5.88      0.00
    8    3    4     -5.39      0.00
    9    3    4      1.13      0.00
   10    3    4     -2.72      0.00
   11    3    4     -2.50      0.00
   12    3    4     -1.45      0.00
   13    3    4      2.04      0.00
   14    3    4     -9.91      0.00
   15    3    4     -1.67      0.00
   16    3    4      9.10      0.00
   17    3    4     -2.94      0.00
   18    3    4      0.29      0.00
   19    3    4     -1.79      0.00
    0    4    4    111.07      0.00
    1    4    4     -6.60      0.00
    2    4    4    -26.20      0.00
    3    4    4     15.09      0.00
    4    4    4     -9.57      0.00
    5    4    4      5.51      0.00
    6    4    4     20.38      0.00
    7    4    4      0.23      0.00
    8    4    4     -5.40      0.00
    9    4    4      1.68      0.00
   10    4    4      0.52      0.00
   11    4    4      2.99      0.00
   12    4    4     -3.03      0.00
   13    4    4      1.14      0.00
   14    4    4     -4.38      0.00
   15    4    4     -3.40      0.00
   16    4    4      0.09      0.00
   17    4    4      3.14      0.00
   18    4    4      9.86      0.00
   19    4    4      0.66      0.00
    1    5    4    -16.45      0.00
    2    5    4     20.52      0.00
    3    5    4     -2.29      0.00
    4    5    4      3.69      0.00
    5    5    4     -5.95      0.00
    6    5    4     -5.24      0.00
    7    5    4     -0.29      0.00
    8    5    4      2.45      0.00
    9    5    4      2.17      0.00
   10    5    4     -2.98      0.00
   11    5    4     -5.81      0.00
   12    5    4      0.18      0.00
   13    5    4      2.07      0.00
   14    5    4     -4.14      0.00
   15    5    4      0.22      0.00
   16    5    4     -0.69      0.00
   17    5    4     -0.99      0.00
   18    5    4      0.22      0.00
   19    5    4     -2.23      0.00
    0    6    4      8.86      0.00
    1    6    4     20.22      0.00
    2    6    4    -12.19      0.00
    3    6    4    -13.75      0.00
    4    6    4      7.60      0.00
    5    6    4     -0.73      0.00
    6    6    4      6.13      0.00
    7    6    4      2.75      0.00
    8    6    4     -4.43      0.00
    9    6    4     -7.80      0.00
   10    6    4      3.82      0.00
   11    6    4      2.10      0.00
   12    6    4      2.18      0.00
   13    6    4     -0.74      0.00
   14    6    4     -2.85      0.00
   15    6    4      1.36      0.00
   16    6    4     -5.69      0.00
   17    6    4      6.98      0.00
   18    6    4      5.49      0.00
   19    6    4      0.59      0.00
    1    7    4     10.67      0.00
    2    7    4     17.42      0.00
    3    7    4    -12.62      0.00
    4    7    4      1.02      0.00
    5    7    4     -2.31      0.00
    6    7    4     -6.30      0.00
    7    7    4     -3.77      0.00
    8    7    4     12.41      0.00
    9    7    4      3.68      0.00
   10    7    4      1.20      0.00
   11    7    4    -12.79      0.00
   12    7    4     -0.97      0.00
   13    7    4     -2.45      0.00
   14    7    4      2.31      0.00
   15    7    4      6.28      0.00
   16    7    4     -2.98      0.00
   17    7    4     15.98      0.00
   18    7    4      3.31      0.00
   19    7    4     -1.85      0.00
    0    8    4      2.32      0.00
    1    8    4     -3.96      0.00
    2    8    4     -7.36      0.00
    3    8    4     -6.00      0.00
    4    8    4     -3.69      0.00
    5    8    4      9.68      0.00
    6    8    4      2.23      0.00
    7    8    4     -1.96      0.00
    8    8    4     -2.73      0.00
    9    8    4     -6.58      0.00
   10    8    4      5.36      0.00
   11    8    4      5.32      0.00
   12    8    4     -0.11      0.00
   13    8    4      2.92      0.00
   14    8    4      5.07      0.00
   15    8    4     -2.79      0.00
   16    8    4    -14.11      0.00
   17    8    4      6.96      0.00
   18    8    4      1.15      0.00
    1    9    4     -2.48      0.00
    2    9    4     18.15      0.00
    3    9    4      1.60      0.00
    4    9    4    -21.87      0.00
    5    9    4     -1.82      0.00
    6    9    4      1.08      0.00
    7    9    4     -2.13      0.00
    8    9    4      8.50      0.00
    9    9    4      4.88      0.00
   10    9    4     -5.24      0.00
   11    9    4     -9.72      0.00
   12    9    4     -4.18      0.00
   13    9    4     -0.04      0.00
   14    9    4     -3.66      0.00
   15    9    4      3.74      0.00
   16    9    4     -8.30      0.00
   17    9    4     11.22      0.00
   18    9    4      0.00      0.00
    0   10    4     10.50      0.00
    1   10    4     -3.68      0.00
    2   10    4     -5.25      0.00
    3   10    4      3.75      0.00
    4   10    4      6.02      0.00
    5   10    4      6.88      0.00
    6   10    4      1.62      0.00
    7   10    4     -2.45      0.00
    8   10    4     -3.65      0.00
    9   10    4      1.01      0.00
   10   10    4      2.35      0.00
   11   10    4      3.74      0.00
   12   10    4     -1.25      0.00
   13   10    4     -0.09      0.00
   14   10    4      3.15      0.00
   15   10    4      8.43      0.00
   16   10    4      0.00      0.00
   17   10    4      2.93      0.00
   18   10    4      3.58      0.00
    1   11    4     -0.46      0.00
    2   11    4      8.76      0.00
    3   11    4     -2.32      0.00
    4   11    4     -3.96      0.00
    5   11    4     -1.44      0.00
    6   11    4      4.13      0.00
    7   11    4      3.20      0.00
    8   11    4      1.63      0.00
    9   11    4      2.86      0.00
   10   11    4     -5.95      0.00
   11   11    4     -6.28      0.00
   12   11    4      3.21      0.00
   13   11    4      1.60      0.00
   14   11    4      2.53      0.00
   15   11    4     -2.29      0.00
   16   11    4    -11.38      0.00
   17   11    4     -0.08      0.00
    0   12    4     -7.48      0.00
    1   12    4      3.89      0.00
    2   12    4     -0.70      0.00
    3   12    4     -3.85      0.00
    4   12    4      6.27      0.00
    5   12    4     -1.57      0.00
    6   12    4     -4.86      0.00
    7   12    4      1.27      0.00
    8   12    4     -3.51      0.00
    9   12    4     -0.49      0.00
   10   12    4      4.34      0.00
   11   12    4      3.64      0.00
   12   12    4     -4.60      0.00
   13   12    4     -1.86      0.00
   14   12    4      0.77      0.00
   15   12    4      3.68      0.00
   16   12    4      5.37      0.00
   17   12    4     -0.56      0.00
    1   13    4      4.35      0.00
    2   13    4      5.58      0.00
    3   13    4     -6.15      0.00
    4   13    4      0.52      0.00
    5   13    4      1.24      0.00
    6   13    4     -0.73      0.00
    7   13    4     -0.57      0.00
    8   13    4      1.75      0.00
    9   13    4     -0.57      0.00
   10   13    4     -3.15      0.00
   11   13    4     -2.66      0.00
   12   13    4      0.79      0.00
   13   13    4      4.44      0.00
   14   13    4      2.93      0.00
   15   13    4     -2.75      0.00
   16   13    4     -0.68      0.00
    0   14    4     -4.65      0.00
    1   14    4     -0.93      0.00
    2   14    4      5.51      0.00
    3   14    4      2.44      0.00
    4   14    4      2.40      0.00
    5   14    4      1.21      0.00
    6   14    4     -2.05      0.00
    7   14    4     -4.82      0.00
    8   14    4     -1.76      0.00
    9   14    4     -2.83      0.00
   10   14    4      3.39      0.00
   11   14    4     -0.98      0.00
   12   14    4     -0.71      0.00
   13   14    4      3.89      0.00
   14   14    4     -1.07      0.00
   15   14    4     -9.52      0.00
   16   14    4     -0.19      0.00
    1   15    4      1.36      0.00
    2   15    4      1.12      0.00
    3   15    4     -4.85      0.00
    4   15    4     -5.29      0.00
    5   15    4     -0.14      0.00
    6   15    4      1.61      0.00
    7   15    4     -1.86      0.00
    8   15    4      2.28      0.00
    9   15    4      6.47      0.00
   10   15    4     -2.46      0.00
   11   15    4     -0.01      0.00
   12   15    4      0.17      0.00
   13   15    4      2.39      0.00
   14   15    4      4.32      0.00
   15   15    4     -2.87      0.00
    0   16    4     -0.28      0.00
    1   16    4     -0.12      0.00
    2   16    4     -0.56      0.00
    3   16    4      1.13      0.00
    4   16    4     -1.90      0.00
    5   16    4     -2.22      0.00
    6   16    4      1.47      0.00
    7   16    4     -3.93      0.00
    8   16    4      0.58      0.00
    9   16    4      2.71      0.00
   10   16    4      0.31      0.00
   11   16    4     -4.44      0.00
   12   16    4     -1.07      0.00
   13   16    4      4.64      0.00
   14   16    4     -1.22      0.00
    1   17    4     -0.79      0.00
    2   17    4     -0.96      0.00
    3   17    4      2.69      0.00
    4   17    4      3.99      0.00
    5   17    4     -2.57      0.00
    6   17    4      4.08      0.00
    7   17    4     -3.08      0.00
    8   17    4      1.04      0.00
    9   17    4      4.16      0.00
   10   17    4     -1.90      0.00
   11   17    4      1.32      0.00
   12   17    4     -1.37      0.00
   13   17    4      2.02      0.00
   14   17    4     -4.02      0.00
    0   18    4     -0.82      0.00
    1   18    4     -0.66      0.00
    2   18    4     -3.32      0.00
    3   18    4     -0.87      0.00
    4   18    4     -4.94      0.00
    5   18    4     -3.54      0.00
    6   18    4      2.04      0.00
    7   18    4     -0.80      0.00
    8   18    4      1.43      0.00
    9   18    4      6.86      0.00
   10   18    4      0.79      0.00
   11   18    4     -4.32      0.00
   12   18    4     -2.86      0.00
   13   18    4      3.52      0.00
    1   19    4      0.27      0.00
    2   19    4     -1.00      0.00
    3   19    4      3.68      0.00
    4   19    4     -0.23      0.00
    5   19    4     -0.14      0.00
    6   19    4     -0.49      0.00
    7   19    4     -4.01      0.00
    8   19    4     -2.74      0.00
    9   19    4      1.26      0.00
   10   19    4     -4.30      0.00
   11   19    4      1.07      0.00
   12   19    4     -1.64      0.00
    0   20    4     -2.93      0.00
    1   20    4     -5.29      0.00
    2   20    4      1.59      0.00
    3   20    4      6.93      0.00
    4   20    4     -1.07      0.00
    5   20    4      6.95      0.00
    6   20    4      2.19      0.00
    7   20    4      1.87      0.00
    8   20    4      1.58      0.00
    9   20    4      2.52      0.00
   10   20    4      0.88      0.00
   11   20    4     -3.22      0.00
   12   20    4     -3.51      0.00
    1   21    4      1.34      0.00
    2   21    4      0.50      0.00
    3   21    4     -3.29      0.00
    4   21    4     -3.09      0.00
    5   21    4      1.09      0.00
    6   21    4     -1.61      0.00
    7   21    4     -4.19      0.00
    8   21    4     -0.04      0.00
    9   21    4      0.73      0.00
   10   21    4      0.04      0.00
    0   22    4      4.09      0.00
    1   22    4     -0.71      0.00
    2   22    4      3.07      0.00
    3   22    4      0.35      0.00
    4   22    4      3.52      0.00
    5   22    4      1.94      0.00
    6   22    4     -0.44      0.00
    7   22    4     -2.78      0.00
    8   22    4     -0.69      0.00
    9   22    4      0.04      0.00
    1   23    4      0.63      0.00
    2   23    4     -0.31      0.00
    3   23    4      1.84      0.00
    4   23    4      0.79      0.00
    5   23    4      0.70      0.00
    6   23    4      0.80      0.00
    7   23    4     -2.29      0.00
    8   23    4     -1.01      0.00
    0   24    4      1.58      0.00
    1   24    4      2.27      0.00
    2   24    4     -5.06      0.00
    3   24    4     -0.91      0.00
    4   24    4     -2.93      0.00
    5   24    4      1.75      0.00
    1    0    5    -66.03      0.00
    3    0    5     91.30      0.00
    5    0    5    -10.55      0.00
    7    0    5     -4.25      0.00
    9    0    5      3.03      0.00
   11    0    5      5.14      0.00
   13    0    5      0.81      0.00
   15    0    5     -6.45      0.00
   17    0    5     13.37      0.00
   19    0    5     -4.84      0.00
    0    1    5    104.32      0.00
    1    1    5     62.40      0.00
    2    1    5    -63.67      0.00
    3    1    5    -21.31      0.00
    4    1    5      8.07      0.00
    5    1    5     -2.54      0.00
    6    1    5      9.44      0.00
    7    1    5     -5.97      0.00
    8    1    5      1.82      0.00
    9    1    5     -0.89      0.00
   10    1    5     -0.05      0.00
   11    1    5      2.00      0.00
   12    1    5     -2.58      0.00
   13    1    5     -6.74      0.00
   14    1    5      2.05      0.00
   15    1    5      3.43      0.00
   16    1    5    -16.97      0.00
   17    1    5     -3.12      0.00
   18    1    5      2.31      0.00
   19    1    5      2.00      0.00
    1    2    5    -99.41      0.00
    2    2    5    -13.79      0.00
    3    2    5     43.21      0.00
    4    2    5     27.28      0.00
    5    2    5    -19.61      0.00
    6    2    5     -4.84      0.00
    7    2    5     -0.47      0.00
    8    2    5      8.35      0.00
    9    2    5      5.86      0.00
   10    2    5     -3.19      0.00
   11    2    5     -0.51      0.00
   12    2    5      1.35      0.00
   13    2    5     -2.86      0.00
   14    2    5     10.16      0.00
   15    2    5     -4.96      0.00
   16    2    5     -3.56      0.00
   17    2    5      5.12      0.00
   18    2    5      1.24      0.00
   19    2    5     -2.44      0.00
    0    3    5      6.83      0.00
    1    3    5     30.50      0.00
    2    3    5    -10.17      0.00
    3    3    5    -26.22      0.00
    4    3    5      9.19      0.00
    5    3    5     25.04      0.00
    6    3    5      2.35      0.00
    7    3    5     -7.77      0.00
    8    3    5     -4.48      0.00
    9    3    5     -1.81      0.00
   10    3    5      4.07      0.00
   11    3    5      0.23      0.00
   12    3    5      0.15      0.00
   13    3    5     -4.52      0.00
   14    3    5     -2.78      0.00
   15    3    5     -0.16      0.00
   16    3    5     -3.14      0.00
   17    3    5     -0.55      0.00
   18    3    5     -1.20      0.00
   19    3    5      4.21      0.00
    1    4    5      5.15      0.00
    2    4    5     30.85      0.00
    3    4    5     34.44      0.00
    4    4    5     -3.03      0.00
    5    4    5     -3.48      0.00
    6    4    5     -8.29      0.00
    7    4    5     -3.46      0.00
    8    4    5      7.94      0.00
    9    4    5      1.96      0.00
   10    4    5     -2.43      0.00
   11    4    5      0.33      0.00
   12    4    5     -4.63      0.00
   13    4    5     -3.07      0.00
   14    4    5     -1.25      0.00
   15    4    5     -1.46      0.00
   16    4    5     -2.23      0.00
   17    4    5      0.90      0.00
   18    4    5     -1.08      0.00
   19    4    5      0.93      0.00
    0    5    5    -36.37      0.00
    1    5    5    -24.59      0.00
    2    5    5      2.53      0.00
    3    5    5      2.03      0.00
    4    5    5    -10.81      0.00
    5    5    5     22.51      0.00
    6    5    5      1.12      0.00
    7    5    5    -17.07      0.00
    8    5    5      0.26      0.00
    9    5    5     -0.90      0.00
   10    5    5      0.71      0.00
   11    5    5      0.50      0.00
   12    5    5     -5.48      0.00
   13    5    5     11.00      0.00
   14    5    5      0.02      0.00
   15    5    5      3.97      0.00
   16    5    5      2.62      0.00
   17    5    5      1.34      0.00
   18    5    5     -1.54      0.00
   19    5    5     -0.12      0.00
    1    6    5    -30.91      0.00
    2    6    5     11.40      0.00
    3    6    5     14.81      0.00
    4    6    5    -10.42      0.00
    5    6    5    -10.30      0.00
    6    6    5      0.23      0.00
    7    6    5     -3.17      0.00
    8    6    5      3.33      0.00
    9    6    5      3.95      0.00
   10    6    5      3.29      0.00
   11    6    5      8.70      0.00
   12    6    5     -4.90      0.00
   13    6    5      2.23      0.00
   14    6    5     -6.83      0.00
   15    6    5     -3.89      0.00
   16    6    5     -0.95      0.00
   17    6    5      0.59      0.00
   18    6    5      0.08      0.00
   19    6    5     -1.30      0.00
    0    7    5     17.46      0.00
    1    7    5    -11.36      0.00
    2    7    5     -2.85      0.00
    3    7    5     11.37      0.00
    4    7    5      8.86      0.00
    5    7    5     14.19      0.00
    6    7    5      3.44      0.00
    7    7    5     -6.46      0.00
    8    7    5     -6.85      0.00
    9    7    5      4.26      0.00
   10    7    5     -6.03      0.00
   11    7    5     -0.37      0.00
   12    7    5    -12.39      0.00
   13    7    5      1.32      0.00
   14    7    5      1.27      0.00
   15    7    5      4.26      0.00
   16    7    5      5.20      0.00
   17    7    5     -1.43      0.00
   18    7    5     -2.15      0.00
    1    8    5      2.58      0.00
    2    8    5     -2.57      0.00
    3    8    5      9.59      0.00
    4    8    5      0.57      0.00
    5    8    5    -11.43      0.00
    6    8    5     -2.37      0.00
    7    8    5      5.76      0.00
    8    8    5     -3.63      0.00
    9    8    5     -0.25      0.00
   10    8    5      3.59      0.00
   11    8    5      5.89      0.00
   12    8    5     -2.06      0.00
   13    8    5      2.05      0.00
   14    8    5      4.13      0.00
   15    8    5     -3.85      0.00
   16    8    5      9.33      0.00
   17    8    5     -2.41      0.00
   18    8    5     -2.90      0.00
    0    9    5    -16.85      0.00
    1    9    5    -11.15      0.00
    2    9    5     -9.95      0.00
    3    9    5     -2.89      0.00
    4    9    5      6.09      0.00
    5    9    5     10.15      0.00
    6    9    5     -2.36      0.00
    7    9    5     -5.77      0.00
    8    9    5     -5.24      0.00
    9    9    5      4.20      0.00
   10    9    5      5.25      0.00
   11    9    5      0.92      0.00
   12    9    5      1.64      0.00
   13    9    5     -1.72      0.00
   14    9    5     -2.34      0.00
   15    9    5    -13.04      0.00
   16    9    5     13.23      0.00
   17    9    5     -2.15      0.00
   18    9    5      0.80      0.00
    1   10    5      3.47      0.00
    2   10    5      7.44      0.00
    3   10    5     -6.23      0.00
    4   10    5     -3.46      0.00
    5   10    5      0.36      0.00
    6   10    5     -0.73      0.00
    7   10    5      9.07      0.00
    8   10    5      0.37      0.00
    9   10    5     -7.01      0.00
   10   10    5     -2.21      0.00
   11   10    5     -2.40      0.00
   12   10    5     -0.19      0.00
   13   10    5      0.88      0.00
   14   10    5      8.59      0.00
   15   10    5      0.22      0.00
   16   10    5      6.53      0.00
   17   10    5     -4.99      0.00
   18   10    5     -2.68      0.00
    0   11    5     -5.26      0.00
    1   11    5    -12.39      0.00
    2   11    5      4.33      0.00
    3   11    5      1.55      0.00
    4   11    5      5.14      0.00
    5   11    5     15.10      0.00
    6   11    5      0.65      0.00
    7   11    5     -5.34      0.00
    8   11    5     -2.65      0.00
    9   11    5      4.73      0.00
   10   11    5     -0.83      0.00
   11   11    5      1.78      0.00
   12   11    5      0.01      0.00
   13   11    5     -4.35      0.00
   14   11    5     -1.41      0.00
   15   11    5     -7.49      0.00
   16   11    5      1.78      0.00
   17   11    5      2.86      0.00
    1   12    5      1.21      0.00
    2   12    5      5.49      0.00
    3   12    5     -0.16      0.00
    4   12    5     -6.80      0.00
    5   12    5     -2.70      0.00
    6   12    5      2.30      0.00
    7   12    5      2.39      0.00
    8   12    5      0.16      0.00
    9   12    5     -4.22      0.00
   10   12    5     -1.32      0.00
   11   12    5     -2.92      0.00
   12   12    5      2.55      0.00
   13   12    5     -2.78      0.00
   14   12    5      7.95      0.00
   15   12    5      2.60      0.00
   16   12    5      1.84      0.00
   17   12    5      1.27      0.00
    0   13    5     -2.07      0.00
    1   13    5     -6.22      0.00
    2   13    5     -2.77      0.00
    3   13    5      0.00      0.00
    4   13    5      1.55      0.00
    5   13    5      7.65      0.00
    6   13    5      2.69      0.00
    7   13    5     -6.07      0.00
    8   13    5      0.25      0.00
    9   13    5      2.21      0.00
   10   13    5      5.86      0.00
   11   13    5      2.47      0.00
   12   13    5      4.83      0.00
   13   13    5     -4.50      0.00
   14   13    5      2.56      0.00
   15   13    5     -1.78      0.00
   16   13    5     -0.68      0.00
    1   14    5      0.30      0.00
    2   14    5      0.72      0.00
    3   14    5     -3.45      0.00
    4   14    5     -0.83      0.00
    5   14    5      0.84      0.00
    6   14    5      0.01      0.00
    7   14    5      4.12      0.00
    8   14    5     -2.87      0.00
    9   14    5     -5.26      0.00
   10   14    5     -1.17      0.00
   11   14    5     -1.44      0.00
   12   14    5      2.21      0.00
   13   14    5     -0.14      0.00
   14   14    5     -1.80      0.00
   15   14    5      5.37      0.00
   16   14    5     -3.04      0.00
    0   15    5     -4.67      0.00
    1   15    5      3.43      0.00
    2   15    5      6.60      0.00
    3   15    5     -0.99      0.00
    4   15    5     -1.50      0.00
    5   15    5      2.75      0.00
    6   15    5     -5.00      0.00
    7   15    5     -5.17      0.00
    8   15    5     -1.45      0.00
    9   15    5      1.04      0.00
   10   15    5     -0.34      0.00
   11   15    5      2.57      0.00
   12   15    5     -2.41      0.00
   13   15    5     -2.21      0.00
   14   15    5     -4.25      0.00
   15   15    5      5.37      0.00
    1   16    5      1.32      0.00
    2   16    5     -5.89      0.00
    3   16    5     -3.38      0.00
    4   16    5     -0.25      0.00
    5   16    5      7.00      0.00
    6   16    5      1.94      0.00
    7   16    5      6.38      0.00
    8   16    5      2.00      0.00
    9   16    5     -0.33      0.00
   10   16    5     -4.39      0.00
   11   16    5      4.75      0.00
   12   16    5      0.75      0.00
   13   16    5     -0.27      0.00
   14   16    5     -6.92      0.00
    0   17    5     -6.00      0.00
    1   17    5      2.24      0.00
    2   17    5      1.53      0.00
    3   17    5     -2.00      0.00
    4   17    5      2.50      0.00
    5   17    5      4.35      0.00
    6   17    5     -5.74      0.00
    7   17    5     -5.72      0.00
    8   17    5     -3.61      0.00
    9   17    5     -1.50      0.00
   10   17    5      3.71      0.00
   11   17    5      8.57      0.00
   12   17    5      1.64      0.00
   13   17    5      1.34      0.00
   14   17    5      0.67      0.00
    1   18    5      3.30      0.00
    2   18    5     -3.76      0.00
    3   18    5    -11.12      0.00
    4   18    5      1.36      0.00
    5   18    5     -3.02      0.00
    6   18    5      3.84      0.00
    7   18    5      5.66      0.00
    8   18    5      4.06      0.00
    9   18    5     -0.56      0.00
   10   18    5     -2.03      0.00
   11   18    5     -2.32      0.00
   12   18    5      1.52      0.00
   13   18    5      2.88      0.00
    0   19    5     -2.11      0.00
    1   19    5      4.47      0.00
    2   19    5     -0.46      0.00
    3   19    5     -2.53      0.00
    4   19    5      6.76      0.00
    5   19    5     -1.77      0.00
    6   19    5      0.98      0.00
    7   19    5     -3.86      0.00
    8   19    5     -2.78      0.00
    9   19    5     -6.29      0.00
   10   19    5      1.57      0.00
   11   19    5      0.21      0.00
   12   19    5      0.62      0.00
    1   20    5      1.28      0.00
    2   20    5     -4.99      0.00
    3   20    5     -0.14      0.00
    4   20    5      4.16      0.00
    5   20    5      0.77      0.00
    6   20    5      0.85      0.00
    7   20    5      2.25      0.00
    8   20    5      3.04      0.00
    9   20    5     -1.38      0.00
   10   20    5      0.82      0.00
   11   20    5     -1.15      0.00
    0   21    5      1.51      0.00
    1   21    5      7.75      0.00
    2   21    5     -1.75      0.00
    3   21    5     -4.77      0.00
    4   21    5     -1.84      0.00
    5   21    5      1.16      0.00
    6   21    5     -1.40      0.00
    7   21    5      1.20      0.00
    8   21    5     -0.77      0.00
    9   21    5     -2.33      0.00
   10   21    5      1.94      0.00
    1   22    5      1.43      0.00
    2   22    5     -4.77      0.00
    3   22    5      4.93      0.00
    4   22    5      2.31      0.00
    5   22    5      1.42      0.00
    6   22    5      2.27      0.00
    7   22    5      1.63      0.00
    8   22    5     -0.34      0.00
    9   22    5     -4.23      0.00
    0   23    5      0.49      0.00
    1   23    5      2.52      0.00
    2   23    5     -3.10      0.00
    3   23    5     -0.70      0.00
    4   23    5     -0.53      0.00
    5   23    5     -2.79      0.00
    6   23    5     -1.04      0.00
    7   23    5     -0.48      0.00
    8   23    5      0.73      0.00
    1   24    5      2.38      0.00
    2   24    5     -1.50      0.00
    3   24    5      3.43      0.00
    4   24    5      1.17      0.00
    5   24    5     -0.64      0.00
    0    0    6     76.03      0.00
    2    0    6     67.39      0.00
    4    0    6    -40.67      0.00
    6    0    6     57.16      0.00
    8    0    6     -8.56      0.00
   10    0    6      1.29      0.00
   12    0    6     10.87      0.00
   14    0    6    -10.09      0.00
   16    0    6      2.94      0.00
   18    0    6     -1.03      0.00
    1    1    6    -46.25      0.00
    2    1    6     70.63      0.00
    3    1    6      9.29      0.00
    4    1    6    -27.19      0.00
    5    1    6     -8.16      0.00
    6    1    6     -8.11      0.00
    7    1    6    -13.26      0.00
    8    1    6      0.06      0.00
    9    1    6      7.65      0.00
   10    1    6     -2.18      0.00
   11    1    6     -9.39      0.00
   12    1    6     -1.84      0.00
   13    1    6     -2.53      0.00
   14    1    6     -8.47      0.00
   15    1    6      9.77      0.00
   16    1    6      1.48      0.00
   17    1    6    -12.01      0.00
   18    1    6     -1.75      0.00
   19    1    6      0.64      0.00
    0    2    6    -72.06      0.00
    1    2    6   -116.70      0.00
    2    2    6      0.88      0.00
    3    2    6     12.68      0.00
    4    2    6    -29.25      0.00
    5    2    6     13.98      0.00
    6    2    6     22.20      0.00
    7    2    6     -1.97      0.00
    8    2    6     -6.10      0.00
    9    2    6     -0.99      0.00
   10    2    6     -4.08      0.00
   11    2    6      3.59      0.00
   12    2    6      3.00      0.00
   13    2    6      8.47      0.00
   14    2    6     -2.43      0.00
   15    2    6      3.35      0.00
   16    2    6      0.12      0.00
   17    2    6      5.49      0.00
   18    2    6      1.15      0.00
   19    2    6     -3.17      0.00
    1    3    6     44.93      0.00
    2    3    6     27.59      0.00
    3    3    6    -14.15      0.00
    4    3    6    -11.15      0.00
    5    3    6     10.63      0.00
    6    3    6      4.49      0.00
    7    3    6      1.19      0.00
    8    3    6      2.45      0.00
    9    3    6      3.11      0.00
   10    3    6      5.73      0.00
   11    3    6      2.82      0.00
   12    3    6     -3.28      0.00
   13    3    6     -0.45      0.00
   14    3    6    -10.02      0.00
   15    3    6     -1.64      0.00
   16    3    6     -2.21      0.00
   17    3    6     -5.16      0.00
   18    3    6      0.31      0.00
   19    3    6     -0.35      0.00
    0    4    6      2.16      0.00
    1    4    6    -15.73      0.00
    2    4    6     -8.94      0.00
    3    4    6     15.77      0.00
    4    4    6      8.99      0.00
    5    4    6    -10.60      0.00
    6    4    6     16.08      0.00
    7    4    6      2.84      0.00
    8    4    6     -7.29      0.00
    9    4    6     -8.83      0.00
   10    4    6     -5.57      0.00
   11    4    6      3.42      0.00
   12    4    6      3.61      0.00
   13    4    6     -3.97      0.00
   14    4    6      2.41      0.00
   15    4    6      6.06      0.00
   16    4    6     -3.68      0.00
   17    4    6      0.04      0.00
   18    4    6     -1.38      0.00
   19    4    6     -2.58      0.00
    1    5    6    -11.01      0.00
    2    5    6      5.04      0.00
    3    5    6     -9.18      0.00
    4    5    6     -5.90      0.00
    5    5    6     -1.39      0.00
    6    5    6     -1.09      0.00
    7    5    6      5.58      0.00
    8    5    6      3.32      0.00
    9    5    6      0.86      0.00
   10    5    6     -2.01      0.00
   11    5    6     -5.63      0.00
   12    5    6      5.00      0.00
   13    5    6     -1.66      0.00
   14    5    6      7.69      0.00
   15    5    6     -0.18      0.00
   16    5    6      2.06      0.00
   17    5    6      1.61      0.00
   18    5    6      1.47      0.00
   19    5    6      1.27      0.00
    0    6    6      7.33      0.00
    1    6    6    -14.60      0.00
    2    6    6    -17.40      0.00
    3    6    6      0.13      0.00
    4    6    6     -6.91      0.00
    5    6    6      8.80      0.00
    6    6    6      5.52      0.00
    7    6    6      0.61      0.00
    8    6    6     -6.32      0.00
    9    6    6     -1.69      0.00
   10    6    6      3.38      0.00
   11    6    6      6.69      0.00
   12    6    6      9.59      0.00
   13    6    6     -7.92      0.00
   14    6    6     -3.86      0.00
   15    6    6     -8.00      0.00
   16    6    6      1.21      0.00
   17    6    6      0.62      0.00
   18    6    6      0.87      0.00
   19    6    6     -1.83      0.00
    1    7    6      3.31      0.00
    2    7    6     33.62      0.00
    3    7    6      2.23      0.00
    4    7    6    -20.05      0.00
    5    7    6      7.96      0.00
    6    7    6      0.15      0.00
    7    7    6      3.95      0.00
    8    7    6     11.10      0.00
    9    7    6     -2.98      0.00
   10    7    6    -12.12      0.00
   11    7    6     -6.82      0.00
   12    7    6      4.54      0.00
   13    7    6     -1.45      0.00
   14    7    6      5.38      0.00
   15    7    6      1.21      0.00
   16    7    6     -3.28      0.00
   17    7    6     -9.75      0.00
   18    7    6     -0.48      0.00
    0    8    6      0.01      0.00
    1    8    6    -15.58      0.00
    2    8    6     12.56      0.00
    3    8    6     -1.08      0.00
    4    8    6     -1.97      0.00
    5    8    6      6.91      0.00
    6    8    6      1.27      0.00
    7    8    6     -4.14      0.00
    8    8    6      3.00      0.00
    9    8    6     -2.83      0.00
   10    8    6      0.39      0.00
   11    8    6      2.40      0.00
   12    8    6      4.05      0.00
   13    8    6     -4.87      0.00
   14    8    6     -5.25      0.00
   15    8    6      4.91      0.00
   16    8    6      1.71      0.00
   17    8    6      3.57      0.00
   18    8    6      2.70      0.00
    1    9    6     -8.24      0.00
    2    9    6     13.29      0.00
    3    9    6     -6.02      0.00
    4    9    6     -7.06      0.00
    5    9    6      0.24      0.00
    6    9    6      1.38      0.00
    7    9    6     -1.68      0.00
    8    9    6      8.59      0.00
    9    9    6      4.48      0.00
   10    9    6     -3.67      0.00
   11    9    6      0.59      0.00
   12    9    6     10.02      0.00
   13    9    6      1.80      0.00
   14    9    6      2.98      0.00
   15    9    6      1.84      0.00
   16    9    6     -8.46      0.00
   17    9    6      1.29      0.00
   18    9    6      3.46      0.00
    0   10    6     -6.57      0.00
    1   10    6     -1.03      0.00
    2   10    6     -0.08      0.00
    3   10    6      0.05      0.00
    4   10    6     -0.43      0.00
    5   10    6     -3.33      0.00
    6   10    6     -1.25      0.00
    7   10    6      2.08      0.00
    8   10    6      1.47      0.00
    9   10    6     -5.94      0.00
   10   10    6     -0.99      0.00
   11   10    6      0.07      0.00
   12   10    6     -3.96      0.00
   13   10    6     -1.64      0.00
   14   10    6     -0.19      0.00
   15   10    6      4.39      0.00
   16   10    6     -6.86      0.00
   17   10    6     -1.57      0.00
   18   10    6     -1.34      0.00
    1   11    6      5.75      0.00
    2   11    6      2.84      0.00
    3   11    6      0.03      0.00
    4   11    6     -2.73      0.00
    5   11    6      1.38      0.00
    6   11    6     -0.33      0.00
    7   11    6      0.66      0.00
    8   11    6      9.12      0.00
    9   11    6      2.77      0.00
   10   11    6      0.45      0.00
   11   11    6     -1.09      0.00
   12   11    6     -1.62      0.00
   13   11    6      1.96      0.00
   14   11    6     -5.69      0.00
   15   11    6      0.89      0.00
   16   11    6      1.10      0.00
   17   11    6      1.66      0.00
    0   12    6     -7.45      0.00
    1   12    6     -2.17      0.00
    2   12    6      3.97      0.00
    3   12    6      3.64      0.00
    4   12    6      5.67      0.00
    5   12    6      1.09      0.00
    6   12    6     -7.95      0.00
    7   12    6     -1.22      0.00
    8   12    6     -0.14      0.00
    9   12    6     -2.36      0.00
   10   12    6     -1.32      0.00
   11   12    6     -0.90      0.00
   12   12    6     -0.57      0.00
   13   12    6      7.26      0.00
   14   12    6     -6.18      0.00
   15   12    6      2.83      0.00
   16   12    6      2.14      0.00
   17   12    6     -2.14      0.00
    1   13    6      2.97      0.00
    2   13    6     -0.32      0.00
    3   13    6     -5.47      0.00
    4   13    6     -4.94      0.00
    5   13    6      4.81      0.00
    6   13    6      3.29      0.00
    7   13    6      5.21      0.00
    8   13    6      4.76      0.00
    9   13    6      7.32      0.00
   10   13    6     -4.08      0.00
   11   13    6      4.19      0.00
   12   13    6      1.06      0.00
   13   13    6      3.18      0.00
   14   13    6     -2.77      0.00
   15   13    6     -3.45      0.00
   16   13    6     -1.94      0.00
    0   14    6     -7.65      0.00
    1   14    6     -2.21      0.00
    2   14    6     -2.76      0.00
    3   14    6      1.23      0.00
    4   14    6      5.53      0.00
    5   14    6     -2.29      0.00
    6   14    6     -3.76      0.00
    7   14    6     -0.01      0.00
    8   14    6      0.83      0.00
    9   14    6      0.18      0.00
   10   14    6     -4.14      0.00
   11   14    6      2.78      0.00
   12   14    6     -1.81      0.00
   13   14    6      0.79      0.00
   14   14    6      0.66      0.00
   15   14    6      3.10      0.00
   16   14    6      4.48      0.00
    1   15    6      5.69      0.00
    2   15    6      4.31      0.00
    3   15    6     -3.54      0.00
    4   15    6      0.44      0.00
    5   15    6     -3.84      0.00
    6   15    6      0.36      0.00
    7   15    6     -0.52      0.00
    8   15    6      2.16      0.00
    9   15    6     -1.77      0.00
   10   15    6     -2.12      0.00
   11   15    6     -4.37      0.00
   12   15    6     -0.23      0.00
   13   15    6      2.35      0.00
   14   15    6      4.37      0.00
   15   15    6     -6.10      0.00
    0   16    6     -2.58      0.00
    1   16    6     -5.39      0.00
    2   16    6      2.66      0.00
    3   16    6     -1.28      0.00
    4   16    6      8.22      0.00
    5   16    6     -2.74      0.00
    6   16    6      1.45      0.00
    7   16    6      5.08      0.00
    8   16    6      5.43      0.00
    9   16    6     -2.39      0.00
   10   16    6      1.96      0.00
   11   16    6     -2.32      0.00
   12   16    6      0.92      0.00
   13   16    6     -2.97      0.00
   14   16    6      0.39      0.00
    1   17    6     -0.23      0.00
    2   17    6      3.03      0.00
    3   17    6     -4.58      0.00
    4   17    6     -2.22      0.00
    5   17    6      1.33      0.00
    6   17    6     -4.34      0.00
    7   17    6     -3.71      0.00
    8   17    6     -3.34      0.00
    9   17    6     -0.59      0.00
   10   17    6      4.12      0.00
   11   17    6      0.48      0.00
   12   17    6      1.32      0.00
   13   17    6      1.39      0.00
   14   17    6     13.81      0.00
    0   18    6      0.58      0.00
    1   18    6     -3.31      0.00
    2   18    6      6.16      0.00
    3   18    6      2.42      0.00
    4   18    6     -7.93      0.00
    5   18    6      0.24      0.00
    6   18    6     -2.95      0.00
    7   18    6      5.48      0.00
    8   18    6      8.21      0.00
    9   18    6     -0.86      0.00
   10   18    6     -2.15      0.00
   11   18    6     -0.97      0.00
   12   18    6     -0.90      0.00
   13   18    6     -1.44      0.00
    1   19    6     -2.30      0.00
    2   19    6      2.55      0.00
    3   19    6      0.86      0.00
    4   19    6     -1.61      0.00
    5   19    6      5.88      0.00
    6   19    6     -0.16      0.00
    7   19    6      0.85      0.00
    8   19    6     -2.68      0.00
    9   19    6      0.73      0.00
   10   19    6     -0.42      0.00
   11   19    6      1.16      0.00
   12   19    6     -2.32      0.00
    0   20    6      0.64      0.00
    1   20    6     -6.28      0.00
    2   20    6      3.79      0.00
    3   20    6     -2.14      0.00
    4   20    6     -2.16      0.00
    5   20    6     -7.38      0.00
    6   20    6     -4.13      0.00
    7   20    6     -1.52      0.00
    8   20    6      1.38      0.00
    9   20    6      3.77      0.00
   10   20    6     -0.74      0.00
   11   20    6      3.65      0.00
    1   21    6      0.40      0.00
    2   21    6      1.57      0.00
    3   21    6     -0.43      0.00
    4   21    6      2.16      0.00
    5   21    6     -1.07      0.00
    6   21    6      2.57      0.00
    7   21    6      2.55      0.00
    8   21    6     -1.56      0.00
    9   21    6      3.72      0.00
   10   21    6     -2.08      0.00
    0   22    6     -1.82      0.00
    1   22    6     -8.47      0.00
    2   22    6      1.36      0.00
    3   22    6      0.37      0.00
    4   22    6     -2.06      0.00
    5   22    6      1.03      0.00
    6   22    6      1.46      0.00
    7   22    6      1.72      0.00
    8   22    6      0.56      0.00
    9   22    6     -1.83      0.00
    1   23    6     -0.71      0.00
    2   23    6      1.10      0.00
    3   23    6     -5.22      0.00
    4   23    6     -0.89      0.00
    5   23    6      0.13      0.00
    6   23    6     -3.25      0.00
    7   23    6      0.74      0.00
    0   24    6      3.35      0.00
    1   24    6     -1.22      0.00
    2   24    6      9.85      0.00
    3   24    6     -1.45      0.00
    4   24    6      2.29      0.00
    5   24    6      0.21      0.00
    1    0    7     55.99      0.00
    3    0    7    -17.13      0.00
    5    0    7      2.89      0.00
    7    0    7     13.05      0.00
    9    0    7      0.75      0.00
   11    0    7     13.55      0.00
   13    0    7      2.87      0.00
   15    0    7    -14.75      0.00
   17    0    7      4.15      0.00
   19    0    7     -3.96      0.00
    0    1    7     34.64      0.00
    1    1    7     66.32      0.00
    2    1    7    -48.62      0.00
    3    1    7      7.14      0.00
    4    1    7     30.61      0.00
    5    1    7     -7.88      0.00
    6    1    7    -29.88      0.00
    7    1    7      3.04      0.00
    8    1    7      2.35      0.00
    9    1    7     -1.36      0.00
   10    1    7     -2.48      0.00
   11    1    7     -3.05      0.00
   12    1    7     -8.02      0.00
   13    1    7     -4.49      0.00
   14    1    7      5.43      0.00
   15    1    7     -3.31      0.00
   16    1    7      2.21      0.00
   17    1    7     -0.95      0.00
   18    1    7     -0.55      0.00
   19    1    7      0.68      0.00
    1    2    7    -12.98      0.00
    2    2    7    -63.95      0.00
    3    2    7     28.76      0.00
    4    2    7     -3.80      0.00
    5    2    7    -13.90      0.00
    6    2    7      5.37      0.00
    7    2    7     -4.19      0.00
    8    2    7      2.10      0.00
    9    2    7      3.45      0.00
   10    2    7     -0.93      0.00
   11    2    7      2.69      0.00
   12    2    7      2.75      0.00
   13    2    7      2.50      0.00
   14    2    7     12.55      0.00
   15    2    7     -4.14      0.00
   16    2    7     -0.55      0.00
   17    2    7      5.87      0.00
   18    2    7      0.48      0.00
   19    2    7     -2.54      0.00
    0    3    7    104.52      0.00
    1    3    7     53.83      0.00
    2    3    7    -16.08      0.00
    3    3    7    -18.14      0.00
    4    3    7     -6.90      0.00
    5    3    7      6.84      0.00
    6    3    7      5.14      0.00
    7    3    7     -3.25      0.00
    8    3    7      5.51      0.00
    9    3    7      4.67      0.00
   10    3    7      2.57      0.00
   11    3    7     -0.94      0.00
   12    3    7      1.98      0.00
   13    3    7     -2.96      0.00
   14    3    7     -3.99      0.00
   15    3    7     -9.09      0.00
   16    3    7     -2.76      0.00
   17    3    7     -2.46      0.00
   18    3    7     -2.08      0.00
   19    3    7     -0.32      0.00
    1    4    7    -47.44      0.00
    2    4    7     -1.14      0.00
    3    4    7     38.12      0.00
    4    4    7    -12.25      0.00
    5    4    7    -12.97      0.00
    6    4    7     -2.97      0.00
    7    4    7     -3.27      0.00
    8    4    7      6.92      0.00
    9    4    7      8.00      0.00
   10    4    7     -5.85      0.00
   11    4    7     -2.34      0.00
   12    4    7      1.47      0.00
   13    4    7      1.46      0.00
   14    4    7      8.76      0.00
   15    4    7      3.04      0.00
   16    4    7      1.90      0.00
   17    4    7     -1.75      0.00
   18    4    7     -3.97      0.00
   19    4    7     -5.93      0.00
    0    5    7      7.91      0.00
    1    5    7     -2.73      0.00
    2    5    7     -9.82      0.00
    3    5    7    -20.51      0.00
    4    5    7     -0.08      0.00
    5    5    7     15.14      0.00
    6    5    7      1.86      0.00
    7    5    7     -6.29      0.00
    8    5    7      4.00      0.00
    9    5    7      3.00      0.00
   10    5    7      2.31      0.00
   11    5    7     -1.84      0.00
   12    5    7     -3.49      0.00
   13    5    7      4.43      0.00
   14    5    7     -0.81      0.00
   15    5    7     -2.60      0.00
   16    5    7     -2.78      0.00
   17    5    7      1.91      0.00
   18    5    7     -0.32      0.00
   19    5    7      1.40      0.00
    1    6    7      8.80      0.00
    2    6    7      0.89      0.00
    3    6    7     12.66      0.00
    4    6    7      9.28      0.00
    5    6    7     -6.81      0.00
    6    6    7     -1.46      0.00
    7    6    7     -1.86      0.00
    8    6    7      1.68      0.00
    9    6    7      4.85      0.00
   10    6    7      6.21      0.00
   11    6    7     -4.59      0.00
   12    6    7     -2.62      0.00
   13    6    7      1.42      0.00
   14    6    7     -3.17      0.00
   15    6    7      0.05      0.00
   16    6    7     -2.46      0.00
   17    6    7      2.57      0.00
   18    6    7     -2.57      0.00
   19    6    7     -3.61      0.00
    0    7    7    -10.02      0.00
    1    7    7     -7.09      0.00
    2    7    7    -10.07      0.00
    3    7    7     -7.85      0.00
    4    7    7      5.99      0.00
    5    7    7      5.52      0.00
    6    7    7      3.18      0.00
    7    7    7     -9.11      0.00
    8    7    7     -1.48      0.00
    9    7    7     -2.66      0.00
   10    7    7     10.46      0.00
   11    7    7      0.22      0.00
   12    7    7      2.36      0.00
   13    7    7      5.67      0.00
   14    7    7      2.31      0.00
   15    7    7      1.52      0.00
   16    7    7    -10.98      0.00
   17    7    7     -3.10      0.00
   18    7    7     -3.83      0.00
    1    8    7      1.04      0.00
    2    8    7      5.06      0.00
    3    8    7      4.43      0.00
    4    8    7     -2.69      0.00
    5    8    7     -2.74      0.00
    6    8    7     -1.05      0.00
    7    8    7      4.48      0.00
    8    8    7      1.51      0.00
    9    8    7      1.23      0.00
   10    8    7      3.64      0.00
   11    8    7     -6.40      0.00
   12    8    7     -7.93      0.00
   13    8    7      0.20      0.00
   14    8    7     -5.20      0.00
   15    8    7     -2.73      0.00
   16    8    7      0.27      0.00
   17    8    7      6.31      0.00
   18    8    7     -2.12      0.00
    0    9    7     10.59      0.00
    1    9    7    -15.27      0.00
    2    9    7     -8.10      0.00
    3    9    7      3.18      0.00
    4    9    7      6.34      0.00
    5    9    7     18.44      0.00
    6    9    7      2.08      0.00
    7    9    7    -12.26      0.00
    8    9    7     -7.07      0.00
    9    9    7      2.37      0.00
   10    9    7      7.71      0.00
   11    9    7      6.42      0.00
   12    9    7      1.41      0.00
   13    9    7      9.14      0.00
   14    9    7     -0.66      0.00
   15    9    7      5.16      0.00
   16    9    7     -5.04      0.00
   17    9    7      1.14      0.00
   18    9    7     -4.01      0.00
    1   10    7      0.30      0.00
    2   10    7      9.67      0.00
    3   10    7     -1.07      0.00
    4   10    7    -14.31      0.00
    5   10    7     -6.46      0.00
    6   10    7      2.76      0.00
    7   10    7      6.22      0.00
    8   10    7     -0.57      0.00
    9   10    7      0.32      0.00
   10   10    7     -1.41      0.00
   11   10    7     -1.04      0.00
   12   10    7     -2.42      0.00
   13   10    7     -0.96      0.00
   14   10    7     -2.93      0.00
   15   10    7     -4.44      0.00
   16   10    7     -2.62      0.00
   17   10    7     -2.56      0.00
   18   10    7     -0.41      0.00
    0   11    7      5.52      0.00
    1   11    7    -10.39      0.00
    2   11    7     -3.10      0.00
    3   11    7     -3.51      0.00
    4   11    7      4.38      0.00
    5   11    7      6.98      0.00
    6   11    7      1.82      0.00
    7   11    7     -9.21      0.00
    8   11    7     -4.24      0.00
    9   11    7      6.43      0.00
   10   11    7      7.62      0.00
   11   11    7      4.66      0.00
   12   11    7      1.60      0.00
   13   11    7     -7.03      0.00
   14   11    7      1.56      0.00
   15   11    7      1.62      0.00
   16   11    7      1.26      0.00
   17   11    7      1.81      0.00
    1   12    7      1.59      0.00
    2   12    7      3.89      0.00
    3   12    7     -5.44      0.00
    4   12    7     -1.01      0.00
    5   12    7     -3.69      0.00
    6   12    7      2.18      0.00
    7   12    7      6.79      0.00
    8   12    7     -1.51      0.00
    9   12    7     -4.08      0.00
   10   12    7     -2.46      0.00
   11   12    7      0.53      0.00
   12   12    7      1.72      0.00
   13   12    7      2.21      0.00
   14   12    7      4.09      0.00
   15   12    7     -3.82      0.00
   16   12    7     -3.25      0.00
   17   12    7     -2.26      0.00
    0   13    7     -1.68      0.00
    1   13    7     -2.89      0.00
    2   13    7      6.04      0.00
    3   13    7     -4.80      0.00
    4   13    7      3.79      0.00
    5   13    7      4.42      0.00
    6   13    7      3.93      0.00
    7   13    7     -2.16      0.00
    8   13    7     -0.89      0.00
    9   13    7      2.43      0.00
   10   13    7      6.86      0.00
   11   13    7      1.64      0.00
   12   13    7     -4.71      0.00
   13   13    7     -4.76      0.00
   14   13    7     -0.39      0.00
   15   13    7     -1.61      0.00
   16   13    7     -2.86      0.00
    1   14    7     -2.97      0.00
    2   14    7      0.22      0.00
    3   14    7     -4.48      0.00
    4   14    7     -3.55      0.00
    5   14    7      1.80      0.00
    6   14    7      1.86      0.00
    7   14    7      3.13      0.00
    8   14    7      1.51      0.00
    9   14    7     -3.76      0.00
   10   14    7      2.59      0.00
   11   14    7      0.19      0.00
   12   14    7     -0.05      0.00
   13   14    7     -1.19      0.00
   14   14    7      1.69      0.00
   15   14    7      2.98      0.00
   16   14    7      6.38      0.00
    0   15    7     -0.33      0.00
    1   15    7     -1.66      0.00
    2   15    7      3.08      0.00
    3   15    7      1.82      0.00
    4   15    7     -1.75      0.00
    5   15    7      4.96      0.00
    6   15    7      1.12      0.00
    7   15    7     -6.39      0.00
    8   15    7     -3.22      0.00
    9   15    7      4.28      0.00
   10   15    7      1.52      0.00
   11   15    7      1.20      0.00
   12   15    7     -0.20      0.00
   13   15    7      0.15      0.00
   14   15    7      1.28      0.00
   15   15    7     -3.68      0.00
    1   16    7      0.30      0.00
    2   16    7     -2.29      0.00
    3   16    7      5.02      0.00
    4   16    7     -1.04      0.00
    5   16    7      3.84      0.00
    6   16    7      6.99      0.00
    7   16    7      1.81      0.00
    8   16    7     -1.64      0.00
    9   16    7     -0.11      0.00
   10   16    7     -2.39      0.00
   11   16    7      1.14      0.00
   12   16    7      2.69      0.00
   13   16    7     -0.86      0.00
   14   16    7     -7.16      0.00
    0   17    7     -0.97      0.00
    1   17    7      3.22      0.00
    2   17    7     -2.85      0.00
    3   17    7     -0.04      0.00
    4   17    7     -0.95      0.00
    5   17    7     -3.66      0.00
    6   17    7      3.17      0.00
    7   17    7    -10.68      0.00
    8   17    7     -6.02      0.00
    9   17    7      5.61      0.00
   10   17    7      1.09      0.00
   11   17    7      0.96      0.00
   12   17    7     -0.88      0.00
   13   17    7      3.55      0.00
   14   17    7     -0.52      0.00
    1   18    7      3.47      0.00
    2   18    7     -4.32      0.00
    3   18    7      6.36      0.00
    4   18    7      3.30      0.00
    5   18    7     -1.46      0.00
    6   18    7      3.91      0.00
    7   18    7      1.27      0.00
    8   18    7     -0.79      0.00
    9   18    7     -0.65      0.00
   10   18    7     -2.82      0.00
   11   18    7      0.27      0.00
   12   18    7      4.12      0.00
   13   18    7      0.56      0.00
    0   19    7     -1.67      0.00
    1   19    7      2.10      0.00
    2   19    7     -3.79      0.00
    3   19    7     -0.41      0.00
    4   19    7      0.61      0.00
    5   19    7      2.24      0.00
    6   19    7      4.48      0.00
    7   19    7     -3.84      0.00
    8   19    7     -0.90      0.00
    9   19    7      2.04      0.00
   10   19    7      4.45      0.00
   11   19    7      0.88      0.00
   12   19    7     -0.13      0.00
    1   20    7      2.89      0.00
    2   20    7     -3.21      0.00
    3   20    7     -0.84      0.00
    4   20    7     -6.93      0.00
    5   20    7     -0.35      0.00
    6   20    7     -3.93      0.00
    7   20    7     -5.89      0.00
    8   20    7      1.26      0.00
    9   20    7     -2.17      0.00
   10   20    7      3.82      0.00
   11   20    7      2.15      0.00
    0   21    7     -0.82      0.00
    1   21    7      1.99      0.00
    2   21    7      0.42      0.00
    3   21    7      2.50      0.00
    4   21    7      2.52      0.00
    5   21    7      2.44      0.00
    6   21    7      4.74      0.00
    7   21    7     -2.14      0.00
    8   21    7      4.18      0.00
    9   21    7     -0.64      0.00
   10   21    7      4.05      0.00
    1   22    7     -2.46      0.00
    2   22    7     -3.38      0.00
    3   22    7     -2.28      0.00
    4   22    7     -3.27      0.00
    5   22    7     -0.02      0.00
    6   22    7      1.97      0.00
    7   22    7     -2.89      0.00
    8   22    7     -0.37      0.00
    9   22    7      0.61      0.00
    0   23    7      0.13      0.00
    1   23    7      3.78      0.00
    2   23    7     -5.91      0.00
    3   23    7     -0.68      0.00
    4   23    7     -0.07      0.00
    5   23    7      0.22      0.00
    6   23    7      0.78      0.00
    7   23    7     -0.17      0.00
    1   24    7      3.79      0.00
    2   24    7      0.25      0.00
    3   24    7     10.01      0.00
    4   24    7     -2.89      0.00
    5   24    7      1.41      0.00
    0    0    8    -40.53      0.00
    2    0    8     17.18      0.00
    4    0    8    -56.91      0.00
    6    0    8     22.15      0.00
    8    0    8     -4.55      0.00
   10    0    8     -3.12      0.00
   12    0    8      3.87      0.00
   14    0    8      1.69      0.00
   16    0    8     -5.17      0.00
   18    0    8     -0.52      0.00
    1    1    8     15.59      0.00
    2    1    8      1.12      0.00
    3    1    8     32.69      0.00
    4    1    8     13.91      0.00
    5    1    8    -17.95      0.00
    6    1    8     -1.35      0.00
    7    1    8     -6.60      0.00
    8    1    8      5.73      0.00
    9    1    8      4.42      0.00
   10    1    8      2.09      0.00
   11    1    8     -0.85      0.00
   12    1    8     -1.27      0.00
   13    1    8     -0.26      0.00
   14    1    8     -4.66      0.00
   15    1    8      9.71      0.00
   16    1    8      2.01      0.00
   17    1    8     -3.12      0.00
   18    1    8     -1.24      0.00
   19    1    8     -4.20      0.00
    0    2    8     16.59      0.00
    1    2    8    -40.69      0.00
    2    2    8     39.47      0.00
    3    2    8    -20.02      0.00
    4    2    8    -22.57      0.00
    5    2    8     -2.58      0.00
    6    2    8     20.46      0.00
    7    2    8     -1.86      0.00
    8    2    8    -10.21      0.00
    9    2    8     -1.94      0.00
   10    2    8     -1.20      0.00
   11    2    8      2.30      0.00
   12    2    8      0.37      0.00
   13    2    8      3.64      0.00
   14    2    8      5.47      0.00
   15    2    8      5.39      0.00
   16    2    8      0.86      0.00
   17    2    8     -1.96      0.00
   18    2    8      0.65      0.00
   19    2    8      0.30      0.00
    1    3    8     11.00      0.00
    2    3    8     22.59      0.00
    3    3    8     -3.87      0.00
    4    3    8     -4.50      0.00
    5    3    8     -7.28      0.00
    6    3    8    -11.06      0.00
    7    3    8      3.45      0.00
    8    3    8      5.59      0.00
    9    3    8     -0.09      0.00
   10    3    8      0.49      0.00
   11    3    8      0.70      0.00
   12    3    8     -1.53      0.00
   13    3    8      3.35      0.00
   14    3    8     -8.86      0.00
   15    3    8      0.54      0.00
   16    3    8      1.38      0.00
   17    3    8     -4.98      0.00
   18    3    8     -3.15      0.00
   19    3    8     -3.03      0.00
    0    4    8    -29.83      0.00
    1    4    8    -59.86      0.00
    2    4    8     -2.05      0.00
    3    4    8     -2.09      0.00
    4    4    8    -17.63      0.00
    5    4    8      4.18      0.00
    6    4    8     13.12      0.00
    7    4    8     -0.39      0.00
    8    4    8     -7.66      0.00
    9    4    8     -1.60      0.00
   10    4    8      4.42      0.00
   11    4    8      3.95      0.00
   12    4    8      0.39      0.00
   13    4    8      5.63      0.00
   14    4    8      1.75      0.00
   15    4    8      4.19      0.00
   16    4    8      1.14      0.00
   17    4    8     -1.80      0.00
   18    4    8     -0.82      0.00
   19    4    8     -1.13      0.00
    1    5    8      7.14      0.00
    2    5    8     15.40      0.00
    3    5    8      0.02      0.00
    4    5    8    -22.80      0.00
    5    5    8      5.32      0.00
    6    5    8      2.36      0.00
    7    5    8      3.47      0.00
    8    5    8     10.17      0.00
    9    5    8     -2.55      0.00
   10    5    8     -3.15      0.00
   11    5    8      4.43      0.00
   12    5    8     -3.35      0.00
   13    5    8      2.91      0.00
   14    5    8     -5.32      0.00
   15    5    8     -2.09      0.00
   16    5    8     -2.63      0.00
   17    5    8     -4.57      0.00
   18    5    8      0.14      0.00
   19    5    8     -2.53      0.00
    0    6    8     30.77      0.00
    1    6    8    -19.52      0.00
    2    6    8     10.04      0.00
    3    6    8      6.84      0.00
    4    6    8      0.05      0.00
    5    6    8      8.94      0.00
    6    6    8     16.03      0.00
    7    6    8     -0.45      0.00
    8    6    8     -4.39      0.00
    9    6    8     -6.21      0.00
   10    6    8     -5.61      0.00
   11    6    8      3.46      0.00
   12    6    8      0.65      0.00
   13    6    8      1.37      0.00
   14    6    8     -0.97      0.00
   15    6    8      2.09      0.00
   16    6    8      1.41      0.00
   17    6    8     -0.46      0.00
   18    6    8     -3.56      0.00
   19    6    8     -2.29      0.00
    1    7    8    -19.03      0.00
    2    7    8      4.82      0.00
    3    7    8      0.09      0.00
    4    7    8    -17.82      0.00
    5    7    8     -7.36      0.00
    6    7    8     -2.66      0.00
    7    7    8      5.00      0.00
    8    7    8      4.57      0.00
    9    7    8      3.73      0.00
   10    7    8     -4.37      0.00
   11    7    8      8.90      0.00
   12    7    8      4.62      0.00
   13    7    8      2.35      0.00
   14    7    8      4.39      0.00
   15    7    8     -3.47      0.00
   16    7    8     -0.70      0.00
   17    7    8     -3.29      0.00
   18    7    8     -1.28      0.00
    0    8    8     -3.47      0.00
    1    8    8      1.30      0.00
    2    8    8     -6.64      0.00
    3    8    8     -1.48      0.00
    4    8    8      0.26      0.00
    5    8    8     -0.30      0.00
    6    8    8      4.06      0.00
    7    8    8      5.58      0.00
    8    8    8     -2.72      0.00
    9    8    8     -2.38      0.00
   10    8    8     -3.80      0.00
   11    8    8     -1.20      0.00
   12    8    8      0.21      0.00
   13    8    8     -3.41      0.00
   14    8    8     -1.67      0.00
   15    8    8     -9.65      0.00
   16    8    8      1.30      0.00
   17    8    8      0.50      0.00
   18    8    8     -2.28      0.00
    1    9    8     10.16      0.00
    2    9    8      6.83      0.00
    3    9    8      4.79      0.00
    4    9    8      0.07      0.00
    5    9    8     -0.94      0.00
    6    9    8     -4.70      0.00
    7    9    8      4.09      0.00
    8    9    8      4.44      0.00
    9    9    8     -0.58      0.00
   10    9    8     -5.74      0.00
   11    9    8     -0.39      0.00
   12    9    8      2.24      0.00
   13    9    8      0.35      0.00
   14    9    8      8.80      0.00
   15    9    8     -1.94      0.00
   16    9    8      3.98      0.00
   17    9    8     -7.93      0.00
   18    9    8     -0.79      0.00
    0   10    8    -13.45      0.00
    1   10    8     -3.41      0.00
    2   10    8      9.66      0.00
    3   10    8     -2.22      0.00
    4   10    8      3.76      0.00
    5   10    8      0.72      0.00
    6   10    8     -5.28      0.00
    7   10    8      0.65      0.00
    8   10    8      3.35      0.00
    9   10    8     -0.71      0.00
   10   10    8      3.72      0.00
   11   10    8      0.00      0.00
   12   10    8      3.10      0.00
   13   10    8     -0.46      0.00
   14   10    8     -6.29      0.00
   15   10    8     -7.60      0.00
   16   10    8      1.20      0.00
   17   10    8      2.91      0.00
    1   11    8     -0.08      0.00
    2   11    8      3.79      0.00
    3   11    8     -6.31      0.00
    4   11    8     -9.07      0.00
    5   11    8      1.42      0.00
    6   11    8     -4.87      0.00
    7   11    8     -0.14      0.00
    8   11    8      4.52      0.00
    9   11    8      4.51      0.00
   10   11    8     -3.19      0.00
   11   11    8      1.23      0.00
   12   11    8      1.08      0.00
   13   11    8      1.90      0.00
   14   11    8      4.00      0.00
   15   11    8     -1.17      0.00
   16   11    8      1.95      0.00
   17   11    8     -2.51      0.00
    0   12    8     -5.98      0.00
    1   12    8     -5.61      0.00
    2   12    8     -0.96      0.00
    3   12    8      1.80      0.00
    4   12    8      0.08      0.00
    5   12    8      1.98      0.00
    6   12    8     -1.54      0.00
    7   12    8     -0.73      0.00
    8   12    8      3.51      0.00
    9   12    8      0.87      0.00
   10   12    8     -1.29      0.00
   11   12    8     -0.10      0.00
   12   12    8      3.66      0.00
   13   12    8     -0.15      0.00
   14   12    8     -1.52      0.00
   15   12    8     -2.42      0.00
   16   12    8     -1.93      0.00
   17   12    8      1.65      0.00
    1   13    8      3.67      0.00
    2   13    8      2.43      0.00
    3   13    8      2.29      0.00
    4   13    8     -6.20      0.00
    5   13    8      0.57      0.00
    6   13    8      1.25      0.00
    7   13    8     -1.75      0.00
    8   13    8      5.05      0.00
    9   13    8      3.47      0.00
   10   13    8     -3.76      0.00
   11   13    8     -4.19      0.00
   12   13    8     -0.22      0.00
   13   13    8     -0.94      0.00
   14   13    8      0.71      0.00
   15   13    8     -2.63      0.00
   16   13    8     -1.35      0.00
    0   14    8     -5.68      0.00
    1   14    8      0.47      0.00
    2   14    8      1.10      0.00
    3   14    8     -0.34      0.00
    4   14    8      3.99      0.00
    5   14    8     -1.89      0.00
    6   14    8     -3.47      0.00
    7   14    8      1.15      0.00
    8   14    8      1.35      0.00
    9   14    8      2.85      0.00
   10   14    8     -0.83      0.00
   11   14    8     -2.28      0.00
   12   14    8      1.62      0.00
   13   14    8     -1.56      0.00
   14   14    8     -3.34      0.00
   15   14    8      4.07      0.00
   16   14    8      1.44      0.00
    1   15    8      2.55      0.00
    2   15    8     -3.12      0.00
    3   15    8     -5.67      0.00
    4   15    8      1.80      0.00
    5   15    8      4.35      0.00
    6   15    8     -0.49      0.00
    7   15    8      4.36      0.00
    8   15    8      3.89      0.00
    9   15    8      2.57      0.00
   10   15    8     -1.85      0.00
   11   15    8      0.53      0.00
   12   15    8      1.24      0.00
   13   15    8      4.73      0.00
   14   15    8      1.97      0.00
   15   15    8     -0.06      0.00
    0   16    8     -7.61      0.00
    1   16    8      3.96      0.00
    2   16    8      7.08      0.00
    3   16    8      1.06      0.00
    4   16    8      2.21      0.00
    5   16    8      0.40      0.00
    6   16    8     -5.37      0.00
    7   16    8      2.54      0.00
    8   16    8      2.50      0.00
    9   16    8     -3.22      0.00
   10   16    8     -3.13      0.00
   11   16    8      2.31      0.00
   12   16    8     -2.33      0.00
   13   16    8     -0.10      0.00
   14   16    8     -2.30      0.00
    1   17    8      3.61      0.00
    2   17    8      2.74      0.00
    3   17    8     -9.31      0.00
    4   17    8     -1.74      0.00
    5   17    8      5.05      0.00
    6   17    8     -4.46      0.00
    7   17    8      1.33      0.00
    8   17    8      7.51      0.00
    9   17    8     -2.05      0.00
   10   17    8     -1.74      0.00
   11   17    8     -2.09      0.00
   12   17    8     -2.48      0.00
   13   17    8      2.69      0.00
    0   18    8     -3.55      0.00
    1   18    8     -0.30      0.00
    2   18    8      8.05      0.00
    3   18    8     -0.81      0.00
    4   18    8      9.39      0.00
    5   18    8     -3.27      0.00
    6   18    8     -3.94      0.00
    7   18    8     -0.66      0.00
    8   18    8      2.32      0.00
    9   18    8     -4.07      0.00
   10   18    8     -1.44      0.00
   11   18    8      3.13      0.00
   12   18    8     -1.08      0.00
   13   18    8      0.04      0.00
    1   19    8      2.06      0.00
    2   19    8     -0.28      0.00
    3   19    8     -7.99      0.00
    4   19    8      2.35      0.00
    5   19    8     -0.42      0.00
    6   19    8      0.09      0.00
    7   19    8      1.87      0.00
    8   19    8      2.52      0.00
    9   19    8      2.86      0.00
   10   19    8     -1.45      0.00
   11   19    8     -0.55      0.00
   12   19    8      3.02      0.00
    0   20    8     -0.62      0.00
    1   20    8      6.74      0.00
    2   20    8      0.54      0.00
    3   20    8     -2.60      0.00
    4   20    8     -1.45      0.00
    5   20    8     -4.27      0.00
    6   20    8     -3.59      0.00
    7   20    8      1.30      0.00
    8   20    8      1.22      0.00
    9   20    8     -0.90      0.00
   10   20    8     -0.34      0.00
   11   20    8      2.32      0.00
    1   21    8      1.32      0.00
    2   21    8     -1.38      0.00
    3   21    8      3.50      0.00
    4   21    8      4.79      0.00
    5   21    8      1.29      0.00
    6   21    8     -2.11      0.00
    7   21    8      7.74      0.00
    8   21    8      1.57      0.00
    9   21    8      1.29      0.00
   10   21    8     -1.15      0.00
    0   22    8     -1.22      0.00
    1   22    8      3.88      0.00
    2   22    8     -1.53      0.00
    3   22    8     -4.19      0.00
    4   22    8     -2.84      0.00
    5   22    8     -4.65      0.00
    6   22    8     -3.21      0.00
    7   22    8      0.03      0.00
    8   22    8      1.90      0.00
    9   22    8     -0.76      0.00
    1   23    8     -1.26      0.00
    2   23    8     -1.61      0.00
    3   23    8     -1.81      0.00
    4   23    8      4.54      0.00
    5   23    8      0.08      0.00
    6   23    8     -0.11      0.00
    7   23    8      1.08      0.00
    0   24    8      0.71      0.00
    1   24    8      0.38      0.00
    2   24    8      0.50      0.00
    3   24    8      1.71      0.00
    4   24    8      0.15      0.00
    5   24    8     -1.45      0.00
    1    0    9    -51.63      0.00
    3    0    9     14.33      0.00
    5    0    9    -20.66      0.00
    7    0    9    -21.62      0.00
    9    0    9     13.60      0.00
   11    0    9     -8.05      0.00
   13    0    9      1.80      0.00
   15    0    9      0.40      0.00
   17    0    9      0.27      0.00
   19    0    9      0.95      0.00
    0    1    9    121.56      0.00
    1    1    9    -45.93      0.00
    2    1    9    -21.39      0.00
    3    1    9    -10.54      0.00
    4    1    9     -3.72      0.00
    5    1    9     17.11      0.00
    6    1    9      6.55      0.00
    7    1    9     -0.68      0.00
    8    1    9     -0.55      0.00
    9    1    9      1.75      0.00
   10    1    9      4.62      0.00
   11    1    9      3.41      0.00
   12    1    9      5.09      0.00
   13    1    9      3.40      0.00
   14    1    9     -4.25      0.00
   15    1    9     -0.35      0.00
   16    1    9      2.59      0.00
   17    1    9      0.68      0.00
   18    1    9      2.80      0.00
   19    1    9     -0.38      0.00
    1    2    9     19.23      0.00
    2    2    9     43.53      0.00
    3    2    9     15.70      0.00
    4    2    9    -38.73      0.00
    5    2    9     -3.78      0.00
    6    2    9      2.98      0.00
    7    2    9     -6.59      0.00
    8    2    9      2.90      0.00
    9    2    9     11.27      0.00
   10    2    9     -3.08      0.00
   11    2    9     -1.59      0.00
   12    2    9     -1.77      0.00
   13    2    9     -0.47      0.00
   14    2    9      0.17      0.00
   15    2    9      1.88      0.00
   16    2    9     -3.88      0.00
   17    2    9      0.08      0.00
   18    2    9     -0.43      0.00
   19    2    9     -2.11      0.00
    0    3    9     26.08      0.00
    1    3    9     -1.05      0.00
    2    3    9    -31.46      0.00
    3    3    9     -7.91      0.00
    4    3    9      5.61      0.00
    5    3    9      6.83      0.00
    6    3    9    -10.30      0.00
    7    3    9     -2.35      0.00
    8    3    9      6.43      0.00
    9    3    9     -5.30      0.00
   10    3    9     -4.36      0.00
   11    3    9     -0.56      0.00
   12    3    9      0.89      0.00
   13    3    9      1.50      0.00
   14    3    9      2.82      0.00
   15    3    9      2.57      0.00
   16    3    9     -1.33      0.00
   17    3    9      1.81      0.00
   18    3    9      0.61      0.00
   19    3    9     -0.59      0.00
    1    4    9     -1.46      0.00
    2    4    9    -17.01      0.00
    3    4    9      4.48      0.00
    4    4    9     -6.55      0.00
    5    4    9    -19.04      0.00
    6    4    9      3.60      0.00
    7    4    9     -2.25      0.00
    8    4    9      2.79      0.00
    9    4    9     12.05      0.00
   10    4    9      6.51      0.00
   11    4    9     -1.04      0.00
   12    4    9     -0.44      0.00
   13    4    9     -1.93      0.00
   14    4    9      0.76      0.00
   15    4    9     -2.56      0.00
   16    4    9     -4.91      0.00
   17    4    9      3.53      0.00
   18    4    9     -0.86      0.00
   19    4    9      1.23      0.00
    0    5    9     36.08      0.00
    1    5    9     19.99      0.00
    2    5    9     -9.58      0.00
    3    5    9    -17.00      0.00
    4    5    9      8.06      0.00
    5    5    9      3.59      0.00
    6    5    9     -3.48      0.00
    7    5    9     -0.77      0.00
    8    5    9      3.20      0.00
    9    5    9      0.94      0.00
   10    5    9      3.99      0.00
   11    5    9     -1.81      0.00
   12    5    9      3.81      0.00
   13    5    9     -4.28      0.00
   14    5    9      1.81      0.00
   15    5    9     -0.59      0.00
   16    5    9     -5.09      0.00
   17    5    9     -2.79      0.00
   18    5    9     -1.92      0.00
   19    5    9      0.15      0.00
    1    6    9      4.07      0.00
    2    6    9      5.08      0.00
    3    6    9     11.07      0.00
    4    6    9     -4.75      0.00
    5    6    9     -3.13      0.00
    6    6    9     -3.53      0.00
    7    6    9      4.81      0.00
    8    6    9      3.35      0.00
    9    6    9      4.33      0.00
   10    6    9     -4.37      0.00
   11    6    9     -5.76      0.00
   12    6    9     -1.34      0.00
   13    6    9      0.80      0.00
   14    6    9      2.74      0.00
   15    6    9     -0.09      0.00
   16    6    9      0.97      0.00
   17    6    9     -2.13      0.00
   18    6    9     -2.21      0.00
    0    7    9    -10.10      0.00
    1    7    9    -22.38      0.00
    2    7    9     -4.59      0.00
    3    7    9     -8.89      0.00
    4    7    9     -2.47      0.00
    5    7    9     17.05      0.00
    6    7    9     -5.45      0.00
    7    7    9    -13.37      0.00
    8    7    9      3.23      0.00
    9    7    9      5.00      0.00
   10    7    9      7.71      0.00
   11    7    9      4.92      0.00
   12    7    9     -1.44      0.00
   13    7    9     -0.93      0.00
   14    7    9     -3.14      0.00
   15    7    9      1.62      0.00
   16    7    9     -0.86      0.00
   17    7    9      1.87      0.00
   18    7    9      2.79      0.00
    1    8    9      0.74      0.00
    2    8    9     15.65      0.00
    3    8    9    -10.62      0.00
    4    8    9    -13.59      0.00
    5    8    9      1.43      0.00
    6    8    9      2.06      0.00
    7    8    9     -1.60      0.00
    8    8    9      3.53      0.00
    9    8    9      0.16      0.00
   10    8    9     -0.76      0.00
   11    8    9     -0.46      0.00
   12    8    9     -0.59      0.00
   13    8    9      3.51      0.00
   14    8    9     -0.99      0.00
   15    8    9     -0.96      0.00
   16    8    9     -5.46      0.00
   17    8    9     -3.76      0.00
   18    8    9      0.97      0.00
    0    9    9      9.25      0.00
    1    9    9    -15.88      0.00
    2    9    9      2.31      0.00
    3    9    9      1.04      0.00
    4    9    9      2.76      0.00
    5    9    9      6.41      0.00
    6    9    9      2.06      0.00
    7    9    9    -10.38      0.00
    8    9    9      0.48      0.00
    9    9    9     -0.60      0.00
   10    9    9      1.68      0.00
   11    9    9      0.86      0.00
   12    9    9     -2.03      0.00
   13    9    9     -9.88      0.00
   14    9    9      1.51      0.00
   15    9    9      4.27      0.00
   16    9    9     -5.18      0.00
   17    9    9     -2.02      0.00
   18    9    9     -0.64      0.00
    1   10    9      4.71      0.00
    2   10    9      4.07      0.00
    3   10    9     -0.64      0.00
    4   10    9     -3.43      0.00
    5   10    9     -0.94      0.00
    6   10    9      2.67      0.00
    7   10    9      2.27      0.00
    8   10    9     -0.83      0.00
    9   10    9      2.57      0.00
   10   10    9      3.48      0.00
   11   10    9      2.71      0.00
   12   10    9      1.13      0.00
   13   10    9      1.45      0.00
   14   10    9      0.43      0.00
   15   10    9     -2.56      0.00
   16   10    9     -0.99      0.00
   17   10    9      1.83      0.00
    0   11    9     -1.33      0.00
    1   11    9     -1.85      0.00
    2   11    9     -7.66      0.00
    3   11    9     -1.84      0.00
    4   11    9      1.51      0.00
    5   11    9      0.45      0.00
    6   11    9     -0.79      0.00
    7   11    9     -6.39      0.00
    8   11    9     -4.11      0.00
    9   11    9     -2.09      0.00
   10   11    9      3.96      0.00
   11   11    9      1.09      0.00
   12   11    9     -1.73      0.00
   13   11    9     -0.62      0.00
   14   11    9     -0.45      0.00
   15   11    9      3.26      0.00
   16   11    9     -3.13      0.00
   17   11    9     -0.08      0.00
    1   12    9      4.25      0.00
    2   12    9      1.09      0.00
    3   12    9     -7.28      0.00
    4   12    9     -3.47      0.00
    5   12    9     -1.31      0.00
    6   12    9      0.90      0.00
    7   12    9     10.04      0.00
    8   12    9      0.72      0.00
    9   12    9     -2.05      0.00
   10   12    9      3.82      0.00
   11   12    9      2.03      0.00
   12   12    9     -1.25      0.00
   13   12    9      0.44      0.00
   14   12    9     -2.64      0.00
   15   12    9      1.84      0.00
   16   12    9      1.33      0.00
   17   12    9     -2.91      0.00
    0   13    9     -4.98      0.00
    1   13    9     -3.13      0.00
    2   13    9      1.24      0.00
    3   13    9      0.52      0.00
    4   13    9      3.14      0.00
    5   13    9      2.27      0.00
    6   13    9     -7.40      0.00
    7   13    9     -5.55      0.00
    8   13    9     -3.65      0.00
    9   13    9      1.17      0.00
   10   13    9      2.00      0.00
   11   13    9      3.45      0.00
   12   13    9     -0.95      0.00
   13   13    9     -2.51      0.00
   14   13    9     -1.36      0.00
   15   13    9     -0.29      0.00
   16   13    9      1.88      0.00
    1   14    9      4.97      0.00
    2   14    9      3.77      0.00
    3   14    9     -4.52      0.00
    4   14    9     -2.33      0.00
    5   14    9      0.53      0.00
    6   14    9      1.74      0.00
    7   14    9      3.97      0.00
    8   14    9      1.43      0.00
    9   14    9     -1.87      0.00
   10   14    9     -2.06      0.00
   11   14    9      3.07      0.00
   12   14    9     -1.55      0.00
   13   14    9      0.34      0.00
   14   14    9     -2.08      0.00
   15   14    9     -1.42      0.00
   16   14    9      0.53      0.00
    0   15    9     -1.15      0.00
    1   15    9     -4.59      0.00
    2   15    9     -1.13      0.00
    3   15    9     -1.77      0.00
    4   15    9      5.37      0.00
    5   15    9      2.56      0.00
    6   15    9      2.24      0.00
    7   15    9     -3.77      0.00
    8   15    9      0.96      0.00
    9   15    9      1.36      0.00
   10   15    9      4.12      0.00
   11   15    9      3.86      0.00
   12   15    9     -0.74      0.00
   13   15    9     -1.26      0.00
   14   15    9      1.78      0.00
   15   15    9      0.91      0.00
    1   16    9     -1.50      0.00
    2   16    9      3.53      0.00
    3   16    9     -2.10      0.00
    4   16    9     -0.59      0.00
    5   16    9     -3.96      0.00
    6   16    9      1.70      0.00
    7   16    9     -0.19      0.00
    8   16    9     -2.59      0.00
    9   16    9     -3.24      0.00
   10   16    9      2.34      0.00
   11   16    9     -1.09      0.00
   12   16    9     -0.04      0.00
   13   16    9     -2.17      0.00
   14   16    9      2.46      0.00
    0   17    9      2.40      0.00
    1   17    9      1.10      0.00
    2   17    9      0.90      0.00
    3   17    9      0.55      0.00
    4   17    9      0.50      0.00
    5   17    9      1.56      0.00
    6   17    9      1.58      0.00
    7   17    9      2.59      0.00
    8   17    9     -0.99      0.00
    9   17    9      4.27      0.00
   10   17    9      1.03      0.00
   11   17    9     -2.63      0.00
   12   17    9      1.16      0.00
   13   17    9     -2.69      0.00
    1   18    9     -3.33      0.00
    2   18    9     -0.08      0.00
    3   18    9      8.70      0.00
    4   18    9     -2.04      0.00
    5   18    9      4.41      0.00
    6   18    9     -1.74      0.00
    7   18    9     -0.61      0.00
    8   18    9     -5.90      0.00
    9   18    9     -1.81      0.00
   10   18    9      5.12      0.00
   11   18    9      2.05      0.00
   12   18    9     -2.84      0.00
   13   18    9     -2.47      0.00
    0   19    9      0.64      0.00
    1   19    9     -4.12      0.00
    2   19    9      2.18      0.00
    3   19    9      2.79      0.00
    4   19    9     -4.79      0.00
    5   19    9     -0.47      0.00
    6   19    9      0.10      0.00
    7   19    9     -0.84      0.00
    8   19    9     -2.74      0.00
    9   19    9      2.54      0.00
   10   19    9      2.20      0.00
   11   19    9     -1.12      0.00
   12   19    9      1.41      0.00
    1   20    9     -5.32      0.00
    2   20    9      5.67      0.00
    3   20    9      0.68      0.00
    4   20    9      2.10      0.00
    5   20    9      1.60      0.00
    6   20    9      2.44      0.00
    7   20    9      0.36      0.00
    8   20    9     -1.75      0.00
    9   20    9     -0.25      0.00
   10   20    9     -0.75      0.00
   11   20    9      2.36      0.00
    0   21    9      1.32      0.00
    1   21    9     -7.41      0.00
    2   21    9      0.38      0.00
    3   21    9      2.79      0.00
    4   21    9      1.47      0.00
    5   21    9     -1.98      0.00
    6   21    9      2.20      0.00
    7   21    9     -0.23      0.00
    8   21    9     -3.09      0.00
    9   21    9      3.31      0.00
   10   21    9      1.05      0.00
    1   22    9     -0.20      0.00
    2   22    9      6.14      0.00
    3   22    9      1.65      0.00
    4   22    9     -4.28      0.00
    5   22    9      1.10      0.00
    6   22    9     -2.70      0.00
    7   22    9     -2.64      0.00
    8   22    9      0.19      0.00
    9   22    9      0.52      0.00
    0   23    9     -1.84      0.00
    1   23    9     -2.40      0.00
    2   23    9      0.85      0.00
    3   23    9      1.32      0.00
    4   23    9      0.69      0.00
    5   23    9      2.34      0.00
    6   23    9      1.05      0.00
    7   23    9     -0.37      0.00
    1   24    9     -4.87      0.00
    2   24    9      3.16      0.00
    3   24    9     -3.62      0.00
    4   24    9     -0.37      0.00
    5   24    9     -1.02      0.00
    0    0   10    -19.33      0.00
    2    0   10     11.04      0.00
    4    0   10      8.23      0.00
    6    0   10    -13.31      0.00
    8    0   10      0.41      0.00
   10    0   10     -7.37      0.00
   12    0   10     -7.88      0.00
   14    0   10     11.21      0.00
   16    0   10     -0.82      0.00
   18    0   10     -1.90      0.00
    1    1   10      0.41      0.00
    2    1   10    -53.86      0.00
    3    1   10      4.21      0.00
    4    1   10     15.64      0.00
    5    1   10    -14.37      0.00
    6    1   10     -3.14      0.00
    7    1   10     14.85      0.00
    8    1   10     -2.43      0.00
    9    1   10     -7.49      0.00
   10    1   10      2.76      0.00
   11    1   10      9.10      0.00
   12    1   10      1.90      0.00
   13    1   10      1.54      0.00
   14    1   10      4.49      0.00
   15    1   10     -2.71      0.00
   16    1   10     -0.89      0.00
   17    1   10      3.50      0.00
   18    1   10     -0.88      0.00
   19    1   10     -1.46      0.00
    0    2   10      2.66      0.00
    1    2   10     57.42      0.00
    2    2   10     10.40      0.00
    3    2   10     13.35      0.00
    4    2   10    -15.91      0.00
    5    2   10    -13.78      0.00
    6    2   10     11.13      0.00
    7    2   10     -0.37      0.00
    8    2   10     -0.24      0.00
    9    2   10      2.91      0.00
   10    2   10      1.05      0.00
   11    2   10     -3.23      0.00
   12    2   10      0.38      0.00
   13    2   10     -5.51      0.00
   14    2   10      0.44      0.00
   15    2   10     -3.98      0.00
   16    2   10     -1.07      0.00
   17    2   10     -1.06      0.00
   18    2   10     -5.53      0.00
   19    2   10     -1.23      0.00
    1    3   10    -23.88      0.00
    2    3   10    -24.56      0.00
    3    3   10     22.20      0.00
    4    3   10     16.78      0.00
    5    3   10    -10.21      0.00
    6    3   10     -4.71      0.00
    7    3   10     -2.55      0.00
    8    3   10      4.76      0.00
    9    3   10     -2.21      0.00
   10    3   10     -4.85      0.00
   11    3   10      0.01      0.00
   12    3   10      0.38      0.00
   13    3   10      0.75      0.00
   14    3   10      6.66      0.00
   15    3   10      4.47      0.00
   16    3   10      4.62      0.00
   17    3   10      2.02      0.00
   18    3   10      0.36      0.00
   19    3   10     -1.60      0.00
    0    4   10     15.40      0.00
    1    4   10    -21.35      0.00
    2    4   10     13.91      0.00
    3    4   10     -3.22      0.00
    4    4   10    -24.68      0.00
    5    4   10      9.43      0.00
    6    4   10     13.99      0.00
    7    4   10     -6.63      0.00
    8    4   10     -6.82      0.00
    9    4   10      1.70      0.00
   10    4   10      1.06      0.00
   11    4   10      4.94      0.00
   12    4   10      1.61      0.00
   13    4   10     -0.79      0.00
   14    4   10     -4.20      0.00
   15    4   10     -8.17      0.00
   16    4   10      1.22      0.00
   17    4   10      2.55      0.00
   18    4   10     -0.72      0.00
   19    4   10     -2.08      0.00
    1    5   10      2.31      0.00
    2    5   10     22.63      0.00
    3    5   10      6.93      0.00
    4    5   10     -9.81      0.00
    5    5   10     -1.52      0.00
    6    5   10     -5.05      0.00
    7    5   10     -2.09      0.00
    8    5   10      6.00      0.00
    9    5   10      0.61      0.00
   10    5   10     -3.19      0.00
   11    5   10      3.91      0.00
   12    5   10     -1.43      0.00
   13    5   10      1.28      0.00
   14    5   10      0.22      0.00
   15    5   10      1.57      0.00
   16    5   10      1.18      0.00
   17    5   10     -2.00      0.00
   18    5   10     -1.94      0.00
   19    5   10     -2.01      0.00
    0    6   10     -7.94      0.00
    1    6   10    -24.54      0.00
    2    6   10     -9.41      0.00
    3    6   10     -0.51      0.00
    4    6   10    -11.31      0.00
    5    6   10     -3.75      0.00
    6    6   10      8.25      0.00
    7    6   10      1.23      0.00
    8    6   10     -4.49      0.00
    9    6   10     -4.93      0.00
   10    6   10      1.00      0.00
   11    6   10     -2.28      0.00
   12    6   10      2.33      0.00
   13    6   10      2.20      0.00
   14    6   10      1.29      0.00
   15    6   10     -2.40      0.00
   16    6   10     -1.06      0.00
   17    6   10      1.99      0.00
   18    6   10     -2.03      0.00
    1    7   10      2.11      0.00
    2    7   10      5.57      0.00
    3    7   10      9.78      0.00
    4    7   10     -1.34      0.00
    5    7   10     -6.57      0.00
    6    7   10      1.37      0.00
    7    7   10      2.84      0.00
    8    7   10      4.44      0.00
    9    7   10      1.18      0.00
   10    7   10      2.01      0.00
   11    7   10     -5.23      0.00
   12    7   10     -1.49      0.00
   13    7   10     -2.95      0.00
   14    7   10     -2.50      0.00
   15    7   10     -0.37      0.00
   16    7   10      1.39      0.00
   17    7   10      2.32      0.00
   18    7   10      1.40      0.00
    0    8   10      8.52      0.00
    1    8   10     -2.28      0.00
    2    8   10     -5.53      0.00
    3    8   10     -1.43      0.00
    4    8   10      0.85      0.00
    5    8   10      1.71      0.00
    6    8   10      3.04      0.00
    7    8   10      1.16      0.00
    8    8   10     -6.72      0.00
    9    8   10     -2.93      0.00
   10    8   10      4.22      0.00
   11    8   10     -0.82      0.00
   12    8   10      6.74      0.00
   13    8   10      4.87      0.00
   14    8   10     -0.31      0.00
   15    8   10      0.84      0.00
   16    8   10      0.14      0.00
   17    8   10      1.58      0.00
   18    8   10     -3.91      0.00
    1    9   10     -6.52      0.00
    2    9   10      6.60      0.00
    3    9   10      2.99      0.00
    4    9   10    -12.80      0.00
    5    9   10     -7.27      0.00
    6    9   10     -4.48      0.00
    7    9   10      9.10      0.00
    8    9   10      6.78      0.00
    9    9   10     -0.83      0.00
   10    9   10     -5.43      0.00
   11    9   10     -3.95      0.00
   12    9   10     -3.39      0.00
   13    9   10      0.60      0.00
   14    9   10     -6.78      0.00
   15    9   10      0.71      0.00
   16    9   10     -0.98      0.00
   17    9   10      0.88      0.00
   18    9   10     -1.15      0.00
    0   10   10     -3.35      0.00
    1   10   10     -8.12      0.00
    2   10   10     -0.39      0.00
    3   10   10      0.64      0.00
    4   10   10      2.99      0.00
    5   10   10     10.22      0.00
    6   10   10     -2.37      0.00
    7   10   10     -4.32      0.00
    8   10   10     -3.17      0.00
    9   10   10      2.49      0.00
   10   10   10      3.40      0.00
   11   10   10      0.83      0.00
   12   10   10      2.79      0.00
   13   10   10      3.79      0.00
   14   10   10     -1.96      0.00
   15   10   10     -0.41      0.00
   16   10   10      1.78      0.00
   17   10   10      2.64      0.00
    1   11   10     -3.21      0.00
    2   11   10      9.65      0.00
    3   11   10     -1.33      0.00
    4   11   10     -8.44      0.00
    5   11   10     -1.77      0.00
    6   11   10     -2.09      0.00
    7   11   10      0.38      0.00
    8   11   10      4.55      0.00
    9   11   10     -2.00      0.00
   10   11   10    -10.74      0.00
   11   11   10     -5.31      0.00
   12   11   10      1.50      0.00
   13   11   10      1.41      0.00
   14   11   10      2.56      0.00
   15   11   10     -0.70      0.00
   16   11   10     -2.24      0.00
   17   11   10     -0.14      0.00
    0   12   10     -1.78      0.00
    1   12   10     -3.61      0.00
    2   12   10      6.06      0.00
    3   12   10      0.66      0.00
    4   12   10      2.39      0.00
    5   12   10      2.90      0.00
    6   12   10      0.94      0.00
    7   12   10     -2.41      0.00
    8   12   10      1.32      0.00
    9   12   10      3.38      0.00
   10   12   10      3.01      0.00
   11   12   10      0.68      0.00
   12   12   10     -0.86      0.00
   13   12   10     -2.43      0.00
   14   12   10      0.56      0.00
   15   12   10      0.26      0.00
   16   12   10      1.01      0.00
   17   12   10      0.65      0.00
    1   13   10     -4.50      0.00
    2   13   10      1.91      0.00
    3   13   10     -4.80      0.00
    4   13   10     -2.82      0.00
    5   13   10     -3.33      0.00
    6   13   10     -2.53      0.00
    7   13   10     -3.87      0.00
    8   13   10      0.79      0.00
    9   13   10      0.55      0.00
   10   13   10     -1.82      0.00
   11   13   10     -1.52      0.00
   12   13   10      0.95      0.00
   13   13   10      4.05      0.00
   14   13   10      3.19      0.00
   15   13   10     -0.97      0.00
   16   13   10     -0.74      0.00
    0   14   10     -1.35      0.00
    1   14   10      3.03      0.00
    2   14   10      4.69      0.00
    3   14   10      2.52      0.00
    4   14   10     -2.61      0.00
    5   14   10     -0.33      0.00
    6   14   10      1.16      0.00
    7   14   10      1.10      0.00
    8   14   10      1.25      0.00
    9   14   10      1.18      0.00
   10   14   10      1.40      0.00
   11   14   10     -3.79      0.00
   12   14   10      0.28      0.00
   13   14   10      1.31      0.00
   14   14   10     -0.88      0.00
   15   14   10     -1.45      0.00
   16   14   10      0.66      0.00
    1   15   10     -0.37      0.00
    2   15   10     -0.18      0.00
    3   15   10      2.19      0.00
    4   15   10     -3.40      0.00
    5   15   10      1.85      0.00
    6   15   10      1.26      0.00
    7   15   10     -1.21      0.00
    8   15   10      1.05      0.00
    9   15   10      2.04      0.00
   10   15   10     -0.94      0.00
   11   15   10     -0.43      0.00
   12   15   10     -0.30      0.00
   13   15   10     -0.31      0.00
   14   15   10      1.05      0.00
   15   15   10     -0.21      0.00
    0   16   10     -6.17      0.00
    1   16   10     -0.89      0.00
    2   16   10     -1.80      0.00
    3   16   10      2.25      0.00
    4   16   10     -4.55      0.00
    5   16   10     -5.51      0.00
    6   16   10     -2.38      0.00
    7   16   10     -2.44      0.00
    8   16   10     -1.28      0.00
    9   16   10      4.08      0.00
   10   16   10     -1.16      0.00
   11   16   10     -1.32      0.00
   12   16   10     -0.99      0.00
   13   16   10      1.34      0.00
   14   16   10     -1.71      0.00
    1   17   10      4.23      0.00
    2   17   10     -1.81      0.00
    3   17   10      0.30      0.00
    4   17   10      3.78      0.00
    5   17   10      0.65      0.00
    6   17   10      5.91      0.00
    7   17   10      1.51      0.00
    8   17   10      5.54      0.00
    9   17   10      2.91      0.00
   10   17   10     -7.84      0.00
   11   17   10      0.36      0.00
   12   17   10      2.67      0.00
   13   17   10      2.75      0.00
    0   18   10     -5.13      0.00
    1   18   10      4.98      0.00
    2   18   10     -4.42      0.00
    3   18   10     -0.38      0.00
    4   18   10      1.48      0.00
    5   18   10     -3.62      0.00
    6   18   10      0.14      0.00
    7   18   10     -2.91      0.00
    8   18   10      2.10      0.00
    9   18   10      1.28      0.00
   10   18   10      0.41      0.00
   11   18   10      1.55      0.00
   12   18   10     -0.84      0.00
   13   18   10     -3.48      0.00
    1   19   10      6.11      0.00
    2   19   10     -1.26      0.00
    3   19   10     -0.97      0.00
    4   19   10      0.44      0.00
    5   19   10      1.15      0.00
    6   19   10      0.92      0.00
    7   19   10     -1.38      0.00
    8   19   10      5.88      0.00
    9   19   10     -2.80      0.00
   10   19   10     -2.96      0.00
   11   19   10     -2.72      0.00
   12   19   10      0.85      0.00
    0   20   10     -7.35      0.00
    1   20   10      8.61      0.00
    2   20   10     -2.94      0.00
    3   20   10      1.49      0.00
    4   20   10      2.25      0.00
    5   20   10      2.41      0.00
    6   20   10      0.09      0.00
    7   20   10     -1.03      0.00
    8   20   10      6.07      0.00
    9   20   10     -4.57      0.00
   10   20   10     -1.54      0.00
   11   20   10      0.61      0.00
    1   21   10      2.35      0.00
    2   21   10     -4.15      0.00
    3   21   10     -5.01      0.00
    4   21   10     -1.52      0.00
    5   21   10     -0.21      0.00
    6   21   10      1.23      0.00
    7   21   10     -4.34      0.00
    8   21   10      2.50      0.00
    9   21   10     -2.68      0.00
   10   21   10      0.29      0.00
    0   22   10     -1.48      0.00
    1   22   10      8.90      0.00
    2   22   10      3.10      0.00
    3   22   10      3.58      0.00
    4   22   10      0.78      0.00
    5   22   10     -0.65      0.00
    6   22   10     -0.05      0.00
    7   22   10     -0.82      0.00
    8   22   10      2.96      0.00
    1   23   10      2.36      0.00
    2   23   10     -2.82      0.00
    3   23   10      2.22      0.00
    4   23   10      1.28      0.00
    5   23   10     -1.34      0.00
    6   23   10     -0.64      0.00
    7   23   10      1.24      0.00
    0   24   10     -1.75      0.00
    1   24   10      0.61      0.00
    2   24   10     -7.03      0.00
    3   24   10      0.65      0.00
    4   24   10     -2.41      0.00
    1    0   11     38.06      0.00
    3    0   11     15.07      0.00
    5    0   11     15.81      0.00
    7    0   11    -15.32      0.00
    9    0   11     14.91      0.00
   11    0   11     -3.60      0.00
   13    0   11     -2.52      0.00
   15    0   11      4.77      0.00
   17    0   11     -4.54      0.00
   19    0   11     -1.68      0.00
    0    1   11    -34.78      0.00
    1    1   11    -29.89      0.00
    2    1   11    -23.98      0.00
    3    1   11     -5.35      0.00
    4    1   11    -17.58      0.00
    5    1   11      4.71      0.00
    6    1   11     14.49      0.00
    7    1   11     -4.79      0.00
    8    1   11     -4.26      0.00
    9    1   11     -7.06      0.00
   10    1   11      0.82      0.00
   11    1   11      1.67      0.00
   12    1   11     -1.04      0.00
   13    1   11      3.90      0.00
   14    1   11     -3.38      0.00
   15    1   11      0.60      0.00
   16    1   11      0.10      0.00
   17    1   11      0.07      0.00
   18    1   11      5.76      0.00
   19    1   11      0.41      0.00
    1    2   11    -10.73      0.00
    2    2   11     53.59      0.00
    3    2   11     -3.66      0.00
    4    2   11    -10.60      0.00
    5    2   11     -2.53      0.00
    6    2   11      1.23      0.00
    7    2   11     -9.13      0.00
    8    2   11      2.20      0.00
    9    2   11     14.08      0.00
   10    2   11      1.65      0.00
   11    2   11      0.53      0.00
   12    2   11     -3.11      0.00
   13    2   11     -0.07      0.00
   14    2   11    -10.24      0.00
   15    2   11     -5.25      0.00
   16    2   11      1.42      0.00
   17    2   11     -4.83      0.00
   18    2   11     -1.03      0.00
   19    2   11     -0.52      0.00
    0    3   11     31.37      0.00
    1    3   11    -40.66      0.00
    2    3   11    -19.34      0.00
    3    3   11      1.22      0.00
    4    3   11      5.10      0.00
    5    3   11     11.66      0.00
    6    3   11      1.38      0.00
    7    3   11      0.45      0.00
    8    3   11     -3.22      0.00
    9    3   11     -3.21      0.00
   10    3   11      3.85      0.00
   11    3   11      1.62      0.00
   12    3   11     -5.92      0.00
   13    3   11      4.82      0.00
   14    3   11      2.90      0.00
   15    3   11      6.34      0.00
   16    3   11     -1.50      0.00
   17    3   11     -1.28      0.00
   18    3   11      7.30      0.00
   19    3   11      3.77      0.00
    1    4   11      3.33      0.00
    2    4   11     25.65      0.00
    3    4   11      7.00      0.00
    4    4   11    -13.78      0.00
    5    4   11     -7.13      0.00
    6    4   11      2.86      0.00
    7    4   11      0.63      0.00
    8    4   11     -1.88      0.00
    9    4   11      2.29      0.00
   10    4   11     -0.63      0.00
   11    4   11     -3.55      0.00
   12    4   11     -0.42      0.00
   13    4   11      2.52      0.00
   14    4   11     -5.26      0.00
   15    4   11     -2.99      0.00
   16    4   11      0.06      0.00
   17    4   11     -1.29      0.00
   18    4   11      1.00      0.00
   19    4   11     -1.61      0.00
    0    5   11     20.66      0.00
    1    5   11      4.39      0.00
    2    5   11    -13.44      0.00
    3    5   11      4.06      0.00
    4    5   11      3.62      0.00
    5    5   11      7.85      0.00
    6    5   11     -3.80      0.00
    7    5   11     -7.89      0.00
    8    5   11      0.86      0.00
    9    5   11     -0.55      0.00
   10    5   11      3.50      0.00
   11    5   11      0.55      0.00
   12    5   11     -1.61      0.00
   13    5   11     -1.63      0.00
   14    5   11     -1.72      0.00
   15    5   11      5.71      0.00
   16    5   11     -0.22      0.00
   17    5   11     -0.94      0.00
   18    5   11      2.82      0.00
   19    5   11      1.80      0.00
    1    6   11    -13.70      0.00
    2    6   11      1.52      0.00
    3    6   11    -10.98      0.00
    4    6   11    -11.22      0.00
    5    6   11    -15.79      0.00
    6    6   11     -2.60      0.00
    7    6   11     -1.25      0.00
    8    6   11      6.27      0.00
    9    6   11      3.74      0.00
   10    6   11      0.78      0.00
   11    6   11     -0.85      0.00
   12    6   11     -2.29      0.00
   13    6   11      1.73      0.00
   14    6   11      0.70      0.00
   15    6   11     -1.52      0.00
   16    6   11     -1.21      0.00
   17    6   11      1.73      0.00
   18    6   11      0.36      0.00
    0    7   11     14.41      0.00
    1    7   11      3.79      0.00
    2    7   11      5.34      0.00
    3    7   11     -2.76      0.00
    4    7   11      3.83      0.00
    5    7   11     10.94      0.00
    6    7   11     -1.84      0.00
    7    7   11     -4.14      0.00
    8    7   11      0.86      0.00
    9    7   11      0.33      0.00
   10    7   11      0.01      0.00
   11    7   11      0.53      0.00
   12    7   11     -2.82      0.00
   13    7   11     -4.70      0.00
   14    7   11     -0.28      0.00
   15    7   11     -2.25      0.00
   16    7   11     -1.19      0.00
   17    7   11      0.47      0.00
   18    7   11     -0.66      0.00
    1    8   11      6.45      0.00
    2    8   11      3.17      0.00
    3    8   11     -1.05      0.00
    4    8   11     -0.19      0.00
    5    8   11     -0.31      0.00
    6    8   11     -2.02      0.00
    7    8   11     -1.63      0.00
    8    8   11      2.21      0.00
    9    8   11      4.40      0.00
   10    8   11     -0.77      0.00
   11    8   11      0.48      0.00
   12    8   11     -1.81      0.00
   13    8   11      0.73      0.00
   14    8   11      4.57      0.00
   15    8   11      1.39      0.00
   16    8   11      3.74      0.00
   17    8   11      1.14      0.00
   18    8   11     -0.79      0.00
    0    9   11    -11.62      0.00
    1    9   11     -5.23      0.00
    2    9   11     -6.12      0.00
    3    9   11     -3.60      0.00
    4    9   11     -5.03      0.00
    5    9   11      0.07      0.00
    6    9   11      0.16      0.00
    7    9   11     -2.23      0.00
    8    9   11      1.57      0.00
    9    9   11      1.42      0.00
   10    9   11      0.16      0.00
   11    9   11      1.90      0.00
   12    9   11     -2.61      0.00
   13    9   11     -2.40      0.00
   14    9   11      1.51      0.00
   15    9   11     -4.41      0.00
   16    9   11     -0.32      0.00
   17    9   11      0.73      0.00
    1   10   11      1.53      0.00
    2   10   11      2.17      0.00
    3   10   11    -10.76      0.00
    4   10   11     -0.09      0.00
    5   10   11     -0.72      0.00
    6   10   11      2.54      0.00
    7   10   11     -0.79      0.00
    8   10   11     -1.47      0.00
    9   10   11     -0.16      0.00
   10   10   11      4.00      0.00
   11   10   11     -1.10      0.00
   12   10   11     -3.28      0.00
   13   10   11      0.75      0.00
   14   10   11      1.73      0.00
   15   10   11      2.00      0.00
   16   10   11      1.13      0.00
   17   10   11     -2.21      0.00
    0   11   11     -3.29      0.00
    1   11   11     -3.15      0.00
    2   11   11      1.05      0.00
    3   11   11      4.36      0.00
    4   11   11      2.77      0.00
    5   11   11      1.00      0.00
    6   11   11     -1.76      0.00
    7   11   11     -1.10      0.00
    8   11   11     -0.73      0.00
    9   11   11     -1.50      0.00
   10   11   11     -3.80      0.00
   11   11   11      0.02      0.00
   12   11   11     -1.44      0.00
   13   11   11     -2.40      0.00
   14   11   11      0.75      0.00
   15   11   11     -1.17      0.00
   16   11   11      3.14      0.00
   17   11   11     -1.22      0.00
    1   12   11      6.80      0.00
    2   12   11      5.17      0.00
    3   12   11     -1.31      0.00
    4   12   11     -0.56      0.00
    5   12   11      0.60      0.00
    6   12   11      3.26      0.00
    7   12   11      1.65      0.00
    8   12   11     -1.79      0.00
    9   12   11      1.02      0.00
   10   12   11      1.57      0.00
   11   12   11      2.93      0.00
   12   12   11     -0.12      0.00
   13   12   11     -0.99      0.00
   14   12   11     -1.76      0.00
   15   12   11      0.61      0.00
   16   12   11      1.64      0.00
    0   13   11     -4.85      0.00
    1   13   11     -3.64      0.00
    2   13   11     -6.91      0.00
    3   13   11      0.30      0.00
    4   13   11      0.23      0.00
    5   13   11      0.68      0.00
    6   13   11     -4.46      0.00
    7   13   11     -7.01      0.00
    8   13   11     -2.27      0.00
    9   13   11     -0.52      0.00
   10   13   11     -1.15      0.00
   11   13   11      3.57      0.00
   12   13   11      0.37      0.00
   13   13   11     -0.70      0.00
   14   13   11      0.52      0.00
   15   13   11      0.86      0.00
   16   13   11      0.49      0.00
    1   14   11      3.35      0.00
    2   14   11      1.49      0.00
    3   14   11     -7.55      0.00
    4   14   11      1.33      0.00
    5   14   11     -0.87      0.00
    6   14   11      1.44      0.00
    7   14   11      5.86      0.00
    8   14   11      1.30      0.00
    9   14   11     -1.06      0.00
   10   14   11     -2.04      0.00
   11   14   11      1.16      0.00
   12   14   11      3.83      0.00
   13   14   11      0.24      0.00
   14   14   11      0.20      0.00
   15   14   11     -0.54      0.00
    0   15   11     -3.54      0.00
    1   15   11      3.07      0.00
    2   15   11      3.64      0.00
    3   15   11     -1.75      0.00
    4   15   11      3.75      0.00
    5   15   11      0.71      0.00
    6   15   11     -7.63      0.00
    7   15   11     -3.32      0.00
    8   15   11     -1.62      0.00
    9   15   11     -1.96      0.00
   10   15   11      1.16      0.00
   11   15   11      2.84      0.00
   12   15   11     -0.04      0.00
   13   15   11     -4.50      0.00
   14   15   11     -0.89      0.00
   15   15   11      0.29      0.00
    1   16   11      0.06      0.00
    2   16   11     -0.92      0.00
    3   16   11    -10.86      0.00
    4   16   11     -1.08      0.00
    5   16   11      2.61      0.00
    6   16   11     -2.85      0.00
    7   16   11      0.86      0.00
    8   16   11      2.83      0.00
    9   16   11     -1.93      0.00
   10   16   11      3.18      0.00
   11   16   11      1.11      0.00
   12   16   11     -1.59      0.00
   13   16   11      2.83      0.00
   14   16   11      1.44      0.00
    0   17   11     -4.21      0.00
    1   17   11     -1.28      0.00
    2   17   11      8.86      0.00
    3   17   11     -1.32      0.00
    4   17   11      0.43      0.00
    5   17   11      5.55      0.00
    6   17   11     -1.67      0.00
    7   17   11     -0.39      0.00
    8   17   11      3.29      0.00
    9   17   11     -5.33      0.00
   10   17   11      3.12      0.00
   11   17   11      0.35      0.00
   12   17   11     -0.33      0.00
   13   17   11      0.89      0.00
    1   18   11     -6.62      0.00
    2   18   11      3.73      0.00
    3   18   11    -11.91      0.00
    4   18   11     -0.94      0.00
    5   18   11      0.02      0.00
    6   18   11      0.53      0.00
    7   18   11     -0.98      0.00
    8   18   11      0.81      0.00
    9   18   11     -0.15      0.00
   10   18   11      2.72      0.00
   11   18   11      2.15      0.00
   12   18   11     -3.10      0.00
    0   19   11      0.22      0.00
    1   19   11     -1.54      0.00
    2   19   11      7.43      0.00
    3   19   11      0.66      0.00
    4   19   11      2.37      0.00
    5   19   11      0.16      0.00
    6   19   11      1.05      0.00
    7   19   11      2.89      0.00
    8   19   11     -3.58      0.00
    9   19   11      3.98      0.00
   10   19   11     -1.16      0.00
   11   19   11     -2.78      0.00
   12   19   11     -1.01      0.00
    1   20   11     -4.16      0.00
    2   20   11     -0.59      0.00
    3   20   11      3.86      0.00
    4   20   11      3.21      0.00
    5   20   11      0.28      0.00
    6   20   11     -2.84      0.00
    7   20   11      1.60      0.00
    8   20   11     -3.49      0.00
    9   20   11      0.94      0.00
   10   20   11     -1.30      0.00
   11   20   11     -0.56      0.00
    0   21   11      2.18      0.00
    1   21   11     -0.99      0.00
    2   21   11     -3.94      0.00
    3   21   11     -2.27      0.00
    4   21   11     -1.98      0.00
    5   21   11      0.17      0.00
    6   21   11     -1.77      0.00
    7   21   11      1.18      0.00
    8   21   11     -6.55      0.00
    9   21   11      1.03      0.00
    1   22   11     -2.48      0.00
    2   22   11      2.98      0.00
    3   22   11      2.97      0.00
    4   22   11      5.85      0.00
    5   22   11      0.00      0.00
    6   22   11      1.14      0.00
    7   22   11      0.89      0.00
    8   22   11      0.40      0.00
    0   23   11      4.00      0.00
    1   23   11      0.89      0.00
    2   23   11      0.76      0.00
    3   23   11     -1.74      0.00
    4   23   11     -0.09      0.00
    5   23   11     -2.20      0.00
    6   23   11      0.32      0.00
    7   23   11     -1.44      0.00
    1   24   11     -1.86      0.00
    2   24   11     -1.22      0.00
    3   24   11      0.56      0.00
    4   24   11     -0.49      0.00
    0    0   12    123.19      0.00
    2    0   12    -18.36      0.00
    4    0   12      2.99      0.00
    6    0   12     23.76      0.00
    8    0   12      1.10      0.00
   10    0   12     -1.60      0.00
   12    0   12      4.30      0.00
   14    0   12     -2.15      0.00
   16    0   12     -2.41      0.00
   18    0   12     -3.69      0.00
    1    1   12    -78.70      0.00
    2    1   12     15.05      0.00
    3    1   12     32.53      0.00
    4    1   12     -2.04      0.00
    5    1   12    -14.42      0.00
    6    1   12     -2.55      0.00
    7    1   12      4.14      0.00
    8    1   12      1.08      0.00
    9    1   12     -2.80      0.00
   10    1   12     -5.37      0.00
   11    1   12     -3.84      0.00
   12    1   12      0.48      0.00
   13    1   12      0.10      0.00
   14    1   12      3.15      0.00
   15    1   12     -0.78      0.00
   16    1   12     -0.02      0.00
   17    1   12      1.08      0.00
   18    1   12      1.93      0.00
   19    1   12     -0.13      0.00
    0    2   12     14.48      0.00
    1    2   12     12.50      0.00
    2    2   12    -23.25      0.00
    3    2   12     -0.92      0.00
    4    2   12     -3.36      0.00
    5    2   12     16.26      0.00
    6    2   12      3.27      0.00
    7    2   12     -6.83      0.00
    8    2   12     -1.26      0.00
    9    2   12      2.56      0.00
   10    2   12     -4.60      0.00
   11    2   12      0.72      0.00
   12    2   12      4.87      0.00
   13    2   12     -5.03      0.00
   14    2   12     -3.90      0.00
   15    2   12     -1.14      0.00
   16    2   12     -1.82      0.00
   17    2   12      1.93      0.00
   18    2   12     -2.29      0.00
   19    2   12     -0.26      0.00
    1    3   12     -3.33      0.00
    2    3   12     -3.53      0.00
    3    3   12     10.34      0.00
    4    3   12      3.61      0.00
    5    3   12     -3.43      0.00
    6    3   12     -5.99      0.00
    7    3   12      2.89      0.00
    8    3   12      5.34      0.00
    9    3   12     -0.87      0.00
   10    3   12      2.73      0.00
   11    3   12      2.52      0.00
   12    3   12     -0.11      0.00
   13    3   12     -4.92      0.00
   14    3   12      4.42      0.00
   15    3   12      0.99      0.00
   16    3   12     -3.04      0.00
   17    3   12      1.03      0.00
   18    3   12     -0.44      0.00
   19    3   12      0.20      0.00
    0    4   12    -20.58      0.00
    1    4   12     21.09      0.00
    2    4   12      1.16      0.00
    3    4   12      1.72      0.00
    4    4   12     -1.85      0.00
    5    4   12      4.66      0.00
    6    4   12      4.69      0.00
    7    4   12     -4.49      0.00
    8    4   12     -1.82      0.00
    9    4   12     -6.53      0.00
   10    4   12     -5.86      0.00
   11    4   12     -3.68      0.00
   12    4   12      2.41      0.00
   13    4   12      2.18      0.00
   14    4   12      1.23      0.00
   15    4   12     -1.84      0.00
   16    4   12      0.99      0.00
   17    4   12      4.04      0.00
   18    4   12     -6.05      0.00
   19    4   12     -0.60      0.00
    1    5   12     -7.03      0.00
    2    5   12      5.24      0.00
    3    5   12     10.31      0.00
    4    5   12     10.41      0.00
    5    5   12     -3.97      0.00
    6    5   12     -5.96      0.00
    7    5   12     -2.39      0.00
    8    5   12      1.35      0.00
    9    5   12      1.79      0.00
   10    5   12      1.14      0.00
   11    5   12     -0.70      0.00
   12    5   12     -1.08      0.00
   13    5   12     -4.96      0.00
   14    5   12     -2.27      0.00
   15    5   12      1.12      0.00
   16    5   12      3.52      0.00
   17    5   12      2.91      0.00
   18    5   12      1.06      0.00
    0    6   12     -5.51      0.00
    1    6   12    -14.36      0.00
    2    6   12     -6.86      0.00
    3    6   12      2.55      0.00
    4    6   12    -12.80      0.00
    5    6   12      7.88      0.00
    6    6   12      0.63      0.00
    7    6   12     -5.06      0.00
    8    6   12     -5.07      0.00
    9    6   12      2.98      0.00
   10    6   12      1.17      0.00
   11    6   12      5.52      0.00
   12    6   12     -1.45      0.00
   13    6   12      2.39      0.00
   14    6   12      0.60      0.00
   15    6   12     -0.56      0.00
   16    6   12     -0.28      0.00
   17    6   12      2.56      0.00
   18    6   12      0.30      0.00
    1    7   12      2.76      0.00
    2    7   12     18.11      0.00
    3    7   12      3.44      0.00
    4    7   12    -13.45      0.00
    5    7   12     -2.10      0.00
    6    7   12      0.75      0.00
    7    7   12      2.04      0.00
    8    7   12      2.78      0.00
    9    7   12     -5.07      0.00
   10    7   12     -5.37      0.00
   11    7   12      2.10      0.00
   12    7   12     -1.45      0.00
   13    7   12      2.64      0.00
   14    7   12     -2.97      0.00
   15    7   12      1.90      0.00
   16    7   12     -1.52      0.00
   17    7   12     -1.97      0.00
   18    7   12      0.71      0.00
    0    8   12     -2.96      0.00
    1    8   12    -19.61      0.00
    2    8   12     -1.48      0.00
    3    8   12      5.19      0.00
    4    8   12      4.33      0.00
    5    8   12      9.97      0.00
    6    8   12     -1.29      0.00
    7    8   12     -6.49      0.00
    8    8   12     -0.50      0.00
    9    8   12      0.54      0.00
   10    8   12      1.68      0.00
   11    8   12      2.06      0.00
   12    8   12     -2.63      0.00
   13    8   12     -2.53      0.00
   14    8   12     -2.04      0.00
   15    8   12      2.36      0.00
   16    8   12      3.59      0.00
   17    8   12      1.74      0.00
   18    8   12      1.50      0.00
    1    9   12     -2.37      0.00
    2    9   12     12.22      0.00
    3    9   12     -4.98      0.00
    4    9   12    -10.73      0.00
    5    9   12     -4.36      0.00
    6    9   12      2.17      0.00
    7    9   12      2.62      0.00
    8    9   12      5.17      0.00
    9    9   12     -3.04      0.00
   10    9   12     -2.80      0.00
   11    9   12     -1.24      0.00
   12    9   12      4.02      0.00
   13    9   12      1.63      0.00
   14    9   12      4.29      0.00
   15    9   12     -0.95      0.00
   16    9   12     -1.71      0.00
   17    9   12      1.40      0.00
    0   10   12     -4.15      0.00
    1   10   12     -4.59      0.00
    2   10   12     -6.50      0.00
    3   10   12     -2.25      0.00
    4   10   12      2.22      0.00
    5   10   12      6.39      0.00
    6   10   12     -1.13      0.00
    7   10   12     -2.88      0.00
    8   10   12     -3.61      0.00
    9   10   12     -0.95      0.00
   10   10   12     -0.02      0.00
   11   10   12     -0.13      0.00
   12   10   12     -0.34      0.00
   13   10   12     -3.56      0.00
   14   10   12      1.11      0.00
   15   10   12     -1.06      0.00
   16   10   12      1.56      0.00
   17   10   12      0.45      0.00
    1   11   12      0.78      0.00
    2   11   12      4.93      0.00
    3   11   12      1.75      0.00
    4   11   12     -1.06      0.00
    5   11   12     -1.97      0.00
    6   11   12      0.51      0.00
    7   11   12      5.39      0.00
    8   11   12      6.64      0.00
    9   11   12     -1.83      0.00
   10   11   12     -3.48      0.00
   11   11   12     -3.35      0.00
   12   11   12      1.34      0.00
   13   11   12      1.87      0.00
   14   11   12      2.61      0.00
   15   11   12      1.11      0.00
   16   11   12     -3.14      0.00
   17   11   12      2.08      0.00
    0   12   12     -4.39      0.00
    1   12   12      2.44      0.00
    2   12   12      1.58      0.00
    3   12   12      0.37      0.00
    4   12   12      3.27      0.00
    5   12   12      6.11      0.00
    6   12   12     -3.65      0.00
    7   12   12     -1.74      0.00
    8   12   12     -3.79      0.00
    9   12   12     -0.31      0.00
   10   12   12      3.14      0.00
   11   12   12     -1.46      0.00
   12   12   12      0.69      0.00
   13   12   12      0.81      0.00
   14   12   12     -1.64      0.00
   15   12   12     -1.06      0.00
   16   12   12      0.94      0.00
    1   13   12     -1.33      0.00
    2   13   12      2.66      0.00
    3   13   12     -5.03      0.00
    4   13   12     -4.06      0.00
    5   13   12      0.97      0.00
    6   13   12     -1.16      0.00
    7   13   12      1.77      0.00
    8   13   12      0.72      0.00
    9   13   12     -1.88      0.00
   10   13   12     -2.73      0.00
   11   13   12     -4.42      0.00
   12   13   12     -0.40      0.00
   13   13   12      1.78      0.00
   14   13   12      4.88      0.00
   15   13   12      1.89      0.00
   16   13   12     -1.56      0.00
    0   14   12     -6.14      0.00
    1   14   12     -3.66      0.00
    2   14   12      1.49      0.00
    3   14   12      1.70      0.00
    4   14   12     -0.40      0.00
    5   14   12      1.44      0.00
    6   14   12     -1.03      0.00
    7   14   12     -1.10      0.00
    8   14   12     -0.02      0.00
    9   14   12      1.67      0.00
   10   14   12      0.07      0.00
   11   14   12      0.26      0.00
   12   14   12     -1.18      0.00
   13   14   12      2.96      0.00
   14   14   12     -1.23      0.00
   15   14   12      0.86      0.00
    1   15   12     -1.18      0.00
    2   15   12      3.80      0.00
    3   15   12      0.38      0.00
    4   15   12     -3.27      0.00
    5   15   12     -4.40      0.00
    6   15   12      0.02      0.00
    7   15   12     -2.45      0.00
    8   15   12     -0.97      0.00
    9   15   12      0.76      0.00
   10   15   12     -4.04      0.00
   11   15   12      1.01      0.00
   12   15   12     -0.81      0.00
   13   15   12      0.40      0.00
   14   15   12     -1.62      0.00
   15   15   12      1.51      0.00
    0   16   12      2.12      0.00
    1   16   12      0.26      0.00
    2   16   12     -4.56      0.00
    3   16   12      1.59      0.00
    4   16   12      1.35      0.00
    5   16   12     -0.60      0.00
    6   16   12      0.58      0.00
    7   16   12      0.70      0.00
    8   16   12      0.07      0.00
    9   16   12      5.44      0.00
   10   16   12      0.85      0.00
   11   16   12     -0.87      0.00
   12   16   12      1.07      0.00
   13   16   12      0.92      0.00
   14   16   12      1.56      0.00
    1   17   12      0.13      0.00
    2   17   12     -4.55      0.00
    3   17   12      6.63      0.00
    4   17   12      0.40      0.00
    5   17   12     -4.30      0.00
    6   17   12      0.08      0.00
    7   17   12      3.96      0.00
    8   17   12     -4.60      0.00
    9   17   12      1.59      0.00
   10   17   12     -2.50      0.00
   11   17   12     -0.65      0.00
   12   17   12      1.45      0.00
   13   17   12     -2.25      0.00
    0   18   12     -3.16      0.00
    1   18   12      1.59      0.00
    2   18   12    -12.18      0.00
    3   18   12      1.32      0.00
    4   18   12     -4.73      0.00
    5   18   12     -1.19      0.00
    6   18   12     -3.99      0.00
    7   18   12      2.70      0.00
    8   18   12     -2.01      0.00
    9   18   12      0.45      0.00
   10   18   12     -0.29      0.00
   11   18   12      0.43      0.00
   12   18   12      1.27      0.00
    1   19   12      2.42      0.00
    2   19   12     -1.06      0.00
    3   19   12      2.26      0.00
    4   19   12      1.87      0.00
    5   19   12     -0.07      0.00
    6   19   12      3.02      0.00
    7   19   12      2.73      0.00
    8   19   12      2.81      0.00
    9   19   12     -0.82      0.00
   10   19   12     -0.58      0.00
   11   19   12     -2.48      0.00
   12   19   12     -2.35      0.00
    0   20   12     -0.74      0.00
    1   20   12     -4.11      0.00
    2   20   12      2.78      0.00
    3   20   12     -1.12      0.00
    4   20   12     -0.35      0.00
    5   20   12     -3.50      0.00
    6   20   12     -1.35      0.00
    7   20   12     -2.17      0.00
    8   20   12      1.72      0.00
    9   20   12     -1.91      0.00
   10   20   12     -0.51      0.00
   11   20   12      1.32      0.00
    1   21   12      0.72      0.00
    2   21   12      2.34      0.00
    3   21   12     -2.44      0.00
    4   21   12     -0.67      0.00
    5   21   12      0.53      0.00
    6   21   12      2.39      0.00
    7   21   12     -0.55      0.00
    8   21   12      0.82      0.00
    9   21   12     -2.36      0.00
    0   22   12     -4.93      0.00
    1   22   12     -5.94      0.00
    2   22   12     -0.81      0.00
    3   22   12      1.20      0.00
    4   22   12     -1.14      0.00
    5   22   12      1.67      0.00
    6   22   12     -0.80      0.00
    7   22   12      1.93      0.00
    8   22   12      1.67      0.00
    1   23   12      2.51      0.00
    2   23   12      1.33      0.00
    3   23   12     -2.08      0.00
    4   23   12     -2.50      0.00
    5   23   12     -0.02      0.00
    6   23   12     -1.59      0.00
    0   24   12      0.30      0.00
    1   24   12     -2.18      0.00
    2   24   12      2.56      0.00
    3   24   12     -0.61      0.00
    4   24   12      1.15      0.00
    1    0   13     25.29      0.00
    3    0   13    -29.76      0.00
    5    0   13      6.34      0.00
    7    0   13      6.33      0.00
    9    0   13      1.59      0.00
   11    0   13      7.50      0.00
   13    0   13     -3.47      0.00
   15    0   13     -6.81      0.00
   17    0   13     -1.65      0.00
   19    0   13     -1.30      0.00
    0    1   13    -79.98      0.00
    1    1   13     13.01      0.00
    2    1   13      6.37      0.00
    3    1   13     16.31      0.00
    4    1   13      8.71      0.00
    5    1   13     -9.79      0.00
    6    1   13      0.34      0.00
    7    1   13      6.86      0.00
    8    1   13     -2.76      0.00
    9    1   13      0.25      0.00
   10    1   13      1.81      0.00
   11    1   13     -2.60      0.00
   12    1   13     -6.46      0.00
   13    1   13      3.72      0.00
   14    1   13      3.60      0.00
   15    1   13      0.41      0.00
   16    1   13     -4.68      0.00
   17    1   13      1.87      0.00
   18    1   13     -0.57      0.00
   19    1   13      0.89      0.00
    1    2   13     -0.50      0.00
    2    2   13    -20.57      0.00
    3    2   13     -2.67      0.00
    4    2   13     15.68      0.00
    5    2   13      2.90      0.00
    6    2   13      3.92      0.00
    7    2   13     -5.70      0.00
    8    2   13     -5.94      0.00
    9    2   13     -1.42      0.00
   10    2   13      2.56      0.00
   11    2   13     -1.02      0.00
   12    2   13     -1.50      0.00
   13    2   13      0.44      0.00
   14    2   13     -2.97      0.00
   15    2   13     -2.54      0.00
   16    2   13      2.81      0.00
   17    2   13      2.00      0.00
   18    2   13      0.71      0.00
   19    2   13     -0.02      0.00
    0    3   13      3.25      0.00
    1    3   13     -9.43      0.00
    2    3   13     -5.51      0.00
    3    3   13     10.86      0.00
    4    3   13     -7.94      0.00
    5    3   13     -8.79      0.00
    6    3   13     15.13      0.00
    7    3   13     -1.58      0.00
    8    3   13     -4.76      0.00
    9    3   13      0.78      0.00
   10    3   13      2.88      0.00
   11    3   13      3.59      0.00
   12    3   13     -1.71      0.00
   13    3   13      1.32      0.00
   14    3   13     -1.68      0.00
   15    3   13     -1.96      0.00
   16    3   13     -4.64      0.00
   17    3   13     -1.77      0.00
   18    3   13      0.34      0.00
   19    3   13     -0.56      0.00
    1    4   13    -21.08      0.00
    2    4   13     25.15      0.00
    3    4   13      2.35      0.00
    4    4   13     -5.71      0.00
    5    4   13     -0.86      0.00
    6    4   13      1.40      0.00
    7    4   13     -3.72      0.00
    8    4   13      1.71      0.00
    9    4   13      1.55      0.00
   10    4   13     -6.79      0.00
   11    4   13     -1.78      0.00
   12    4   13     -2.92      0.00
   13    4   13      3.33      0.00
   14    4   13      1.28      0.00
   15    4   13     -2.40      0.00
   16    4   13      1.37      0.00
   17    4   13     -0.83      0.00
   18    4   13      1.10      0.00
    0    5   13     13.12      0.00
    1    5   13    -23.29      0.00
    2    5   13     -9.44      0.00
    3    5   13      5.23      0.00
    4    5   13      1.85      0.00
    5    5   13      7.61      0.00
    6    5   13      3.29      0.00
    7    5   13     -1.00      0.00
    8    5   13     -4.60      0.00
    9    5   13     -1.72      0.00
   10    5   13      1.01      0.00
   11    5   13      2.79      0.00
   12    5   13     -2.16      0.00
   13    5   13     -0.75      0.00
   14    5   13     -1.66      0.00
   15    5   13     -0.24      0.00
   16    5   13      0.09      0.00
   17    5   13      1.14      0.00
   18    5   13      2.63      0.00
    1    6   13      0.44      0.00
    2    6   13     19.73      0.00
    3    6   13      4.57      0.00
    4    6   13     -1.99      0.00
    5    6   13     -1.55      0.00
    6    6   13     -0.40      0.00
    7    6   13     -0.58      0.00
    8    6   13      2.39      0.00
    9    6   13      1.86      0.00
   10    6   13      2.60      0.00
   11    6   13     -4.57      0.00
   12    6   13      1.70      0.00
   13    6   13     -0.15      0.00
   14    6   13      4.06      0.00
   15    6   13     -1.66      0.00
   16    6   13      0.37      0.00
   17    6   13     -0.13      0.00
   18    6   13     -1.16      0.00
    0    7   13      6.85      0.00
    1    7   13      1.85      0.00
    2    7   13    -10.09      0.00
    3    7   13     -4.73      0.00
    4    7   13     -3.27      0.00
    5    7   13     -2.57      0.00
    6    7   13      1.76      0.00
    7    7   13      1.37      0.00
    8    7   13     -4.63      0.00
    9    7   13     -3.73      0.00
   10    7   13     -0.54      0.00
   11    7   13     -5.24      0.00
   12    7   13      4.97      0.00
   13    7   13      1.88      0.00
   14    7   13      1.89      0.00
   15    7   13     -1.09      0.00
   16    7   13      1.32      0.00
   17    7   13     -0.23      0.00
   18    7   13     -1.59      0.00
    1    8   13     -9.98      0.00
    2    8   13      2.31      0.00
    3    8   13      4.64      0.00
    4    8   13      2.42      0.00
    5    8   13     -7.98      0.00
    6    8   13     -3.39      0.00
    7    8   13      1.78      0.00
    8    8   13      3.26      0.00
    9    8   13      5.23      0.00
   10    8   13      2.50      0.00
   11    8   13     -6.67      0.00
   12    8   13      0.07      0.00
   13    8   13     -3.74      0.00
   14    8   13     -1.12      0.00
   15    8   13     -0.07      0.00
   16    8   13     -0.21      0.00
   17    8   13      1.51      0.00
   18    8   13     -0.69      0.00
    0    9   13      6.68      0.00
    1    9   13      2.11      0.00
    2    9   13      2.93      0.00
    3    9   13      2.07      0.00
    4    9   13     -1.88      0.00
    5    9   13      5.61      0.00
    6    9   13     -2.10      0.00
    7    9   13     -0.89      0.00
    8    9   13     -3.61      0.00
    9    9   13      1.50      0.00
   10    9   13      2.68      0.00
   11    9   13     -0.50      0.00
   12    9   13      0.12      0.00
   13    9   13      3.72      0.00
   14    9   13      0.08      0.00
   15    9   13      2.87      0.00
   16    9   13     -0.14      0.00
   17    9   13      0.55      0.00
    1   10   13     -1.86      0.00
    2   10   13      2.14      0.00
    3   10   13     -1.35      0.00
    4   10   13     -4.19      0.00
    5   10   13      0.21      0.00
    6   10   13     -0.46      0.00
    7   10   13      2.12      0.00
    8   10   13      0.86      0.00
    9   10   13     -0.08      0.00
   10   10   13     -1.99      0.00
   11   10   13     -2.88      0.00
   12   10   13     -0.66      0.00
   13   10   13     -0.45      0.00
   14   10   13     -3.61      0.00
   15   10   13      3.68      0.00
   16   10   13      1.01      0.00
   17   10   13      0.44      0.00
    0   11   13     -2.81      0.00
    1   11   13     -8.89      0.00
    2   11   13      2.91      0.00
    3   11   13      4.29      0.00
    4   11   13     -0.87      0.00
    5   11   13      5.65      0.00
    6   11   13     -0.98      0.00
    7   11   13     -2.34      0.00
    8   11   13      1.62      0.00
    9   11   13      3.65      0.00
   10   11   13      2.54      0.00
   11   11   13      3.36      0.00
   12   11   13     -0.89      0.00
   13   11   13     -0.20      0.00
   14   11   13     -1.14      0.00
   15   11   13      0.86      0.00
   16   11   13     -1.52      0.00
   17   11   13     -0.12      0.00
    1   12   13     -2.86      0.00
    2   12   13      1.89      0.00
    3   12   13     -6.55      0.00
    4   12   13     -3.99      0.00
    5   12   13     -0.34      0.00
    6   12   13      1.68      0.00
    7   12   13     -1.78      0.00
    8   12   13     -0.19      0.00
    9   12   13     -1.76      0.00
   10   12   13     -1.18      0.00
   11   12   13     -0.55      0.00
   12   12   13      0.69      0.00
   13   12   13     -0.62      0.00
   14   12   13     -2.14      0.00
   15   12   13     -0.96      0.00
   16   12   13      1.92      0.00
    0   13   13      0.91      0.00
    1   13   13     -1.29      0.00
    2   13   13      2.11      0.00
    3   13   13      2.57      0.00
    4   13   13      1.20      0.00
    5   13   13      1.78      0.00
    6   13   13      2.04      0.00
    7   13   13     -0.65      0.00
    8   13   13      0.99      0.00
    9   13   13     -1.08      0.00
   10   13   13     -1.12      0.00
   11   13   13      1.17      0.00
   12   13   13     -1.01      0.00
   13   13   13     -0.91      0.00
   14   13   13      1.51      0.00
   15   13   13      0.32      0.00
   16   13   13      0.74      0.00
    1   14   13      0.78      0.00
    2   14   13     -2.91      0.00
    3   14   13     -1.25      0.00
    4   14   13      0.84      0.00
    5   14   13      0.78      0.00
    6   14   13      1.93      0.00
    7   14   13     -0.76      0.00
    8   14   13     -2.60      0.00
    9   14   13     -1.40      0.00
   10   14   13      2.69      0.00
   11   14   13      0.18      0.00
   12   14   13      0.64      0.00
   13   14   13      0.37      0.00
   14   14   13     -0.82      0.00
   15   14   13     -2.27      0.00
    0   15   13     -5.16      0.00
    1   15   13      1.05      0.00
    2   15   13     -0.65      0.00
    3   15   13     -0.14      0.00
    4   15   13     -4.83      0.00
    5   15   13      0.01      0.00
    6   15   13      0.07      0.00
    7   15   13     -2.20      0.00
    8   15   13     -0.43      0.00
    9   15   13     -3.48      0.00
   10   15   13      0.46      0.00
   11   15   13      0.77      0.00
   12   15   13      0.20      0.00
   13   15   13     -0.57      0.00
   14   15   13     -0.85      0.00
   15   15   13     -0.98      0.00
    1   16   13      3.23      0.00
    2   16   13      1.72      0.00
    3   16   13     -7.30      0.00
    4   16   13      3.11      0.00
    5   16   13      4.38      0.00
    6   16   13      3.18      0.00
    7   16   13     -0.30      0.00
    8   16   13      1.51      0.00
    9   16   13     -0.15      0.00
   10   16   13      0.03      0.00
   11   16   13      1.40      0.00
   12   16   13      0.63      0.00
   13   16   13      1.68      0.00
   14   16   13      0.40      0.00
    0   17   13     -5.00      0.00
    1   17   13     -2.09      0.00
    2   17   13      5.94      0.00
    3   17   13     -3.18      0.00
    4   17   13     -1.82      0.00
    5   17   13     -3.07      0.00
    6   17   13     -0.32      0.00
    7   17   13     -4.48      0.00
    8   17   13      0.74      0.00
    9   17   13     -1.50      0.00
   10   17   13     -0.72      0.00
   11   17   13      3.04      0.00
   12   17   13     -1.58      0.00
   13   17   13     -1.49      0.00
    1   18   13      0.22      0.00
    2   18   13     -0.48      0.00
    3   18   13     -7.86      0.00
    4   18   13      1.43      0.00
    5   18   13      2.20      0.00
    6   18   13      1.82      0.00
    7   18   13     -4.89      0.00
    8   18   13      1.88      0.00
    9   18   13     -2.83      0.00
   10   18   13     -2.37      0.00
   11   18   13      1.52      0.00
   12   18   13      3.12      0.00
    0   19   13     -0.71      0.00
    1   19   13      2.88      0.00
    2   19   13     -0.97      0.00
    3   19   13     -1.63      0.00
    4   19   13     -2.20      0.00
    5   19   13      2.04      0.00
    6   19   13     -1.09      0.00
    7   19   13     -1.24      0.00
    8   19   13      3.66      0.00
    9   19   13     -1.52      0.00
   10   19   13      1.61      0.00
   11   19   13      0.91      0.00
    1   20   13      3.50      0.00
    2   20   13     -5.53      0.00
    3   20   13     -3.49      0.00
    4   20   13     -1.70      0.00
    5   20   13      0.84      0.00
    6   20   13      0.95      0.00
    7   20   13     -3.13      0.00
    8   20   13      0.23      0.00
    9   20   13      0.23      0.00
   10   20   13      1.92      0.00
    0   21   13      0.47      0.00
    1   21   13      7.92      0.00
    2   21   13      0.52      0.00
    3   21   13     -0.50      0.00
    4   21   13      1.46      0.00
    5   21   13      1.81      0.00
    6   21   13      0.18      0.00
    7   21   13     -0.39      0.00
    8   21   13     -0.14      0.00
    9   21   13     -1.41      0.00
    1   22   13     -1.27      0.00
    2   22   13     -9.99      0.00
    3   22   13     -0.94      0.00
    4   22   13     -0.13      0.00
    5   22   13      0.01      0.00
    6   22   13      0.26      0.00
    7   22   13     -0.65      0.00
    8   22   13     -0.11      0.00
    0   23   13      1.38      0.00
    1   23   13      5.00      0.00
    2   23   13     -1.72      0.00
    3   23   13     -2.22      0.00
    4   23   13     -0.34      0.00
    5   23   13      0.69      0.00
    6   23   13      1.03      0.00
    1   24   13      0.43      0.00
    2   24   13     -1.21      0.00
    3   24   13      2.65      0.00
    0    0   14     25.46      0.00
    2    0   14    -47.27      0.00
    4    0   14    -18.99      0.00
    6    0   14     10.03      0.00
    8    0   14     -3.70      0.00
   10    0   14     -4.86      0.00
   12    0   14      1.54      0.00
   14    0   14     -6.60      0.00
   16    0   14     -0.11      0.00
   18    0   14      0.78      0.00
    1    1   14    -16.16      0.00
    2    1   14     20.29      0.00
    3    1   14     28.45      0.00
    4    1   14    -13.69      0.00
    5    1   14      3.54      0.00
    6    1   14      0.92      0.00
    7    1   14     -6.22      0.00
    8    1   14      8.62      0.00
    9    1   14      4.42      0.00
   10    1   14      0.07      0.00
   11    1   14      0.95      0.00
   12    1   14     -0.18      0.00
   13    1   14      1.05      0.00
   14    1   14      1.34      0.00
   15    1   14     -0.48      0.00
   16    1   14     -1.17      0.00
   17    1   14     -5.08      0.00
   18    1   14     -0.36      0.00
   19    1   14     -2.14      0.00
    0    2   14     49.72      0.00
    1    2   14    -15.24      0.00
    2    2   14    -21.16      0.00
    3    2   14    -12.51      0.00
    4    2   14      2.55      0.00
    5    2   14     17.23      0.00
    6    2   14      7.82      0.00
    7    2   14     -5.93      0.00
    8    2   14     -3.82      0.00
    9    2   14     -6.10      0.00
   10    2   14     -6.33      0.00
   11    2   14      3.15      0.00
   12    2   14     -2.25      0.00
   13    2   14     -0.60      0.00
   14    2   14      1.06      0.00
   15    2   14      1.48      0.00
   16    2   14      3.09      0.00
   17    2   14      0.45      0.00
   18    2   14      0.53      0.00
   19    2   14      1.11      0.00
    1    3   14    -26.46      0.00
    2    3   14     21.68      0.00
    3    3   14     18.31      0.00
    4    3   14    -15.10      0.00
    5    3   14     -5.52      0.00
    6    3   14     -2.93      0.00
    7    3   14      3.87      0.00
    8    3   14      3.23      0.00
    9    3   14      1.41      0.00
   10    3   14     -0.67      0.00
   11    3   14     -1.39      0.00
   12    3   14      0.84      0.00
   13    3   14     -0.35      0.00
   14    3   14     -2.51      0.00
   15    3   14     -0.71      0.00
   16    3   14     -0.07      0.00
   17    3   14     -4.00      0.00
   18    3   14     -1.40      0.00
   19    3   14     -2.91      0.00
    0    4   14      7.15      0.00
    1    4   14     10.66      0.00
    2    4   14    -19.27      0.00
    3    4   14     -4.03      0.00
    4    4   14      1.84      0.00
    5    4   14     11.30      0.00
    6    4   14      0.12      0.00
    7    4   14     -4.63      0.00
    8    4   14     -0.64      0.00
    9    4   14      2.40      0.00
   10    4   14      0.24      0.00
   11    4   14     -0.97      0.00
   12    4   14     -0.82      0.00
   13    4   14     -2.19      0.00
   14    4   14     -0.35      0.00
   15    4   14      1.73      0.00
   16    4   14     -1.41      0.00
   17    4   14      0.23      0.00
   18    4   14      0.10      0.00
    1    5   14     -8.41      0.00
    2    5   14     -8.31      0.00
    3    5   14      9.62      0.00
    4    5   14     -0.53      0.00
    5    5   14     -6.75      0.00
    6    5   14      1.81      0.00
    7    5   14      1.81      0.00
    8    5   14      1.73      0.00
    9    5   14     -3.11      0.00
   10    5   14      2.58      0.00
   11    5   14     -0.92      0.00
   12    5   14      2.07      0.00
   13    5   14     -0.39      0.00
   14    5   14     -1.39      0.00
   15    5   14      1.78      0.00
   16    5   14     -0.73      0.00
   17    5   14      0.37      0.00
   18    5   14     -0.34      0.00
    0    6   14     -6.64      0.00
    1    6   14     10.73      0.00
    2    6   14      7.50      0.00
    3    6   14      2.96      0.00
    4    6   14     11.43      0.00
    5    6   14      9.33      0.00
    6    6   14      2.78      0.00
    7    6   14    -10.78      0.00
    8    6   14     -0.36      0.00
    9    6   14     -1.50      0.00
   10    6   14      0.65      0.00
   11    6   14      2.34      0.00
   12    6   14     -2.25      0.00
   13    6   14     -0.29      0.00
   14    6   14     -1.57      0.00
   15    6   14      1.14      0.00
   16    6   14     -0.46      0.00
   17    6   14     -0.02      0.00
   18    6   14     -0.86      0.00
    1    7   14     -1.45      0.00
    2    7   14     -0.87      0.00
    3    7   14     -8.74      0.00
    4    7   14     -1.17      0.00
    5    7   14      1.09      0.00
    6    7   14     -0.73      0.00
    7    7   14     -0.97      0.00
    8    7   14      0.95      0.00
    9    7   14     -4.01      0.00
   10    7   14     -1.14      0.00
   11    7   14     -0.34      0.00
   12    7   14     -0.63      0.00
   13    7   14      1.73      0.00
   14    7   14     -0.65      0.00
   15    7   14      0.84      0.00
   16    7   14      2.00      0.00
   17    7   14      2.14      0.00
   18    7   14     -0.24      0.00
    0    8   14    -15.03      0.00
    1    8   14     -8.28      0.00
    2    8   14     -3.77      0.00
    3    8   14      1.90      0.00
    4    8   14     -0.29      0.00
    5    8   14      5.74      0.00
    6    8   14     -0.37      0.00
    7    8   14     -5.89      0.00
    8    8   14     -1.80      0.00
    9    8   14     -0.63      0.00
   10    8   14      1.29      0.00
   11    8   14      7.33      0.00
   12    8   14     -1.31      0.00
   13    8   14      1.72      0.00
   14    8   14     -2.21      0.00
   15    8   14     -3.05      0.00
   16    8   14     -3.00      0.00
   17    8   14     -1.08      0.00
   18    8   14      0.90      0.00
    1    9   14      9.25      0.00
    2    9   14      9.01      0.00
    3    9   14     -1.08      0.00
    4    9   14     -2.81      0.00
    5    9   14      2.36      0.00
    6    9   14      3.88      0.00
    7    9   14     -2.15      0.00
    8    9   14      0.62      0.00
    9    9   14     -1.70      0.00
   10    9   14     -0.85      0.00
   11    9   14      1.42      0.00
   12    9   14     -1.54      0.00
   13    9   14      1.08      0.00
   14    9   14      1.71      0.00
   15    9   14     -0.72      0.00
   16    9   14      1.88      0.00
   17    9   14     -0.07      0.00
    0   10   14     -0.12      0.00
    1   10   14     -5.41      0.00
    2   10   14     -2.90      0.00
    3   10   14      0.00      0.00
    4   10   14      5.18      0.00
    5   10   14      1.12      0.00
    6   10   14      2.22      0.00
    7   10   14     -0.78      0.00
    8   10   14     -1.24      0.00
    9   10   14     -1.38      0.00
   10   10   14     -1.68      0.00
   11   10   14      0.47      0.00
   12   10   14      1.29      0.00
   13   10   14      1.83      0.00
   14   10   14     -1.27      0.00
   15   10   14     -2.12      0.00
   16   10   14      1.61      0.00
   17   10   14     -0.74      0.00
    1   11   14      1.74      0.00
    2   11   14      3.49      0.00
    3   11   14     -2.83      0.00
    4   11   14     -3.59      0.00
    5   11   14     -2.84      0.00
    6   11   14      3.37      0.00
    7   11   14      1.32      0.00
    8   11   14     -0.63      0.00
    9   11   14      1.42      0.00
   10   11   14      0.57      0.00
   11   11   14      1.18      0.00
   12   11   14      1.16      0.00
   13   11   14      0.87      0.00
   14   11   14      3.98      0.00
   15   11   14     -3.89      0.00
   16   11   14     -0.80      0.00
    0   12   14     -8.88      0.00
    1   12   14     -2.29      0.00
    2   12   14     -5.54      0.00
    3   12   14     -4.93      0.00
    4   12   14      2.44      0.00
    5   12   14     -2.34      0.00
    6   12   14     -1.79      0.00
    7   12   14     -0.75      0.00
    8   12   14     -2.95      0.00
    9   12   14      1.31      0.00
   10   12   14     -1.95      0.00
   11   12   14     -1.46      0.00
   12   12   14     -1.86      0.00
   13   12   14      0.24      0.00
   14   12   14     -1.54      0.00
   15   12   14     -0.47      0.00
   16   12   14      0.81      0.00
    1   13   14      3.94      0.00
    2   13   14      4.32      0.00
    3   13   14      0.39      0.00
    4   13   14      1.14      0.00
    5   13   14      0.57      0.00
    6   13   14      2.80      0.00
    7   13   14      5.97      0.00
    8   13   14      5.37      0.00
    9   13   14      0.49      0.00
   10   13   14     -5.42      0.00
   11   13   14      1.06      0.00
   12   13   14      1.45      0.00
   13   13   14      0.77      0.00
   14   13   14      0.90      0.00
   15   13   14      1.79      0.00
   16   13   14     -1.96      0.00
    0   14   14     -2.75      0.00
    1   14   14     -2.26      0.00
    2   14   14      2.64      0.00
    3   14   14     -1.55      0.00
    4   14   14      7.34      0.00
    5   14   14      2.48      0.00
    6   14   14     -5.67      0.00
    7   14   14     -3.43      0.00
    8   14   14     -1.54      0.00
    9   14   14      1.47      0.00
   10   14   14      1.24      0.00
   11   14   14      0.06      0.00
   12   14   14     -0.08      0.00
   13   14   14     -2.22      0.00
   14   14   14     -0.46      0.00
   15   14   14     -0.69      0.00
    1   15   14     -3.57      0.00
    2   15   14     -0.11      0.00
    3   15   14     -4.65      0.00
    4   15   14      0.06      0.00
    5   15   14      0.31      0.00
    6   15   14      0.03      0.00
    7   15   14      4.79      0.00
    8   15   14      3.15      0.00
    9   15   14     -2.18      0.00
   10   15   14     -3.83      0.00
   11   15   14     -3.20      0.00
   12   15   14      2.31      0.00
   13   15   14     -0.30      0.00
   14   15   14      2.21      0.00
    0   16   14     -1.23      0.00
    1   16   14      0.16      0.00
    2   16   14      0.49      0.00
    3   16   14      1.99      0.00
    4   16   14      1.83      0.00
    5   16   14      1.73      0.00
    6   16   14     -4.08      0.00
    7   16   14     -1.34      0.00
    8   16   14      0.00      0.00
    9   16   14     -1.48      0.00
   10   16   14      0.67      0.00
   11   16   14     -1.40      0.00
   12   16   14     -0.68      0.00
   13   16   14      0.66      0.00
   14   16   14      0.34      0.00
    1   17   14     -2.46      0.00
    2   17   14     -0.54      0.00
    3   17   14      0.93      0.00
    4   17   14     -2.63      0.00
    5   17   14     -2.23      0.00
    6   17   14     -1.01      0.00
    7   17   14     -0.22      0.00
    8   17   14      0.61      0.00
    9   17   14     -0.96      0.00
   10   17   14      2.27      0.00
   11   17   14     -2.55      0.00
   12   17   14     -0.39      0.00
   13   17   14      0.89      0.00
    0   18   14      0.93      0.00
    1   18   14     -1.13      0.00
    2   18   14      7.82      0.00
    3   18   14      0.33      0.00
    4   18   14      1.29      0.00
    5   18   14      1.93      0.00
    6   18   14      0.05      0.00
    7   18   14     -1.52      0.00
    8   18   14     -1.89      0.00
    9   18   14      1.03      0.00
   10   18   14      0.16      0.00
   11   18   14     -1.66      0.00
   12   18   14      0.41      0.00
    1   19   14     -4.03      0.00
    2   19   14     -1.56      0.00
    3   19   14     -0.04      0.00
    4   19   14      1.09      0.00
    5   19   14     -5.25      0.00
    6   19   14     -2.80      0.00
    7   19   14      1.88      0.00
    8   19   14     -3.35      0.00
    9   19   14      1.52      0.00
   10   19   14     -0.59      0.00
   11   19   14      0.82      0.00
    0   20   14      0.22      0.00
    1   20   14     -4.65      0.00
    2   20   14     -0.52      0.00
    3   20   14     -1.11      0.00
    4   20   14     -3.52      0.00
    5   20   14      1.55      0.00
    6   20   14      0.73      0.00
    7   20   14      3.13      0.00
    8   20   14     -2.09      0.00
    9   20   14      4.02      0.00
   10   20   14     -0.43      0.00
    1   21   14     -0.20      0.00
    2   21   14      1.91      0.00
    3   21   14      3.77      0.00
    4   21   14      1.14      0.00
    5   21   14     -3.41      0.00
    6   21   14     -1.35      0.00
    7   21   14      1.36      0.00
    8   21   14      0.05      0.00
    9   21   14     -0.82      0.00
    0   22   14      1.90      0.00
    1   22   14     -6.48      0.00
    2   22   14      0.69      0.00
    3   22   14     -2.20      0.00
    4   22   14     -0.38      0.00
    5   22   14     -2.69      0.00
    6   22   14      0.98      0.00
    7   22   14     -0.92      0.00
    1   23   14     -1.10      0.00
    2   23   14     -0.16      0.00
    3   23   14      1.33      0.00
    4   23   14     -0.09      0.00
    5   23   14      1.29      0.00
    6   23   14      2.91      0.00
    0   24   14     -0.42      0.00
    1   24   14     -1.45      0.00
    2   24   14     -0.68      0.00
    3   24   14      1.30      0.00
    1    0   15    -48.08      0.00
    3    0   15     17.93      0.00
    5    0   15    -22.14      0.00
    7    0   15     -4.80      0.00
    9    0   15     -2.56      0.00
   11    0   15     -5.09      0.00
   13    0   15      0.79      0.00
   15    0   15     -1.81      0.00
   17    0   15      2.91      0.00
    0    1   15     22.32      0.00
    1    1   15     -3.97      0.00
    2    1   15     18.65      0.00
    3    1   15     -7.16      0.00
    4    1   15     -3.26      0.00
    5    1   15     -2.61      0.00
    6    1   15      8.57      0.00
    7    1   15     -1.67      0.00
    8    1   15     -3.52      0.00
    9    1   15      5.77      0.00
   10    1   15      1.06      0.00
   11    1   15     -1.50      0.00
   12    1   15      3.95      0.00
   13    1   15     -1.24      0.00
   14    1   15      0.03      0.00
   15    1   15     -0.41      0.00
   16    1   15     -4.30      0.00
   17    1   15     -3.20      0.00
   18    1   15     -1.43      0.00
   19    1   15     -0.19      0.00
    1    2   15      4.46      0.00
    2    2   15     -8.41      0.00
    3    2   15      5.63      0.00
    4    2   15      6.64      0.00
    5    2   15     -3.46      0.00
    6    2   15     -4.19      0.00
    7    2   15      1.28      0.00
    8    2   15      0.10      0.00
    9    2   15     -1.80      0.00
   10    2   15     -0.51      0.00
   11    2   15      0.50      0.00
   12    2   15      1.64      0.00
   13    2   15     -0.53      0.00
   14    2   15      1.17      0.00
   15    2   15     -0.87      0.00
   16    2   15      0.39      0.00
   17    2   15      1.04      0.00
   18    2   15     -0.06      0.00
    0    3   15    -45.30      0.00
    1    3   15     -9.36      0.00
    2    3   15      7.96      0.00
    3    3   15      0.91      0.00
    4    3   15      0.09      0.00
    5    3   15     -1.86      0.00
    6    3   15      3.04      0.00
    7    3   15      0.18      0.00
    8    3   15     -3.49      0.00
    9    3   15     -0.15      0.00
   10    3   15     -1.01      0.00
   11    3   15     -5.06      0.00
   12    3   15      0.46      0.00
   13    3   15      3.09      0.00
   14    3   15     -0.56      0.00
   15    3   15     -1.39      0.00
   16    3   15     -0.69      0.00
   17    3   15      0.83      0.00
   18    3   15     -1.42      0.00
    1    4   15     10.05      0.00
    2    4   15      0.10      0.00
    3    4   15     -7.15      0.00
    4    4   15      3.79      0.00
    5    4   15      8.29      0.00
    6    4   15     -2.38      0.00
    7    4   15     -3.35      0.00
    8    4   15      5.68      0.00
    9    4   15     -0.42      0.00
   10    4   15      4.44      0.00
   11    4   15      2.78      0.00
   12    4   15     -2.30      0.00
   13    4   15     -0.78      0.00
   14    4   15     -1.15      0.00
   15    4   15     -3.78      0.00
   16    4   15      0.19      0.00
   17    4   15      1.10      0.00
   18    4   15     -1.05      0.00
    0    5   15     -6.17      0.00
    1    5   15    -23.66      0.00
    2    5   15     -4.14      0.00
    3    5   15     -1.12      0.00
    4    5   15     -7.36      0.00
    5    5   15     -1.48      0.00
    6    5   15      9.03      0.00
    7    5   15      3.94      0.00
    8    5   15     -6.30      0.00
    9    5   15     -3.65      0.00
   10    5   15     -3.01      0.00
   11    5   15      0.50      0.00
   12    5   15      3.03      0.00
   13    5   15      7.89      0.00
   14    5   15      2.29      0.00
   15    5   15     -3.87      0.00
   16    5   15     -1.78      0.00
   17    5   15     -2.89      0.00
   18    5   15     -1.35      0.00
    1    6   15     -7.88      0.00
    2    6   15     18.50      0.00
    3    6   15     13.98      0.00
    4    6   15    -12.68      0.00
    5    6   15      3.08      0.00
    6    6   15     -1.56      0.00
    7    6   15      1.44      0.00
    8    6   15      3.00      0.00
    9    6   15      1.82      0.00
   10    6   15     -7.86      0.00
   11    6   15     -0.47      0.00
   12    6   15     -2.90      0.00
   13    6   15     -1.77      0.00
   14    6   15      0.13      0.00
   15    6   15     -0.59      0.00
   16    6   15     -0.86      0.00
   17    6   15      0.14      0.00
   18    6   15     -0.32      0.00
    0    7   15     11.88      0.00
    1    7   15    -14.65      0.00
    2    7   15     -8.88      0.00
    3    7   15      5.40      0.00
    4    7   15      1.07      0.00
    5    7   15      7.02      0.00
    6    7   15      2.66      0.00
    7    7   15      0.12      0.00
    8    7   15     -2.32      0.00
    9    7   15      1.73      0.00
   10    7   15     -0.89      0.00
   11    7   15      0.80      0.00
   12    7   15     -2.35      0.00
   13    7   15      1.34      0.00
   14    7   15      0.72      0.00
   15    7   15      0.78      0.00
   16    7   15     -1.01      0.00
   17    7   15      0.38      0.00
   18    7   15      0.19      0.00
    1    8   15     -5.41      0.00
    2    8   15     11.40      0.00
    3    8   15      4.45      0.00
    4    8   15    -11.11      0.00
    5    8   15     -6.11      0.00
    6    8   15     -1.12      0.00
    7    8   15      3.20      0.00
    8    8   15      2.72      0.00
    9    8   15     -2.27      0.00
   10    8   15     -2.47      0.00
   11    8   15     -0.06      0.00
   12    8   15      2.58      0.00
   13    8   15      0.98      0.00
   14    8   15      4.40      0.00
   15    8   15     -0.87      0.00
   16    8   15     -3.84      0.00
   17    8   15     -0.96      0.00
    0    9   15     -3.46      0.00
    1    9   15     -2.23      0.00
    2    9   15      3.04      0.00
    3    9   15     -1.43      0.00
    4    9   15      7.45      0.00
    5    9   15      5.30      0.00
    6    9   15     -4.67      0.00
    7    9   15     -3.19      0.00
    8    9   15      0.29      0.00
    9    9   15      0.79      0.00
   10    9   15      2.44      0.00
   11    9   15     -1.93      0.00
   12    9   15     -2.02      0.00
   13    9   15     -3.59      0.00
   14    9   15     -0.20      0.00
   15    9   15      0.19      0.00
   16    9   15      0.48      0.00
   17    9   15      1.90      0.00
    1   10   15      0.40      0.00
    2   10   15      1.25      0.00
    3   10   15     -0.33      0.00
    4   10   15     -0.88      0.00
    5   10   15     -2.14      0.00
    6   10   15     -4.78      0.00
    7   10   15      3.06      0.00
    8   10   15      6.17      0.00
    9   10   15      0.52      0.00
   10   10   15     -1.00      0.00
   11   10   15     -1.50      0.00
   12   10   15      1.39      0.00
   13   10   15     -1.07      0.00
   14   10   15      2.34      0.00
   15   10   15     -0.84      0.00
   16   10   15     -1.46      0.00
   17   10   15      0.06      0.00
    0   11   15     -3.75      0.00
    1   11   15     -0.28      0.00
    2   11   15      4.10      0.00
    3   11   15     -2.54      0.00
    4   11   15     -0.18      0.00
    5   11   15      5.51      0.00
    6   11   15     -4.26      0.00
    7   11   15     -5.77      0.00
    8   11   15     -0.48      0.00
    9   11   15     -1.62      0.00
   10   11   15      3.84      0.00
   11   11   15      2.61      0.00
   12   11   15     -0.38      0.00
   13   11   15     -1.79      0.00
   14   11   15     -0.11      0.00
   15   11   15      0.81      0.00
   16   11   15     -1.86      0.00
    1   12   15     -2.12      0.00
    2   12   15     -4.19      0.00
    3   12   15     -3.01      0.00
    4   12   15     -4.44      0.00
    5   12   15      2.63      0.00
    6   12   15     -1.75      0.00
    7   12   15     -0.16      0.00
    8   12   15      1.03      0.00
    9   12   15      0.16      0.00
   10   12   15      2.12      0.00
   11   12   15     -2.95      0.00
   12   12   15     -2.26      0.00
   13   12   15     -0.54      0.00
   14   12   15      0.83      0.00
   15   12   15      0.02      0.00
   16   12   15     -0.43      0.00
    0   13   15      0.20      0.00
    1   13   15     -0.11      0.00
    2   13   15      2.88      0.00
    3   13   15      2.80      0.00
    4   13   15     -2.07      0.00
    5   13   15      4.70      0.00
    6   13   15      1.71      0.00
    7   13   15      0.97      0.00
    8   13   15      1.52      0.00
    9   13   15      1.22      0.00
   10   13   15      1.52      0.00
   11   13   15      0.48      0.00
   12   13   15      0.96      0.00
   13   13   15     -2.55      0.00
   14   13   15     -1.91      0.00
   15   13   15     -1.13      0.00
   16   13   15      0.84      0.00
    1   14   15      1.98      0.00
    2   14   15     -1.20      0.00
    3   14   15     -1.25      0.00
    4   14   15     -3.58      0.00
    5   14   15      2.51      0.00
    6   14   15      2.62      0.00
    7   14   15     -2.86      0.00
    8   14   15     -4.23      0.00
    9   14   15      1.88      0.00
   10   14   15      3.10      0.00
   11   14   15      0.82      0.00
   12   14   15     -3.30      0.00
   13   14   15      1.29      0.00
   14   14   15     -1.62      0.00
   15   14   15     -2.02      0.00
    0   15   15     -2.72      0.00
    1   15   15      0.32      0.00
    2   15   15      0.34      0.00
    3   15   15      0.56      0.00
    4   15   15     -0.23      0.00
    5   15   15      1.55      0.00
    6   15   15      4.53      0.00
    7   15   15      1.76      0.00
    8   15   15     -1.29      0.00
    9   15   15      2.71      0.00
   10   15   15     -4.02      0.00
   11   15   15      1.03      0.00
   12   15   15     -2.10      0.00
   13   15   15      0.90      0.00
   14   15   15     -1.43      0.00
    1   16   15      2.27      0.00
    2   16   15     -2.43      0.00
    3   16   15     -0.84      0.00
    4   16   15     -0.19      0.00
    5   16   15     -1.04      0.00
    6   16   15      0.01      0.00
    7   16   15     -0.13      0.00
    8   16   15     -5.07      0.00
    9   16   15     -1.70      0.00
   10   16   15     -1.71      0.00
   11   16   15      2.32      0.00
   12   16   15     -0.59      0.00
   13   16   15     -1.12      0.00
   14   16   15     -0.36      0.00
    0   17   15      1.08      0.00
    1   17   15      3.03      0.00
    2   17   15     -6.95      0.00
    3   17   15      0.88      0.00
    4   17   15      1.06      0.00
    5   17   15      0.57      0.00
    6   17   15     -2.02      0.00
    7   17   15      3.07      0.00
    8   17   15     -2.22      0.00
    9   17   15      0.36      0.00
   10   17   15     -1.54      0.00
   11   17   15      3.39      0.00
   12   17   15     -0.30      0.00
   13   17   15     -1.95      0.00
    1   18   15     10.23      0.00
    2   18   15     -1.24      0.00
    3   18   15      0.50      0.00
    4   18   15      1.70      0.00
    5   18   15      3.27      0.00
    6   18   15      0.44      0.00
    7   18   15      2.60      0.00
    8   18   15     -0.11      0.00
    9   18   15     -0.04      0.00
   10   18   15     -0.60      0.00
   11   18   15     -0.19      0.00
   12   18   15     -1.44      0.00
    0   19   15     -0.51      0.00
    1   19   15      0.07      0.00
    2   19   15     -3.96      0.00
    3   19   15     -0.64      0.00
    4   19   15      2.16      0.00
    5   19   15     -5.37      0.00
    6   19   15     -3.70      0.00
    7   19   15     -2.14      0.00
    8   19   15     -0.61      0.00
    9   19   15     -5.20      0.00
   10   19   15      0.47      0.00
   11   19   15      4.88      0.00
    1   20   15      1.59      0.00
    2   20   15      0.37      0.00
    3   20   15     -6.43      0.00
    4   20   15      2.43      0.00
    5   20   15      3.24      0.00
    6   20   15      5.57      0.00
    7   20   15      0.10      0.00
    8   20   15      3.67      0.00
    9   20   15     -1.24      0.00
   10   20   15      1.55      0.00
    0   21   15      0.22      0.00
    1   21   15      0.39      0.00
    2   21   15     -0.02      0.00
    3   21   15     -2.21      0.00
    4   21   15     -0.69      0.00
    5   21   15     -2.62      0.00
    6   21   15     -3.55      0.00
    7   21   15     -0.24      0.00
    8   21   15      2.11      0.00
    9   21   15     -2.07      0.00
    1   22   15      3.95      0.00
    2   22   15      2.43      0.00
    3   22   15     -1.84      0.00
    4   22   15      1.55      0.00
    5   22   15      1.19      0.00
    6   22   15     -1.10      0.00
    7   22   15      0.89      0.00
    0   23   15     -1.23      0.00
    1   23   15     -1.06      0.00
    2   23   15      0.00      0.00
    3   23   15     -1.28      0.00
    4   23   15      2.15      0.00
    5   23   15      1.20      0.00
    1   24   15      0.31      0.00
    2   24   15      0.14      0.00
    0    0   16    -20.58      0.00
    2    0   16     -8.95      0.00
    4    0   16     13.93      0.00
    6    0   16    -11.43      0.00
    8    0   16     -6.25      0.00
   10    0   16     -0.31      0.00
   12    0   16     -7.91      0.00
   14    0   16      6.22      0.00
   16    0   16      3.79      0.00
   18    0   16      1.03      0.00
    1    1   16     35.57      0.00
    2    1   16     -7.90      0.00
    3    1   16    -15.54      0.00
    4    1   16     -6.08      0.00
    5    1   16      4.84      0.00
    6    1   16      1.59      0.00
    7    1   16     -0.26      0.00
    8    1   16     -4.55      0.00
    9    1   16      0.62      0.00
   10    1   16      1.79      0.00
   11    1   16      3.15      0.00
   12    1   16     -2.75      0.00
   13    1   16     -1.63      0.00
   14    1   16     -2.79      0.00
   15    1   16     -1.38      0.00
   16    1   16     -0.60      0.00
   17    1   16      0.52      0.00
   18    1   16     -1.84      0.00
    0    2   16     27.31      0.00
    1    2   16      6.54      0.00
    2    2   16    -17.61      0.00
    3    2   16      2.51      0.00
    4    2   16     -1.31      0.00
    5    2   16     -7.58      0.00
    6    2   16      1.92      0.00
    7    2   16      6.27      0.00
    8    2   16      0.15      0.00
    9    2   16     -2.20      0.00
   10    2   16      1.77      0.00
   11    2   16      3.66      0.00
   12    2   16     -2.52      0.00
   13    2   16      3.10      0.00
   14    2   16      1.56      0.00
   15    2   16     -0.92      0.00
   16    2   16     -2.78      0.00
   17    2   16      0.46      0.00
   18    2   16     -0.88      0.00
    1    3   16    -16.88      0.00
    2    3   16     -2.44      0.00
    3    3   16     16.14      0.00
    4    3   16    -13.26      0.00
    5    3   16     -9.95      0.00
    6    3   16      8.38      0.00
    7    3   16     -4.28      0.00
    8    3   16     -0.30      0.00
    9    3   16      3.32      0.00
   10    3   16     -2.42      0.00
   11    3   16     -3.31      0.00
   12    3   16     -2.18      0.00
   13    3   16     -0.24      0.00
   14    3   16      0.07      0.00
   15    3   16      1.14      0.00
   16    3   16      0.24      0.00
   17    3   16      1.88      0.00
   18    3   16      0.27      0.00
    0    4   16     48.05      0.00
    1    4   16      0.64      0.00
    2    4   16     -7.31      0.00
    3    4   16     -6.25      0.00
    4    4   16      6.80      0.00
    5    4   16      5.86      0.00
    6    4   16      3.37      0.00
    7    4   16     -2.17      0.00
    8    4   16      0.67      0.00
    9    4   16      1.41      0.00
   10    4   16      0.87      0.00
   11    4   16      6.99      0.00
   12    4   16     -2.00      0.00
   13    4   16     -5.11      0.00
   14    4   16      0.59      0.00
   15    4   16      2.64      0.00
   16    4   16     -1.00      0.00
   17    4   16     -1.52      0.00
   18    4   16     -0.05      0.00
    1    5   16     -9.94      0.00
    2    5   16      0.58      0.00
    3    5   16      3.29      0.00
    4    5   16     -8.95      0.00
    5    5   16     -7.37      0.00
    6    5   16     -0.64      0.00
    7    5   16      3.68      0.00
    8    5   16     -1.01      0.00
    9    5   16     -1.37      0.00
   10    5   16      0.25      0.00
   11    5   16     -2.29      0.00
   12    5   16      1.04      0.00
   13    5   16      3.30      0.00
   14    5   16     -0.50      0.00
   15    5   16     -1.17      0.00
   16    5   16     -1.94      0.00
   17    5   16     -0.92      0.00
   18    5   16     -2.72      0.00
    0    6   16     -8.34      0.00
    1    6   16      1.94      0.00
    2    6   16     -4.08      0.00
    3    6   16    -11.42      0.00
    4    6   16      5.94      0.00
    5    6   16      4.90      0.00
    6    6   16     -2.28      0.00
    7    6   16     -2.33      0.00
    8    6   16      1.07      0.00
    9    6   16     -0.80      0.00
   10    6   16      3.80      0.00
   11    6   16     -3.13      0.00
   12    6   16     -1.05      0.00
   13    6   16     -3.94      0.00
   14    6   16     -3.12      0.00
   15    6   16      0.14      0.00
   16    6   16      1.51      0.00
   17    6   16      1.00      0.00
   18    6   16     -0.21      0.00
    1    7   16      3.09      0.00
    2    7   16     -0.87      0.00
    3    7   16      1.51      0.00
    4    7   16     10.24      0.00
    5    7   16      1.72      0.00
    6    7   16     -0.06      0.00
    7    7   16     -0.56      0.00
    8    7   16      0.13      0.00
    9    7   16      1.47      0.00
   10    7   16      7.77      0.00
   11    7   16     -1.14      0.00
   12    7   16      1.49      0.00
   13    7   16     -1.01      0.00
   14    7   16     -2.87      0.00
   15    7   16     -2.94      0.00
   16    7   16      1.87      0.00
   17    7   16     -0.14      0.00
   18    7   16     -2.05      0.00
    0    8   16      3.14      0.00
    1    8   16     -2.25      0.00
    2    8   16      1.77      0.00
    3    8   16     -3.86      0.00
    4    8   16     -1.32      0.00
    5    8   16      1.85      0.00
    6    8   16      5.08      0.00
    7    8   16     -3.12      0.00
    8    8   16     -5.94      0.00
    9    8   16     -3.30      0.00
   10    8   16     -0.87      0.00
   11    8   16     -0.59      0.00
   12    8   16      4.27      0.00
   13    8   16      1.77      0.00
   14    8   16     -0.95      0.00
   15    8   16     -0.83      0.00
   16    8   16      0.33      0.00
   17    8   16     -1.68      0.00
    1    9   16     -3.89      0.00
    2    9   16     -1.65      0.00
    3    9   16      0.39      0.00
    4    9   16     -2.81      0.00
    5    9   16      3.86      0.00
    6    9   16      1.91      0.00
    7    9   16     -1.40      0.00
    8    9   16     -3.74      0.00
    9    9   16      0.55      0.00
   10    9   16     -0.30      0.00
   11    9   16     -0.42      0.00
   12    9   16     -0.13      0.00
   13    9   16     -1.01      0.00
   14    9   16     -4.08      0.00
   15    9   16     -1.63      0.00
   16    9   16      1.21      0.00
   17    9   16     -0.32      0.00
    0   10   16      3.02      0.00
    1   10   16     -5.94      0.00
    2   10   16     -3.41      0.00
    3   10   16      4.02      0.00
    4   10   16     -3.51      0.00
    5   10   16     -2.34      0.00
    6   10   16      2.32      0.00
    7   10   16     -0.37      0.00
    8   10   16     -3.43      0.00
    9   10   16      2.28      0.00
   10   10   16      1.16      0.00
   11   10   16      0.87      0.00
   12   10   16      1.92      0.00
   13   10   16      2.05      0.00
   14   10   16     -3.09      0.00
   15   10   16     -0.67      0.00
   16   10   16     -2.77      0.00
   17   10   16     -1.92      0.00
    1   11   16      2.83      0.00
    2   11   16      4.83      0.00
    3   11   16     -0.47      0.00
    4   11   16     -6.36      0.00
    5   11   16      0.24      0.00
    6   11   16      3.43      0.00
    7   11   16      1.28      0.00
    8   11   16     -2.59      0.00
    9   11   16     -1.88      0.00
   10   11   16     -2.76      0.00
   11   11   16      1.40      0.00
   12   11   16      1.71      0.00
   13   11   16      0.34      0.00
   14   11   16     -2.51      0.00
   15   11   16      0.97      0.00
   16   11   16      1.85      0.00
    0   12   16      0.58      0.00
    1   12   16     -6.32      0.00
    2   12   16      0.78      0.00
    3   12   16      1.77      0.00
    4   12   16      4.94      0.00
    5   12   16     -0.69      0.00
    6   12   16     -1.63      0.00
    7   12   16      0.38      0.00
    8   12   16     -0.38      0.00
    9   12   16      1.09      0.00
   10   12   16      0.85      0.00
   11   12   16     -1.31      0.00
   12   12   16      1.79      0.00
   13   12   16      1.61      0.00
   14   12   16     -0.85      0.00
   15   12   16     -1.35      0.00
   16   12   16     -1.05      0.00
    1   13   16     -0.86      0.00
    2   13   16      2.60      0.00
    3   13   16     -2.05      0.00
    4   13   16     -1.21      0.00
    5   13   16     -3.64      0.00
    6   13   16      0.20      0.00
    7   13   16      3.02      0.00
    8   13   16      3.79      0.00
    9   13   16     -2.10      0.00
   10   13   16     -2.80      0.00
   11   13   16      0.33      0.00
   12   13   16      1.51      0.00
   13   13   16     -1.84      0.00
   14   13   16     -2.01      0.00
   15   13   16     -0.79      0.00
    0   14   16     -3.03      0.00
    1   14   16     -2.92      0.00
    2   14   16     -0.47      0.00
    3   14   16     -2.06      0.00
    4   14   16      1.24      0.00
    5   14   16     -1.58      0.00
    6   14   16     -2.85      0.00
    7   14   16     -0.16      0.00
    8   14   16     -0.27      0.00
    9   14   16     -1.29      0.00
   10   14   16      1.58      0.00
   11   14   16     -0.24      0.00
   12   14   16     -0.63      0.00
   13   14   16     -0.08      0.00
   14   14   16      0.42      0.00
   15   14   16     -0.48      0.00
    1   15   16      1.56      0.00
    2   15   16      1.39      0.00
    3   15   16      1.72      0.00
    4   15   16      1.95      0.00
    5   15   16      2.44      0.00
    6   15   16      0.37      0.00
    7   15   16      0.36      0.00
    8   15   16      6.82      0.00
    9   15   16     -0.79      0.00
   10   15   16     -1.04      0.00
   11   15   16     -2.87      0.00
   12   15   16      0.64      0.00
   13   15   16      0.02      0.00
   14   15   16     -0.35      0.00
    0   16   16     -4.20      0.00
    1   16   16     -2.77      0.00
    2   16   16      8.42      0.00
    3   16   16     -2.72      0.00
    4   16   16      0.75      0.00
    5   16   16     -0.69      0.00
    6   16   16     -1.78      0.00
    7   16   16     -3.66      0.00
    8   16   16      0.58      0.00
    9   16   16     -1.90      0.00
   10   16   16      0.43      0.00
   11   16   16     -0.45      0.00
   12   16   16      0.26      0.00
   13   16   16     -1.06      0.00
    1   17   16     -4.35      0.00
    2   17   16      2.54      0.00
    3   17   16     -2.85      0.00
    4   17   16      3.97      0.00
    5   17   16      1.30      0.00
    6   17   16      2.15      0.00
    7   17   16     -2.23      0.00
    8   17   16      4.32      0.00
    9   17   16     -1.09      0.00
   10   17   16     -0.39      0.00
   11   17   16     -1.74      0.00
   12   17   16      1.18      0.00
   13   17   16     -0.28      0.00
    0   18   16     -0.95      0.00
    1   18   16      0.09      0.00
    2   18   16      7.86      0.00
    3   18   16     -1.04      0.00
    4   18   16     -1.86      0.00
    5   18   16     -0.09      0.00
    6   18   16      1.31      0.00
    7   18   16     -1.58      0.00
    8   18   16      2.94      0.00
    9   18   16      2.71      0.00
   10   18   16     -0.21      0.00
   11   18   16     -3.01      0.00
   12   18   16     -1.71      0.00
    1   19   16     -3.14      0.00
    2   19   16     -0.69      0.00
    3   19   16      5.52      0.00
    4   19   16     -0.97      0.00
    5   19   16     -0.43      0.00
    6   19   16     -3.52      0.00
    7   19   16     -2.79      0.00
    8   19   16     -1.47      0.00
    9   19   16     -1.96      0.00
   10   19   16      0.31      0.00
   11   19   16      0.65      0.00
    0   20   16     -2.65      0.00
    1   20   16      4.15      0.00
    2   20   16      2.29      0.00
    3   20   16      2.85      0.00
    4   20   16     -0.48      0.00
    5   20   16      4.39      0.00
    6   20   16      1.88      0.00
    7   20   16      0.61      0.00
    8   20   16     -0.63      0.00
    9   20   16      2.47      0.00
   10   20   16      0.90      0.00
    1   21   16     -1.83      0.00
    2   21   16     -5.51      0.00
    3   21   16      1.77      0.00
    4   21   16     -1.21      0.00
    5   21   16     -0.81      0.00
    6   21   16     -2.46      0.00
    7   21   16     -0.93      0.00
    8   21   16     -0.27      0.00
    9   21   16      2.20      0.00
    0   22   16      1.11      0.00
    1   22   16      8.21      0.00
    2   22   16      0.76      0.00
    3   22   16      4.42      0.00
    4   22   16     -1.54      0.00
    5   22   16      3.81      0.00
    6   22   16      1.05      0.00
    7   22   16     -1.68      0.00
    1   23   16     -1.57      0.00
    2   23   16     -2.36      0.00
    3   23   16      2.67      0.00
    4   23   16     -0.02      0.00
    5   23   16     -2.28      0.00
    0   24   16      1.34      0.00
    1   24   16      2.22      0.00
    1    0   17    -13.45      0.00
    3    0   17     44.65      0.00
    5    0   17    -12.45      0.00
    7    0   17     -5.23      0.00
    9    0   17      1.04      0.00
   11    0   17     -0.10      0.00
   13    0   17      2.17      0.00
   15    0   17      3.67      0.00
   17    0   17      1.28      0.00
    0    1   17     30.49      0.00
    1    1   17     -7.83      0.00
    2    1   17      3.96      0.00
    3    1   17     -2.35      0.00
    4    1   17    -17.01      0.00
    5    1   17      8.81      0.00
    6    1   17      5.24      0.00
    7    1   17     -7.97      0.00
    8    1   17      0.96      0.00
    9    1   17     -2.00      0.00
   10    1   17     -5.34      0.00
   11    1   17     -0.37      0.00
   12    1   17      0.78      0.00
   13    1   17     -2.28      0.00
   14    1   17     -2.78      0.00
   15    1   17      1.34      0.00
   16    1   17      1.66      0.00
   17    1   17     -0.01      0.00
   18    1   17      1.41      0.00
    1    2   17    -15.87      0.00
    2    2   17      7.89      0.00
    3    2   17     15.70      0.00
    4    2   17     -2.13      0.00
    5    2   17    -10.22      0.00
    6    2   17     -6.91      0.00
    7    2   17     -0.86      0.00
    8    2   17     10.52      0.00
    9    2   17      0.13      0.00
   10    2   17     -0.08      0.00
   11    2   17      2.00      0.00
   12    2   17      0.10      0.00
   13    2   17      1.58      0.00
   14    2   17      0.94      0.00
   15    2   17     -2.53      0.00
   16    2   17     -1.36      0.00
   17    2   17     -0.26      0.00
   18    2   17     -0.94      0.00
    0    3   17      1.14      0.00
    1    3   17    -16.48      0.00
    2    3   17      7.82      0.00
    3    3   17    -12.03      0.00
    4    3   17     -7.68      0.00
    5    3   17      9.15      0.00
    6    3   17     -0.34      0.00
    7    3   17     -4.24      0.00
    8    3   17     -5.59      0.00
    9    3   17      1.15      0.00
   10    3   17      0.03      0.00
   11    3   17     -2.77      0.00
   12    3   17      0.76      0.00
   13    3   17      2.96      0.00
   14    3   17     -1.28      0.00
   15    3   17     -0.75      0.00
   16    3   17      3.02      0.00
   17    3   17     -1.02      0.00
   18    3   17      1.81      0.00
    1    4   17     10.87      0.00
    2    4   17      0.73      0.00
    3    4   17      9.33      0.00
    4    4   17      1.04      0.00
    5    4   17     -0.18      0.00
    6    4   17     -4.03      0.00
    7    4   17      1.51      0.00
    8    4   17      3.77      0.00
    9    4   17     -0.69      0.00
   10    4   17     -1.39      0.00
   11    4   17      1.74      0.00
   12    4   17      0.45      0.00
   13    4   17     -1.52      0.00
   14    4   17      0.32      0.00
   15    4   17      0.61      0.00
   16    4   17     -0.27      0.00
   17    4   17      0.93      0.00
   18    4   17     -1.46      0.00
    0    5   17     -5.19      0.00
    1    5   17     -7.91      0.00
    2    5   17      0.10      0.00
    3    5   17     -0.50      0.00
    4    5   17     -5.81      0.00
    5    5   17     -1.56      0.00
    6    5   17      5.19      0.00
    7    5   17     -3.16      0.00
    8    5   17     -3.66      0.00
    9    5   17     -0.15      0.00
   10    5   17     -1.33      0.00
   11    5   17     -3.51      0.00
   12    5   17     -0.05      0.00
   13    5   17      3.33      0.00
   14    5   17      0.54      0.00
   15    5   17     -3.30      0.00
   16    5   17     -1.79      0.00
   17    5   17     -0.14      0.00
   18    5   17      0.64      0.00
    1    6   17     -2.10      0.00
    2    6   17     -3.67      0.00
    3    6   17     -3.21      0.00
    4    6   17     -6.86      0.00
    5    6   17     -1.05      0.00
    6    6   17      5.33      0.00
    7    6   17     -1.11      0.00
    8    6   17      6.12      0.00
    9    6   17     -0.13      0.00
   10    6   17     -3.05      0.00
   11    6   17      1.46      0.00
   12    6   17     -1.92      0.00
   13    6   17     -0.82      0.00
   14    6   17      0.90      0.00
   15    6   17     -0.21      0.00
   16    6   17     -1.17      0.00
   17    6   17     -0.09      0.00
   18    6   17      1.60      0.00
    0    7   17     -2.30      0.00
    1    7   17     -4.45      0.00
    2    7   17      2.41      0.00
    3    7   17      4.92      0.00
    4    7   17      2.98      0.00
    5    7   17     -0.43      0.00
    6    7   17     -0.63      0.00
    7    7   17      0.30      0.00
    8    7   17     -0.01      0.00
    9    7   17      0.52      0.00
   10    7   17      1.17      0.00
   11    7   17      1.92      0.00
   12    7   17     -0.20      0.00
   13    7   17      1.45      0.00
   14    7   17      0.98      0.00
   15    7   17     -1.91      0.00
   16    7   17     -3.12      0.00
   17    7   17     -1.37      0.00
    1    8   17      4.62      0.00
    2    8   17      3.83      0.00
    3    8   17      0.51      0.00
    4    8   17     -8.67      0.00
    5    8   17     -0.43      0.00
    6    8   17      0.26      0.00
    7    8   17      3.13      0.00
    8    8   17      4.99      0.00
    9    8   17     -2.44      0.00
   10    8   17     -5.79      0.00
   11    8   17     -3.04      0.00
   12    8   17     -3.20      0.00
   13    8   17      0.97      0.00
   14    8   17      0.75      0.00
   15    8   17      2.83      0.00
   16    8   17      0.04      0.00
   17    8   17     -0.13      0.00
    0    9   17     -8.02      0.00
    1    9   17     -4.44      0.00
    2    9   17     -2.79      0.00
    3    9   17     -2.51      0.00
    4    9   17      5.52      0.00
    5    9   17      3.68      0.00
    6    9   17     -3.95      0.00
    7    9   17     -2.69      0.00
    8    9   17      1.44      0.00
    9    9   17     -1.28      0.00
   10    9   17      0.99      0.00
   11    9   17     -0.48      0.00
   12    9   17     -1.36      0.00
   13    9   17     -0.43      0.00
   14    9   17     -0.05      0.00
   15    9   17     -2.08      0.00
   16    9   17     -1.22      0.00
   17    9   17      0.34      0.00
    1   10   17     -1.17      0.00
    2   10   17      5.54      0.00
    3   10   17     -0.22      0.00
    4   10   17     -3.31      0.00
    5   10   17     -4.63      0.00
    6   10   17     -3.56      0.00
    7   10   17     -0.47      0.00
    8   10   17      3.09      0.00
    9   10   17      0.71      0.00
   10   10   17      0.30      0.00
   11   10   17     -2.00      0.00
   12   10   17     -1.64      0.00
   13   10   17      1.02      0.00
   14   10   17      2.21      0.00
   15   10   17      0.25      0.00
   16   10   17     -0.74      0.00
    0   11   17     -2.80      0.00
    1   11   17      0.84      0.00
    2   11   17      1.98      0.00
    3   11   17     -2.83      0.00
    4   11   17      3.49      0.00
    5   11   17      4.51      0.00
    6   11   17     -1.21      0.00
    7   11   17     -1.88      0.00
    8   11   17      0.20      0.00
    9   11   17      1.37      0.00
   10   11   17     -0.20      0.00
   11   11   17     -0.29      0.00
   12   11   17     -2.54      0.00
   13   11   17     -3.88      0.00
   14   11   17      1.03      0.00
   15   11   17     -1.08      0.00
   16   11   17      2.06      0.00
    1   12   17      4.36      0.00
    2   12   17      0.04      0.00
    3   12   17      0.07      0.00
    4   12   17      2.86      0.00
    5   12   17      0.50      0.00
    6   12   17     -0.23      0.00
    7   12   17     -1.86      0.00
    8   12   17      0.31      0.00
    9   12   17      3.15      0.00
   10   12   17      0.04      0.00
   11   12   17     -0.11      0.00
   12   12   17     -1.42      0.00
   13   12   17      3.12      0.00
   14   12   17      1.06      0.00
   15   12   17     -0.37      0.00
   16   12   17     -1.31      0.00
    0   13   17     -5.75      0.00
    1   13   17      2.45      0.00
    2   13   17      1.51      0.00
    3   13   17     -2.54      0.00
    4   13   17     -1.06      0.00
    5   13   17      0.77      0.00
    6   13   17     -2.21      0.00
    7   13   17     -4.46      0.00
    8   13   17     -2.05      0.00
    9   13   17      2.21      0.00
   10   13   17     -0.33      0.00
   11   13   17      1.63      0.00
   12   13   17     -2.36      0.00
   13   13   17     -2.73      0.00
   14   13   17     -0.99      0.00
   15   13   17      0.95      0.00
    1   14   17     -0.29      0.00
    2   14   17     -1.29      0.00
    3   14   17     -5.62      0.00
    4   14   17     -2.59      0.00
    5   14   17      0.01      0.00
    6   14   17      1.58      0.00
    7   14   17      0.12      0.00
    8   14   17     -0.55      0.00
    9   14   17     -1.62      0.00
   10   14   17      0.91      0.00
   11   14   17     -0.23      0.00
   12   14   17     -0.93      0.00
   13   14   17     -0.30      0.00
   14   14   17      1.48      0.00
   15   14   17      1.58      0.00
    0   15   17      5.13      0.00
    1   15   17      1.20      0.00
    2   15   17      0.02      0.00
    3   15   17      1.62      0.00
    4   15   17      2.96      0.00
    5   15   17      0.15      0.00
    6   15   17     -2.46      0.00
    7   15   17      0.66      0.00
    8   15   17     -0.11      0.00
    9   15   17      2.80      0.00
   10   15   17      1.54      0.00
   11   15   17      0.02      0.00
   12   15   17     -0.02      0.00
   13   15   17     -2.67      0.00
   14   15   17     -0.83      0.00
    1   16   17      3.31      0.00
    2   16   17     -1.21      0.00
    3   16   17      3.37      0.00
    4   16   17     -2.43      0.00
    5   16   17      0.44      0.00
    6   16   17      2.18      0.00
    7   16   17      2.11      0.00
    8   16   17     -2.23      0.00
    9   16   17     -0.57      0.00
   10   16   17      1.76      0.00
   11   16   17      0.72      0.00
   12   16   17     -1.12      0.00
   13   16   17      1.03      0.00
    0   17   17      1.44      0.00
    1   17   17      0.93      0.00
    2   17   17     -4.70      0.00
    3   17   17      2.31      0.00
    4   17   17      1.46      0.00
    5   17   17      0.07      0.00
    6   17   17      1.24      0.00
    7   17   17      1.62      0.00
    8   17   17     -2.81      0.00
    9   17   17      1.23      0.00
   10   17   17      0.14      0.00
   11   17   17      0.19      0.00
   12   17   17     -1.31      0.00
   13   17   17      0.79      0.00
    1   18   17     -0.01      0.00
    2   18   17     -1.08      0.00
    3   18   17     -2.31      0.00
    4   18   17     -1.04      0.00
    5   18   17      1.18      0.00
    6   18   17      1.10      0.00
    7   18   17      1.49      0.00
    8   18   17      0.12      0.00
    9   18   17      0.01      0.00
   10   18   17     -0.20      0.00
   11   18   17     -1.03      0.00
   12   18   17     -1.13      0.00
    0   19   17      1.69      0.00
    1   19   17      3.03      0.00
    2   19   17     -1.16      0.00
    3   19   17     -1.17      0.00
    4   19   17      2.44      0.00
    5   19   17      0.20      0.00
    6   19   17     -0.05      0.00
    7   19   17      0.61      0.00
    8   19   17     -0.95      0.00
    9   19   17     -0.16      0.00
   10   19   17     -1.22      0.00
   11   19   17      1.49      0.00
    1   20   17      3.14      0.00
    2   20   17      4.81      0.00
    3   20   17     -0.36      0.00
    4   20   17      2.29      0.00
    5   20   17      0.46      0.00
    6   20   17     -0.01      0.00
    7   20   17      1.47      0.00
    8   20   17     -0.14      0.00
    9   20   17     -1.46      0.00
   10   20   17     -2.94      0.00
    0   21   17     -0.54      0.00
    1   21   17     -4.05      0.00
    2   21   17     -1.28      0.00
    3   21   17      0.01      0.00
    4   21   17      2.76      0.00
    5   21   17     -3.53      0.00
    6   21   17      1.23      0.00
    7   21   17      0.29      0.00
    8   21   17      1.98      0.00
    1   22   17      0.85      0.00
    2   22   17      5.97      0.00
    3   22   17     -2.41      0.00
    4   22   17      2.84      0.00
    5   22   17     -0.82      0.00
    6   22   17      1.91      0.00
    7   22   17     -0.43      0.00
    0   23   17      0.35      0.00
    1   23   17     -2.06      0.00
    2   23   17     -0.89      0.00
    3   23   17      2.71      0.00
    4   23   17     -1.46      0.00
    5   23   17     -2.25      0.00
    0    0   18     35.83      0.00
    2    0   18      0.75      0.00
    4    0   18     -1.50      0.00
    6    0   18      8.15      0.00
    8    0   18     -3.04      0.00
   10    0   18      5.49      0.00
   12    0   18     -1.75      0.00
   14    0   18      1.73      0.00
   16    0   18     -0.09      0.00
   18    0   18     -0.20      0.00
    1    1   18      5.78      0.00
    2    1   18      6.08      0.00
    3    1   18    -10.61      0.00
    4    1   18      3.07      0.00
    5    1   18     -5.42      0.00
    6    1   18      4.63      0.00
    7    1   18     -2.90      0.00
    8    1   18     -4.04      0.00
    9    1   18      3.29      0.00
   10    1   18     -1.14      0.00
   11    1   18     -4.37      0.00
   12    1   18      1.99      0.00
   13    1   18     -2.29      0.00
   14    1   18     -0.45      0.00
   15    1   18      0.18      0.00
   16    1   18      2.52      0.00
   17    1   18      3.37      0.00
   18    1   18      0.62      0.00
    0    2   18      4.33      0.00
    1    2   18     -0.15      0.00
    2    2   18     -6.06      0.00
    3    2   18     -1.15      0.00
    4    2   18      0.28      0.00
    5    2   18     -5.68      0.00
    6    2   18     -0.61      0.00
    7    2   18      3.95      0.00
    8    2   18     -2.22      0.00
    9    2   18      1.59      0.00
   10    2   18      1.44      0.00
   11    2   18     -1.74      0.00
   12    2   18     -4.28      0.00
   13    2   18     -1.48      0.00
   14    2   18      3.32      0.00
   15    2   18     -0.35      0.00
   16    2   18     -0.15      0.00
   17    2   18     -1.31      0.00
   18    2   18      1.77      0.00
    1    3   18     22.02      0.00
    2    3   18     -0.18      0.00
    3    3   18    -11.13      0.00
    4    3   18     -5.04      0.00
    5    3   18     -2.37      0.00
    6    3   18      6.03      0.00
    7    3   18     -2.22      0.00
    8    3   18     -4.49      0.00
    9    3   18      0.53      0.00
   10    3   18      2.90      0.00
   11    3   18      1.08      0.00
   12    3   18      1.75      0.00
   13    3   18      0.34      0.00
   14    3   18     -2.03      0.00
   15    3   18     -0.69      0.00
   16    3   18      1.00      0.00
   17    3   18      1.03      0.00
   18    3   18     -0.88      0.00
    0    4   18      4.55      0.00
    1    4   18     -1.56      0.00
    2    4   18     -2.99      0.00
    3    4   18      2.00      0.00
    4    4   18     -1.43      0.00
    5    4   18     -3.17      0.00
    6    4   18     -3.76      0.00
    7    4   18      1.88      0.00
    8    4   18      3.79      0.00
    9    4   18     -4.29      0.00
   10    4   18      0.20      0.00
   11    4   18     -1.34      0.00
   12    4   18     -3.03      0.00
   13    4   18      0.81      0.00
   14    4   18      0.61      0.00
   15    4   18      1.01      0.00
   16    4   18      0.13      0.00
   17    4   18     -1.19      0.00
   18    4   18      1.00      0.00
    1    5   18      2.82      0.00
    2    5   18      6.81      0.00
    3    5   18      3.15      0.00
    4    5   18     -6.61      0.00
    5    5   18     -6.22      0.00
    6    5   18      0.63      0.00
    7    5   18     -0.92      0.00
    8    5   18      2.16      0.00
    9    5   18      2.48      0.00
   10    5   18      1.78      0.00
   11    5   18     -3.42      0.00
   12    5   18     -3.53      0.00
   13    5   18     -1.61      0.00
   14    5   18     -2.91      0.00
   15    5   18     -0.60      0.00
   16    5   18      4.09      0.00
   17    5   18      0.97      0.00
   18    5   18     -1.36      0.00
    0    6   18     21.38      0.00
    1    6   18     -9.82      0.00
    2    6   18     -7.01      0.00
    3    6   18     -3.61      0.00
    4    6   18     -3.30      0.00
    5    6   18      9.85      0.00
    6    6   18     -1.08      0.00
    7    6   18     -0.31      0.00
    8    6   18     -2.65      0.00
    9    6   18      0.62      0.00
   10    6   18      0.48      0.00
   11    6   18      3.89      0.00
   12    6   18      2.57      0.00
   13    6   18     -0.58      0.00
   14    6   18     -0.77      0.00
   15    6   18      0.59      0.00
   16    6   18     -0.54      0.00
   17    6   18     -1.28      0.00
   18    6   18     -0.89      0.00
    1    7   18     -4.71      0.00
    2    7   18      4.73      0.00
    3    7   18      6.16      0.00
    4    7   18     -9.22      0.00
    5    7   18     -7.28      0.00
    6    7   18     -2.74      0.00
    7    7   18      1.02      0.00
    8    7   18     -0.66      0.00
    9    7   18      0.52      0.00
   10    7   18     -1.17      0.00
   11    7   18      0.43      0.00
   12    7   18     -2.05      0.00
   13    7   18      0.27      0.00
   14    7   18     -1.36      0.00
   15    7   18     -1.32      0.00
   16    7   18     -0.08      0.00
   17    7   18      2.25      0.00
    0    8   18      6.75      0.00
    1    8   18     -4.27      0.00
    2    8   18     -2.17      0.00
    3    8   18     -3.22      0.00
    4    8   18      0.03      0.00
    5    8   18      6.47      0.00
    6    8   18      1.72      0.00
    7    8   18     -2.06      0.00
    8    8   18     -0.71      0.00
    9    8   18      3.12      0.00
   10    8   18      0.86      0.00
   11    8   18     -1.26      0.00
   12    8   18     -2.29      0.00
   13    8   18     -2.83      0.00
   14    8   18     -0.83      0.00
   15    8   18     -0.26      0.00
   16    8   18      1.07      0.00
   17    8   18      2.08      0.00
    1    9   18      1.57      0.00
    2    9   18     -2.03      0.00
    3    9   18     -5.74      0.00
    4    9   18      1.32      0.00
    5    9   18      0.32      0.00
    6    9   18      1.59      0.00
    7    9   18      0.71      0.00
    8    9   18     -1.31      0.00
    9    9   18     -1.44      0.00
   10    9   18      1.28      0.00
   11    9   18      2.62      0.00
   12    9   18     -0.24      0.00
   13    9   18      0.68      0.00
   14    9   18     -1.72      0.00
   15    9   18     -2.65      0.00
   16    9   18     -1.41      0.00
   17    9   18      2.34      0.00
    0   10   18     -4.00      0.00
    1   10   18      0.00      0.00
    2   10   18      3.36      0.00
    3   10   18      2.10      0.00
    4   10   18      0.08      0.00
    5   10   18      1.23      0.00
    6   10   18     -1.33      0.00
    7   10   18     -2.40      0.00
    8   10   18     -3.03      0.00
    9   10   18     -2.12      0.00
   10   10   18     -0.74      0.00
   11   10   18      0.27      0.00
   12   10   18      1.37      0.00
   13   10   18      0.29      0.00
   14   10   18      0.73      0.00
   15   10   18     -0.49      0.00
   16   10   18      1.40      0.00
    1   11   18      0.65      0.00
    2   11   18     -0.45      0.00
    3   11   18     -5.36      0.00
    4   11   18     -1.76      0.00
    5   11   18      2.21      0.00
    6   11   18      3.58      0.00
    7   11   18      1.48      0.00
    8   11   18      1.55      0.00
    9   11   18     -3.41      0.00
   10   11   18      0.47      0.00
   11   11   18      0.48      0.00
   12   11   18     -1.69      0.00
   13   11   18     -2.55      0.00
   14   11   18     -2.11      0.00
   15   11   18      0.01      0.00
   16   11   18     -1.18      0.00
    0   12   18      3.85      0.00
    1   12   18     -2.35      0.00
    2   12   18      0.56      0.00
    3   12   18      4.60      0.00
    4   12   18     -1.92      0.00
    5   12   18     -0.07      0.00
    6   12   18     -0.93      0.00
    7   12   18     -0.28      0.00
    8   12   18     -0.96      0.00
    9   12   18     -2.16      0.00
   10   12   18     -0.59      0.00
   11   12   18     -0.05      0.00
   12   12   18      2.82      0.00
   13   12   18      0.75      0.00
   14   12   18      0.24      0.00
   15   12   18     -2.33      0.00
   16   12   18      0.77      0.00
    1   13   18     -0.15      0.00
    2   13   18      1.10      0.00
    3   13   18      1.77      0.00
    4   13   18     -3.73      0.00
    5   13   18     -0.14      0.00
    6   13   18      0.33      0.00
    7   13   18     -1.07      0.00
    8   13   18     -1.98      0.00
    9   13   18     -0.32      0.00
   10   13   18      0.23      0.00
   11   13   18      0.17      0.00
   12   13   18      1.52      0.00
   13   13   18     -0.26      0.00
   14   13   18      0.97      0.00
   15   13   18     -0.42      0.00
    0   14   18     -1.26      0.00
    1   14   18      0.13      0.00
    2   14   18      0.16      0.00
    3   14   18      1.76      0.00
    4   14   18     -2.12      0.00
    5   14   18      0.04      0.00
    6   14   18     -0.65      0.00
    7   14   18      1.56      0.00
    8   14   18     -1.65      0.00
    9   14   18      0.80      0.00
   10   14   18     -2.40      0.00
   11   14   18     -1.01      0.00
   12   14   18      0.53      0.00
   13   14   18      1.53      0.00
   14   14   18      0.80      0.00
   15   14   18     -0.52      0.00
    1   15   18      1.43      0.00
    2   15   18     -1.31      0.00
    3   15   18     -2.17      0.00
    4   15   18      0.54      0.00
    5   15   18     -1.70      0.00
    6   15   18     -0.97      0.00
    7   15   18     -0.31      0.00
    8   15   18      0.85      0.00
    9   15   18      2.58      0.00
   10   15   18     -1.27      0.00
   11   15   18      1.10      0.00
   12   15   18      0.24      0.00
   13   15   18      0.19      0.00
   14   15   18     -1.57      0.00
    0   16   18     -5.22      0.00
    1   16   18      2.40      0.00
    2   16   18      6.08      0.00
    3   16   18     -1.32      0.00
    4   16   18      0.54      0.00
    5   16   18      1.40      0.00
    6   16   18     -0.84      0.00
    7   16   18      1.22      0.00
    8   16   18      1.30      0.00
    9   16   18      0.77      0.00
   10   16   18     -1.10      0.00
   11   16   18      1.08      0.00
   12   16   18      0.04      0.00
   13   16   18      0.01      0.00
    1   17   18      1.04      0.00
    2   17   18     -0.30      0.00
    3   17   18     -1.97      0.00
    4   17   18     -0.91      0.00
    5   17   18      1.32      0.00
    6   17   18     -2.92      0.00
    7   17   18      1.00      0.00
    8   17   18      2.87      0.00
    9   17   18     -0.48      0.00
   10   17   18     -1.04      0.00
   11   17   18      0.65      0.00
   12   17   18     -1.73      0.00
    0   18   18     -8.21      0.00
    1   18   18     -2.60      0.00
    2   18   18      2.76      0.00
    3   18   18      1.95      0.00
    4   18   18      2.85      0.00
    5   18   18     -1.18      0.00
    6   18   18     -1.56      0.00
    7   18   18      1.05      0.00
    8   18   18      0.48      0.00
    9   18   18     -1.70      0.00
   10   18   18     -0.33      0.00
   11   18   18      0.82      0.00
   12   18   18      0.05      0.00
    1   19   18     -0.52      0.00
    2   19   18      0.67      0.00
    3   19   18     -2.34      0.00
    4   19   18      2.55      0.00
    5   19   18      0.39      0.00
    6   19   18      1.82      0.00
    7   19   18      1.34      0.00
    8   19   18      3.81      0.00
    9   19   18      1.60      0.00
   10   19   18      1.18      0.00
   11   19   18     -1.45      0.00
    0   20   18     -0.17      0.00
    1   20   18      0.53      0.00
    2   20   18      3.62      0.00
    3   20   18      2.60      0.00
    4   20   18      1.52      0.00
    5   20   18     -4.10      0.00
    6   20   18     -1.57      0.00
    7   20   18     -1.42      0.00
    8   20   18     -1.62      0.00
    9   20   18     -1.80      0.00
   10   20   18      1.02      0.00
    1   21   18     -2.37      0.00
    2   21   18      0.59      0.00
    3   21   18      2.94      0.00
    4   21   18      2.78      0.00
    5   21   18      2.93      0.00
    6   21   18     -1.00      0.00
    7   21   18     -0.24      0.00
    8   21   18     -0.09      0.00
    0   22   18     -0.68      0.00
    1   22   18      2.16      0.00
    2   22   18     -0.97      0.00
    3   22   18     -2.57      0.00
    4   22   18      0.30      0.00
    5   22   18      0.71      0.00
    6   22   18     -1.32      0.00
    7   22   18      1.81      0.00
    1   23   18     -0.26      0.00
    2   23   18      1.43      0.00
    3   23   18     -0.07      0.00
    4   23   18      1.42      0.00
    1    0   19     10.22      0.00
    3    0   19     -6.80      0.00
    5    0   19     -1.40      0.00
    7    0   19      8.96      0.00
    9    0   19     -3.26      0.00
   11    0   19      5.26      0.00
   13    0   19     -0.89      0.00
   15    0   19     -3.95      0.00
   17    0   19     -0.32      0.00
    0    1   19    -16.63      0.00
    1    1   19      4.24      0.00
    2    1   19     -0.86      0.00
    3    1   19      6.13      0.00
    4    1   19      2.19      0.00
    5    1   19      2.44      0.00
    6    1   19    -10.18      0.00
    7    1   19      2.75      0.00
    8    1   19      1.16      0.00
    9    1   19     -0.69      0.00
   10    1   19     -3.16      0.00
   11    1   19      0.56      0.00
   12    1   19     -2.74      0.00
   13    1   19      4.03      0.00
   14    1   19      2.02      0.00
   15    1   19     -0.84      0.00
   16    1   19      2.70      0.00
   17    1   19      1.15      0.00
   18    1   19      1.87      0.00
    1    2   19     -5.92      0.00
    2    2   19     -7.69      0.00
    3    2   19     15.49      0.00
    4    2   19     -0.71      0.00
    5    2   19     -8.27      0.00
    6    2   19     -2.85      0.00
    7    2   19      0.30      0.00
    8    2   19      0.54      0.00
    9    2   19     -1.24      0.00
   10    2   19     -0.27      0.00
   11    2   19     -1.53      0.00
   12    2   19     -5.02      0.00
   13    2   19     -1.60      0.00
   14    2   19      0.40      0.00
   15    2   19      2.37      0.00
   16    2   19     -0.41      0.00
   17    2   19      2.70      0.00
   18    2   19     -0.90      0.00
    0    3   19     32.82      0.00
    1    3   19      4.49      0.00
    2    3   19     -2.26      0.00
    3    3   19      6.88      0.00
    4    3   19     -5.45      0.00
    5    3   19      6.89      0.00
    6    3   19      3.35      0.00
    7    3   19     -3.96      0.00
    8    3   19     -1.80      0.00
    9    3   19     -0.62      0.00
   10    3   19     -2.08      0.00
   11    3   19      2.98      0.00
   12    3   19      1.85      0.00
   13    3   19      1.09      0.00
   14    3   19      0.59      0.00
   15    3   19     -1.11      0.00
   16    3   19     -0.10      0.00
   17    3   19      0.34      0.00
   18    3   19     -1.84      0.00
    1    4   19    -18.39      0.00
    2    4   19     -0.83      0.00
    3    4   19      7.18      0.00
    4    4   19     -1.12      0.00
    5    4   19    -11.87      0.00
    6    4   19     -3.63      0.00
    7    4   19     -0.31      0.00
    8    4   19      1.44      0.00
    9    4   19     -0.58      0.00
   10    4   19     -3.62      0.00
   11    4   19     -1.47      0.00
   12    4   19     -1.59      0.00
   13    4   19     -0.67      0.00
   14    4   19      1.51      0.00
   15    4   19     -0.50      0.00
   16    4   19     -1.56      0.00
   17    4   19      2.82      0.00
   18    4   19      1.14      0.00
    0    5   19      4.61      0.00
    1    5   19      2.93      0.00
    2    5   19      5.74      0.00
    3    5   19     -1.55      0.00
    4    5   19      0.29      0.00
    5    5   19      5.41      0.00
    6    5   19     -3.38      0.00
    7    5   19      0.85      0.00
    8    5   19     -1.72      0.00
    9    5   19      3.51      0.00
   10    5   19      2.15      0.00
   11    5   19     -1.91      0.00
   12    5   19     -4.98      0.00
   13    5   19     -0.39      0.00
   14    5   19      0.96      0.00
   15    5   19      1.04      0.00
   16    5   19      1.80      0.00
   17    5   19      2.47      0.00
   18    5   19     -0.41      0.00
    1    6   19     12.47      0.00
    2    6   19     -1.53      0.00
    3    6   19     -5.77      0.00
    4    6   19      6.62      0.00
    5    6   19     -1.80      0.00
    6    6   19     -1.54      0.00
    7    6   19     -0.25      0.00
    8    6   19     -1.04      0.00
    9    6   19     -5.32      0.00
   10    6   19      2.76      0.00
   11    6   19      1.20      0.00
   12    6   19      3.33      0.00
   13    6   19      2.83      0.00
   14    6   19     -0.84      0.00
   15    6   19      0.32      0.00
   16    6   19     -1.23      0.00
   17    6   19      0.84      0.00
    0    7   19    -12.19      0.00
    1    7   19     -2.15      0.00
    2    7   19      1.90      0.00
    3    7   19     -5.03      0.00
    4    7   19     -2.94      0.00
    5    7   19     -5.19      0.00
    6    7   19     -1.88      0.00
    7    7   19     -0.24      0.00
    8    7   19     -0.46      0.00
    9    7   19     -4.35      0.00
   10    7   19     -0.75      0.00
   11    7   19     -5.76      0.00
   12    7   19     -1.68      0.00
   13    7   19      1.60      0.00
   14    7   19      1.22      0.00
   15    7   19     -1.45      0.00
   16    7   19      0.76      0.00
   17    7   19     -0.16      0.00
    1    8   19      1.15      0.00
    2    8   19      4.20      0.00
    3    8   19     -1.44      0.00
    4    8   19     -0.35      0.00
    5    8   19     -1.06      0.00
    6    8   19      1.93      0.00
    7    8   19     -0.29      0.00
    8    8   19      4.09      0.00
    9    8   19      1.38      0.00
   10    8   19      1.55      0.00
   11    8   19     -2.09      0.00
   12    8   19      0.06      0.00
   13    8   19     -1.65      0.00
   14    8   19     -0.83      0.00
   15    8   19      2.29      0.00
   16    8   19      1.68      0.00
   17    8   19     -2.88      0.00
    0    9   19      6.63      0.00
    1    9   19     -5.19      0.00
    2    9   19     -3.36      0.00
    3    9   19      2.81      0.00
    4    9   19     -3.92      0.00
    5    9   19      0.08      0.00
    6    9   19      1.58      0.00
    7    9   19      2.24      0.00
    8    9   19     -0.74      0.00
    9    9   19      0.39      0.00
   10    9   19     -1.40      0.00
   11    9   19      0.17      0.00
   12    9   19      2.26      0.00
   13    9   19     -0.41      0.00
   14    9   19      1.79      0.00
   15    9   19     -1.89      0.00
   16    9   19     -1.11      0.00
   17    9   19     -0.88      0.00
    1   10   19     -0.03      0.00
    2   10   19      5.44      0.00
    3   10   19      7.52      0.00
    4   10   19     -2.51      0.00
    5   10   19     -2.12      0.00
    6   10   19      0.79      0.00
    7   10   19      0.09      0.00
    8   10   19      0.89      0.00
    9   10   19      0.56      0.00
   10   10   19     -4.36      0.00
   11   10   19     -4.16      0.00
   12   10   19      0.42      0.00
   13   10   19      1.42      0.00
   14   10   19      0.12      0.00
   15   10   19      4.02      0.00
   16   10   19      1.30      0.00
    0   11   19     -1.14      0.00
    1   11   19     -0.17      0.00
    2   11   19     -4.78      0.00
    3   11   19     -0.59      0.00
    4   11   19      0.63      0.00
    5   11   19      1.42      0.00
    6   11   19     -2.04      0.00
    7   11   19     -0.50      0.00
    8   11   19     -1.47      0.00
    9   11   19      3.21      0.00
   10   11   19      0.03      0.00
   11   11   19     -2.52      0.00
   12   11   19     -1.06      0.00
   13   11   19     -0.47      0.00
   14   11   19     -0.25      0.00
   15   11   19     -0.27      0.00
   16   11   19     -0.64      0.00
    1   12   19     -0.17      0.00
    2   12   19      3.54      0.00
    3   12   19     -2.42      0.00
    4   12   19     -0.30      0.00
    5   12   19     -3.09      0.00
    6   12   19     -3.35      0.00
    7   12   19      1.41      0.00
    8   12   19      1.47      0.00
    9   12   19     -1.09      0.00
   10   12   19     -1.27      0.00
   11   12   19     -3.17      0.00
   12   12   19      0.72      0.00
   13   12   19      0.76      0.00
   14   12   19     -1.11      0.00
   15   12   19      3.32      0.00
    0   13   19     -1.56      0.00
    1   13   19     -1.21      0.00
    2   13   19      3.62      0.00
    3   13   19     -0.93      0.00
    4   13   19      5.11      0.00
    5   13   19      2.36      0.00
    6   13   19     -2.80      0.00
    7   13   19     -1.89      0.00
    8   13   19     -0.34      0.00
    9   13   19     -0.03      0.00
   10   13   19      2.43      0.00
   11   13   19      0.71      0.00
   12   13   19     -0.44      0.00
   13   13   19      0.51      0.00
   14   13   19      0.01      0.00
   15   13   19      1.20      0.00
    1   14   19      1.35      0.00
    2   14   19      5.35      0.00
    3   14   19     -1.00      0.00
    4   14   19      1.00      0.00
    5   14   19     -0.20      0.00
    6   14   19     -1.48      0.00
    7   14   19     -0.05      0.00
    8   14   19      2.25      0.00
    9   14   19     -0.95      0.00
   10   14   19     -0.31      0.00
   11   14   19     -0.37      0.00
   12   14   19     -1.36      0.00
   13   14   19      0.83      0.00
   14   14   19     -0.03      0.00
    0   15   19      0.11      0.00
    1   15   19     -3.68      0.00
    2   15   19     -1.72      0.00
    3   15   19     -0.10      0.00
    4   15   19     -0.91      0.00
    5   15   19     -0.13      0.00
    6   15   19     -0.28      0.00
    7   15   19     -2.71      0.00
    8   15   19     -0.43      0.00
    9   15   19     -0.91      0.00
   10   15   19      1.58      0.00
   11   15   19      1.02      0.00
   12   15   19      0.24      0.00
   13   15   19     -0.65      0.00
   14   15   19      0.06      0.00
    1   16   19     -1.88      0.00
    2   16   19      1.75      0.00
    3   16   19     -0.45      0.00
    4   16   19      1.07      0.00
    5   16   19     -0.21      0.00
    6   16   19      0.56      0.00
    7   16   19     -0.60      0.00
    8   16   19      1.83      0.00
    9   16   19      0.07      0.00
   10   16   19      0.88      0.00
   11   16   19     -0.49      0.00
   12   16   19      0.97      0.00
   13   16   19     -1.21      0.00
    0   17   19      6.75      0.00
    1   17   19      3.73      0.00
    2   17   19     -4.55      0.00
    3   17   19     -3.41      0.00
    4   17   19      1.11      0.00
    5   17   19     -2.95      0.00
    6   17   19     -0.18      0.00
    7   17   19     -1.21      0.00
    8   17   19      0.36      0.00
    9   17   19      0.77      0.00
   10   17   19      1.77      0.00
   11   17   19     -1.95      0.00
   12   17   19      0.93      0.00
    1   18   19     -0.17      0.00
    2   18   19     -0.62      0.00
    3   18   19      6.25      0.00
    4   18   19      3.53      0.00
    5   18   19      0.11      0.00
    6   18   19      0.06      0.00
    7   18   19      0.15      0.00
    8   18   19     -2.36      0.00
    9   18   19     -1.14      0.00
   10   18   19     -0.13      0.00
   11   18   19      1.41      0.00
    0   19   19      1.92      0.00
    1   19   19      5.19      0.00
    2   19   19     -5.64      0.00
    3   19   19     -3.22      0.00
    4   19   19     -2.41      0.00
    5   19   19      4.07      0.00
    6   19   19      1.64      0.00
    7   19   19      2.08      0.00
    8   19   19      1.55      0.00
    9   19   19      2.50      0.00
   10   19   19      0.24      0.00
    1   20   19      2.28      0.00
    2   20   19     -1.94      0.00
    3   20   19      1.52      0.00
    4   20   19     -2.77      0.00
    5   20   19      0.77      0.00
    6   20   19     -2.54      0.00
    7   20   19     -0.06      0.00
    8   20   19     -1.64      0.00
    9   20   19     -2.05      0.00
    0   21   19     -2.20      0.00
    1   21   19      6.66      0.00
    2   21   19      0.67      0.00
    3   21   19      1.17      0.00
    4   21   19     -0.87      0.00
    5   21   19      3.84      0.00
    6   21   19      0.81      0.00
    7   21   19     -0.83      0.00
    8   21   19     -0.63      0.00
    1   22   19      0.41      0.00
    2   22   19     -4.55      0.00
    3   22   19     -0.64      0.00
    4   22   19     -3.89      0.00
    5   22   19     -0.22      0.00
    6   22   19     -0.47      0.00
    0   23   19      0.87      0.00
    1   23   19      1.63      0.00
    2   23   19      0.24      0.00
    3   23   19      1.98      0.00
    4   23   19      0.50      0.00
    0    0   20     24.60      0.00
    2    0   20    -15.86      0.00
    4    0   20    -14.73      0.00
    6    0   20     13.42      0.00
    8    0   20     -1.04      0.00
   10    0   20     -1.76      0.00
   12    0   20     -0.87      0.00
   14    0   20     -0.86      0.00
   16    0   20     -3.27      0.00
   18    0   20     -1.31      0.00
    1    1   20    -11.31      0.00
    2    1   20      4.81      0.00
    3    1   20      7.80      0.00
    4    1   20     -1.09      0.00
    5    1   20     -4.77      0.00
    6    1   20      0.38      0.00
    7    1   20     -6.21      0.00
    8    1   20      3.87      0.00
    9    1   20      2.25      0.00
   10    1   20     -0.03      0.00
   11    1   20     -1.31      0.00
   12    1   20      1.52      0.00
   13    1   20      1.62      0.00
   14    1   20     -0.18      0.00
   15    1   20      1.62      0.00
   16    1   20     -1.10      0.00
   17    1   20      1.48      0.00
   18    1   20      1.42      0.00
    0    2   20      9.28      0.00
    1    2   20     -7.05      0.00
    2    2   20      0.68      0.00
    3    2   20     -5.28      0.00
    4    2   20     -6.65      0.00
    5    2   20      3.94      0.00
    6    2   20      3.97      0.00
    7    2   20     -4.43      0.00
    8    2   20     -1.18      0.00
    9    2   20     -1.80      0.00
   10    2   20      0.24      0.00
   11    2   20     -0.42      0.00
   12    2   20     -3.86      0.00
   13    2   20     -1.81      0.00
   14    2   20      0.24      0.00
   15    2   20      2.76      0.00
   16    2   20      1.36      0.00
   17    2   20     -0.06      0.00
   18    2   20      0.04      0.00
    1    3   20      9.42      0.00
    2    3   20     20.28      0.00
    3    3   20     -8.89      0.00
    4    3   20      5.45      0.00
    5    3   20      0.58      0.00
    6    3   20     -0.43      0.00
    7    3   20      0.94      0.00
    8    3   20      1.64      0.00
    9    3   20     -1.47      0.00
   10    3   20      0.19      0.00
   11    3   20     -1.20      0.00
   12    3   20      0.02      0.00
   13    3   20      1.31      0.00
   14    3   20     -2.54      0.00
   15    3   20     -1.29      0.00
   16    3   20      1.34      0.00
   17    3   20      0.11      0.00
   18    3   20      0.35      0.00
    0    4   20    -10.07      0.00
    1    4   20    -11.61      0.00
    2    4   20     -7.16      0.00
    3    4   20     -3.28      0.00
    4    4   20     -6.13      0.00
    5    4   20     -0.41      0.00
    6    4   20     -0.52      0.00
    7    4   20     -1.17      0.00
    8    4   20     -4.68      0.00
    9    4   20     -1.56      0.00
   10    4   20     -1.48      0.00
   11    4   20     -0.25      0.00
   12    4   20      0.01      0.00
   13    4   20      0.53      0.00
   14    4   20      0.18      0.00
   15    4   20     -0.73      0.00
   16    4   20      0.36      0.00
   17    4   20      0.23      0.00
   18    4   20      1.56      0.00
    1    5   20      7.07      0.00
    2    5   20     12.12      0.00
    3    5   20      1.57      0.00
    4    5   20     -4.24      0.00
    5    5   20     -3.14      0.00
    6    5   20      5.89      0.00
    7    5   20     -2.45      0.00
    8    5   20      2.22      0.00
    9    5   20      2.81      0.00
   10    5   20     -0.20      0.00
   11    5   20      0.02      0.00
   12    5   20     -1.44      0.00
   13    5   20     -1.37      0.00
   14    5   20      1.04      0.00
   15    5   20      1.00      0.00
   16    5   20      1.65      0.00
   17    5   20     -0.24      0.00
    0    6   20     17.70      0.00
    1    6   20     -3.99      0.00
    2    6   20     -4.04      0.00
    3    6   20      6.58      0.00
    4    6   20     -5.30      0.00
    5    6   20     -1.62      0.00
    6    6   20      0.75      0.00
    7    6   20     -4.14      0.00
    8    6   20     -1.22      0.00
    9    6   20     -0.09      0.00
   10    6   20     -3.85      0.00
   11    6   20      2.45      0.00
   12    6   20      1.64      0.00
   13    6   20      0.38      0.00
   14    6   20      2.09      0.00
   15    6   20     -0.41      0.00
   16    6   20      0.50      0.00
   17    6   20     -0.38      0.00
    1    7   20     -2.55      0.00
    2    7   20      0.44      0.00
    3    7   20      0.29      0.00
    4    7   20     -5.67      0.00
    5    7   20     -4.22      0.00
    6    7   20      1.94      0.00
    7    7   20     -0.13      0.00
    8    7   20      0.46      0.00
    9    7   20      1.18      0.00
   10    7   20     -2.98      0.00
   11    7   20     -3.10      0.00
   12    7   20     -2.83      0.00
   13    7   20     -1.37      0.00
   14    7   20      0.84      0.00
   15    7   20      0.08      0.00
   16    7   20      1.26      0.00
   17    7   20      0.87      0.00
    0    8   20      2.83      0.00
    1    8   20      4.59      0.00
    2    8   20     -0.28      0.00
    3    8   20      2.03      0.00
    4    8   20      0.82      0.00
    5    8   20      3.16      0.00
    6    8   20     -6.27      0.00
    7    8   20     -1.23      0.00
    8    8   20     -1.00      0.00
    9    8   20      2.44      0.00
   10    8   20      2.27      0.00
   11    8   20      1.19      0.00
   12    8   20      0.58      0.00
   13    8   20      0.25      0.00
   14    8   20     -0.40      0.00
   15    8   20      0.95      0.00
   16    8   20      0.69      0.00
   17    8   20      0.25      0.00
    1    9   20      2.80      0.00
    2    9   20     -1.04      0.00
    3    9   20     -5.84      0.00
    4    9   20     -0.48      0.00
    5    9   20     -2.40      0.00
    6    9   20     -0.17      0.00
    7    9   20      1.97      0.00
    8    9   20      0.42      0.00
    9    9   20     -2.14      0.00
   10    9   20      2.53      0.00
   11    9   20     -0.85      0.00
   12    9   20     -0.76      0.00
   13    9   20      1.15      0.00
   14    9   20     -0.68      0.00
   15    9   20      0.38      0.00
   16    9   20      0.52      0.00
    0   10   20     -2.19      0.00
    1   10   20     -1.69      0.00
    2   10   20      6.52      0.00
    3   10   20     -1.60      0.00
    4   10   20      2.59      0.00
    5   10   20      5.25      0.00
    6   10   20     -0.83      0.00
    7   10   20     -1.14      0.00
    8   10   20      0.35      0.00
    9   10   20     -0.63      0.00
   10   10   20      1.17      0.00
   11   10   20     -0.59      0.00
   12   10   20     -1.50      0.00
   13   10   20     -1.24      0.00
   14   10   20     -0.69      0.00
   15   10   20     -0.33      0.00
   16   10   20      1.49      0.00
    1   11   20      0.21      0.00
    2   11   20     -0.07      0.00
    3   11   20     -5.98      0.00
    4   11   20     -0.37      0.00
    5   11   20      1.57      0.00
    6   11   20      0.26      0.00
    7   11   20     -2.25      0.00
    8   11   20     -3.10      0.00
    9   11   20     -0.70      0.00
   10   11   20      1.34      0.00
   11   11   20      2.18      0.00
   12   11   20     -0.41      0.00
   13   11   20      1.23      0.00
   14   11   20      1.71      0.00
   15   11   20     -1.23      0.00
   16   11   20      0.51      0.00
    0   12   20     -3.33      0.00
    1   12   20     -0.37      0.00
    2   12   20      1.02      0.00
    3   12   20      2.18      0.00
    4   12   20     -4.39      0.00
    5   12   20      0.02      0.00
    6   12   20      2.58      0.00
    7   12   20     -0.47      0.00
    8   12   20     -0.95      0.00
    9   12   20     -0.74      0.00
   10   12   20     -2.88      0.00
   11   12   20      2.14      0.00
   12   12   20     -0.57      0.00
   13   12   20     -0.60      0.00
   14   12   20      0.86      0.00
   15   12   20     -0.05      0.00
    1   13   20      3.00      0.00
    2   13   20     -3.24      0.00
    3   13   20     -1.35      0.00
    4   13   20      0.21      0.00
    5   13   20      2.51      0.00
    6   13   20      4.88      0.00
    7   13   20     -0.43      0.00
    8   13   20     -2.06      0.00
    9   13   20     -0.59      0.00
   10   13   20     -0.04      0.00
   11   13   20      1.34      0.00
   12   13   20      0.23      0.00
   13   13   20      0.63      0.00
   14   13   20      0.59      0.00
   15   13   20     -2.04      0.00
    0   14   20      0.34      0.00
    1   14   20      5.84      0.00
    2   14   20      1.72      0.00
    3   14   20      2.42      0.00
    4   14   20     -0.83      0.00
    5   14   20     -2.40      0.00
    6   14   20      0.37      0.00
    7   14   20     -0.71      0.00
    8   14   20      1.39      0.00
    9   14   20     -1.06      0.00
   10   14   20     -0.53      0.00
   11   14   20     -1.01      0.00
   12   14   20      1.61      0.00
   13   14   20     -0.38      0.00
   14   14   20      0.04      0.00
    1   15   20     -0.13      0.00
    2   15   20     -1.97      0.00
    3   15   20     -1.47      0.00
    4   15   20     -0.48      0.00
    5   15   20      1.03      0.00
    6   15   20      1.51      0.00
    7   15   20      1.89      0.00
    8   15   20     -3.59      0.00
    9   15   20     -1.94      0.00
   10   15   20     -0.23      0.00
   11   15   20      0.79      0.00
   12   15   20     -0.02      0.00
   13   15   20      2.21      0.00
   14   15   20      1.90      0.00
    0   16   20     -4.71      0.00
    1   16   20     -0.74      0.00
    2   16   20      1.33      0.00
    3   16   20      2.55      0.00
    4   16   20     -3.21      0.00
    5   16   20     -0.98      0.00
    6   16   20     -0.17      0.00
    7   16   20      1.45      0.00
    8   16   20     -0.58      0.00
    9   16   20      0.04      0.00
   10   16   20      0.24      0.00
   11   16   20      0.17      0.00
   12   16   20     -0.83      0.00
   13   16   20      1.83      0.00
    1   17   20      0.54      0.00
    2   17   20      1.48      0.00
    3   17   20     -4.11      0.00
    4   17   20     -3.00      0.00
    5   17   20      0.23      0.00
    6   17   20      0.94      0.00
    7   17   20      0.72      0.00
    8   17   20     -1.10      0.00
    9   17   20      1.92      0.00
   10   17   20     -1.80      0.00
   11   17   20      0.66      0.00
   12   17   20     -1.90      0.00
    0   18   20     -2.24      0.00
    1   18   20     -2.85      0.00
    2   18   20     10.09      0.00
    3   18   20      4.14      0.00
    4   18   20     -2.15      0.00
    5   18   20     -0.46      0.00
    6   18   20      0.36      0.00
    7   18   20     -1.05      0.00
    8   18   20     -0.66      0.00
    9   18   20     -0.68      0.00
   10   18   20     -0.16      0.00
   11   18   20      0.36      0.00
    1   19   20     -1.86      0.00
    2   19   20     -0.29      0.00
    3   19   20     -4.53      0.00
    4   19   20     -0.61      0.00
    5   19   20      0.90      0.00
    6   19   20      0.83      0.00
    7   19   20     -0.29      0.00
    8   19   20      2.69      0.00
    9   19   20      0.26      0.00
   10   19   20     -1.38      0.00
    0   20   20      0.63      0.00
    1   20   20     -6.46      0.00
    2   20   20      1.38      0.00
    3   20   20      0.35      0.00
    4   20   20      2.67      0.00
    5   20   20     -4.92      0.00
    6   20   20     -0.48      0.00
    7   20   20      0.10      0.00
    8   20   20      0.54      0.00
    9   20   20     -0.62      0.00
    1   21   20      0.15      0.00
    2   21   20      2.27      0.00
    3   21   20     -1.67      0.00
    4   21   20      2.73      0.00
    5   21   20     -2.37      0.00
    6   21   20      1.92      0.00
    7   21   20     -0.22      0.00
    8   21   20      0.67      0.00
    0   22   20      0.52      0.00
    1   22   20     -5.68      0.00
    2   22   20     -0.06      0.00
    3   22   20     -1.76      0.00
    4   22   20      1.48      0.00
    5   22   20     -4.37      0.00
    6   22   20      0.50      0.00
    1   23   20      0.28      0.00
    2   23   20      0.01      0.00
    3   23   20      1.24      0.00
    1    0   21     -7.96      0.00
    3    0   21      0.36      0.00
    5    0   21     -1.69      0.00
    7    0   21     -0.45      0.00
    9    0   21     -3.43      0.00
   11    0   21     -2.55      0.00
   13    0   21      0.96      0.00
   15    0   21     -1.39      0.00
   17    0   21      0.76      0.00
    0    1   21     -2.98      0.00
    1    1   21     -3.66      0.00
    2    1   21     -4.23      0.00
    3    1   21     -0.93      0.00
    4    1   21      4.18      0.00
    5    1   21     -3.32      0.00
    6    1   21     -0.75      0.00
    7    1   21      0.46      0.00
    8    1   21     -3.58      0.00
    9    1   21      1.13      0.00
   10    1   21      0.11      0.00
   11    1   21     -0.41      0.00
   12    1   21      0.34      0.00
   13    1   21      0.21      0.00
   14    1   21      2.48      0.00
   15    1   21     -1.98      0.00
   16    1   21      1.19      0.00
   17    1   21     -0.32      0.00
   18    1   21     -0.04      0.00
    1    2   21     -4.10      0.00
    2    2   21      2.90      0.00
    3    2   21      1.94      0.00
    4    2   21     -1.61      0.00
    5    2   21     -1.87      0.00
    6    2   21      3.51      0.00
    7    2   21      1.35      0.00
    8    2   21     -4.52      0.00
    9    2   21     -1.68      0.00
   10    2   21     -0.14      0.00
   11    2   21      0.77      0.00
   12    2   21      2.18      0.00
   13    2   21     -0.64      0.00
   14    2   21      0.59      0.00
   15    2   21     -0.99      0.00
   16    2   21      1.39      0.00
   17    2   21     -0.03      0.00
   18    2   21     -0.29      0.00
    0    3   21     -5.14      0.00
    1    3   21      9.56      0.00
    2    3   21     -6.12      0.00
    3    3   21     10.28      0.00
    4    3   21      3.44      0.00
    5    3   21     -2.66      0.00
    6    3   21     -3.75      0.00
    7    3   21      1.62      0.00
    8    3   21      1.75      0.00
    9    3   21      2.27      0.00
   10    3   21     -2.82      0.00
   11    3   21     -3.59      0.00
   12    3   21     -4.37      0.00
   13    3   21      0.61      0.00
   14    3   21      3.90      0.00
   15    3   21     -0.98      0.00
   16    3   21      0.05      0.00
   17    3   21     -0.12      0.00
   18    3   21      1.12      0.00
    1    4   21     -4.85      0.00
    2    4   21    -10.67      0.00
    3    4   21      5.35      0.00
    4    4   21      0.53      0.00
    5    4   21     -3.02      0.00
    6    4   21     -0.11      0.00
    7    4   21     -2.04      0.00
    8    4   21     -1.68      0.00
    9    4   21     -4.32      0.00
   10    4   21      3.68      0.00
   11    4   21     -0.03      0.00
   12    4   21      1.14      0.00
   13    4   21      0.73      0.00
   14    4   21     -2.18      0.00
   15    4   21      2.28      0.00
   16    4   21      1.66      0.00
   17    4   21      0.79      0.00
    0    5   21      1.94      0.00
    1    5   21      9.81      0.00
    2    5   21     -0.07      0.00
    3    5   21      4.09      0.00
    4    5   21      3.35      0.00
    5    5   21      3.59      0.00
    6    5   21     -4.19      0.00
    7    5   21     -3.43      0.00
    8    5   21      1.31      0.00
    9    5   21     -2.29      0.00
   10    5   21      1.72      0.00
   11    5   21     -0.52      0.00
   12    5   21      0.13      0.00
   13    5   21      2.51      0.00
   14    5   21      0.97      0.00
   15    5   21     -0.02      0.00
   16    5   21      0.40      0.00
   17    5   21     -1.22      0.00
    1    6   21     -4.98      0.00
    2    6   21      1.85      0.00
    3    6   21     -0.02      0.00
    4    6   21      0.54      0.00
    5    6   21     -5.21      0.00
    6    6   21     -6.98      0.00
    7    6   21      2.81      0.00
    8    6   21      0.84      0.00
    9    6   21     -2.77      0.00
   10    6   21      1.15      0.00
   11    6   21     -3.29      0.00
   12    6   21     -0.74      0.00
   13    6   21      0.19      0.00
   14    6   21     -1.94      0.00
   15    6   21      2.50      0.00
   16    6   21      1.98      0.00
   17    6   21      2.33      0.00
    0    7   21      0.70      0.00
    1    7   21     -3.99      0.00
    2    7   21      1.15      0.00
    3    7   21      0.49      0.00
    4    7   21      1.42      0.00
    5    7   21      9.32      0.00
    6    7   21      1.10      0.00
    7    7   21     -1.78      0.00
    8    7   21     -2.29      0.00
    9    7   21      1.11      0.00
   10    7   21      0.71      0.00
   11    7   21      2.11      0.00
   12    7   21     -2.08      0.00
   13    7   21      1.12      0.00
   14    7   21     -0.37      0.00
   15    7   21     -0.98      0.00
   16    7   21      0.56      0.00
   17    7   21      1.55      0.00
    1    8   21      3.85      0.00
    2    8   21      5.63      0.00
    3    8   21     -1.31      0.00
    4    8   21     -1.06      0.00
    5    8   21     -2.60      0.00
    6    8   21     -2.29      0.00
    7    8   21     -2.56      0.00
    8    8   21     -0.50      0.00
    9    8   21     -2.21      0.00
   10    8   21     -1.60      0.00
   11    8   21      2.21      0.00
   12    8   21      1.44      0.00
   13    8   21      2.77      0.00
   14    8   21      0.16      0.00
   15    8   21      0.26      0.00
   16    8   21     -0.18      0.00
   17    8   21      2.15      0.00
    0    9   21     -0.76      0.00
    1    9   21     -1.48      0.00
    2    9   21     -2.46      0.00
    3    9   21      1.32      0.00
    4    9   21     -2.50      0.00
    5    9   21     -1.40      0.00
    6    9   21      0.91      0.00
    7    9   21     -1.63      0.00
    8    9   21     -0.06      0.00
    9    9   21      0.86      0.00
   10    9   21     -3.48      0.00
   11    9   21     -0.17      0.00
   12    9   21     -1.30      0.00
   13    9   21      3.11      0.00
   14    9   21      2.12      0.00
   15    9   21     -0.17      0.00
   16    9   21      0.60      0.00
    1   10   21      3.70      0.00
    2   10   21     -0.20      0.00
    3   10   21     -1.13      0.00
    4   10   21     -2.38      0.00
    5   10   21      0.59      0.00
    6   10   21      1.71      0.00
    7   10   21      1.78      0.00
    8   10   21      2.75      0.00
    9   10   21      0.20      0.00
   10   10   21     -0.69      0.00
   11   10   21     -0.34      0.00
   12   10   21     -0.63      0.00
   13   10   21     -1.35      0.00
   14   10   21     -0.69      0.00
   15   10   21     -0.11      0.00
   16   10   21      0.15      0.00
    0   11   21      1.90      0.00
    1   11   21      1.79      0.00
    2   11   21     -2.32      0.00
    3   11   21      2.34      0.00
    4   11   21      2.43      0.00
    5   11   21     -4.01      0.00
    6   11   21     -2.21      0.00
    7   11   21     -1.45      0.00
    8   11   21      0.74      0.00
    9   11   21      0.06      0.00
   10   11   21     -0.39      0.00
   11   11   21     -1.29      0.00
   12   11   21      2.39      0.00
   13   11   21      3.28      0.00
   14   11   21      1.51      0.00
   15   11   21      0.33      0.00
    1   12   21     -1.01      0.00
    2   12   21      4.03      0.00
    3   12   21      2.17      0.00
    4   12   21     -1.03      0.00
    5   12   21     -1.16      0.00
    6   12   21      0.36      0.00
    7   12   21      2.33      0.00
    8   12   21      2.47      0.00
    9   12   21      0.99      0.00
   10   12   21     -1.22      0.00
   11   12   21     -1.85      0.00
   12   12   21     -0.31      0.00
   13   12   21     -0.82      0.00
   14   12   21      1.57      0.00
   15   12   21      2.38      0.00
    0   13   21      2.07      0.00
    1   13   21     -1.68      0.00
    2   13   21     -2.68      0.00
    3   13   21     -1.06      0.00
    4   13   21      2.49      0.00
    5   13   21      1.52      0.00
    6   13   21     -1.52      0.00
    7   13   21     -0.71      0.00
    8   13   21     -1.39      0.00
    9   13   21      2.51      0.00
   10   13   21     -0.11      0.00
   11   13   21     -2.11      0.00
   12   13   21     -0.37      0.00
   13   13   21     -0.23      0.00
   14   13   21      0.71      0.00
   15   13   21     -0.98      0.00
    1   14   21     -1.54      0.00
    2   14   21      2.49      0.00
    3   14   21      1.73      0.00
    4   14   21      0.25      0.00
    5   14   21     -0.84      0.00
    6   14   21     -4.79      0.00
    7   14   21      1.56      0.00
    8   14   21      0.21      0.00
    9   14   21      3.36      0.00
   10   14   21     -1.63      0.00
   11   14   21     -0.78      0.00
   12   14   21      0.68      0.00
   13   14   21     -1.59      0.00
   14   14   21      0.00      0.00
    0   15   21      0.38      0.00
    1   15   21      1.54      0.00
    2   15   21     -0.83      0.00
    3   15   21     -0.38      0.00
    4   15   21      4.13      0.00
    5   15   21      1.81      0.00
    6   15   21     -0.68      0.00
    7   15   21     -2.64      0.00
    8   15   21     -1.24      0.00
    9   15   21     -0.36      0.00
   10   15   21      0.21      0.00
   11   15   21     -0.59      0.00
   12   15   21      1.22      0.00
   13   15   21     -0.49      0.00
    1   16   21     -0.04      0.00
    2   16   21     -0.66      0.00
    3   16   21     -0.74      0.00
    4   16   21      2.63      0.00
    5   16   21     -0.82      0.00
    6   16   21     -2.51      0.00
    7   16   21     -0.12      0.00
    8   16   21      1.40      0.00
    9   16   21      0.43      0.00
   10   16   21     -0.19      0.00
   11   16   21      0.48      0.00
   12   16   21      0.09      0.00
   13   16   21     -1.89      0.00
    0   17   21      0.53      0.00
    1   17   21      2.75      0.00
    2   17   21     -3.49      0.00
    3   17   21     -0.87      0.00
    4   17   21      3.34      0.00
    5   17   21      2.18      0.00
    6   17   21     -2.48      0.00
    7   17   21     -1.92      0.00
    8   17   21      1.59      0.00
    9   17   21     -3.01      0.00
   10   17   21      0.53      0.00
   11   17   21      0.96      0.00
   12   17   21      1.13      0.00
    1   18   21      3.87      0.00
    2   18   21     -0.61      0.00
    3   18   21     -1.17      0.00
    4   18   21      2.01      0.00
    5   18   21     -2.48      0.00
    6   18   21     -2.06      0.00
    7   18   21      0.66      0.00
    8   18   21      0.67      0.00
    9   18   21     -0.95      0.00
   10   18   21      1.28      0.00
   11   18   21      0.94      0.00
    0   19   21     -0.14      0.00
    1   19   21      3.58      0.00
    2   19   21     -2.23      0.00
    3   19   21     -3.08      0.00
    4   19   21      3.01      0.00
    5   19   21     -0.44      0.00
    6   19   21     -1.59      0.00
    7   19   21     -0.59      0.00
    8   19   21     -1.94      0.00
    9   19   21     -1.72      0.00
   10   19   21      0.16      0.00
    1   20   21     -0.12      0.00
    2   20   21     -3.60      0.00
    3   20   21      0.60      0.00
    4   20   21      0.96      0.00
    5   20   21     -0.50      0.00
    6   20   21     -0.87      0.00
    7   20   21      0.61      0.00
    8   20   21     -0.97      0.00
    9   20   21      1.97      0.00
    0   21   21      1.76      0.00
    1   21   21      3.92      0.00
    2   21   21     -0.60      0.00
    3   21   21     -3.69      0.00
    4   21   21     -2.70      0.00
    5   21   21      2.16      0.00
    6   21   21     -0.41      0.00
    7   21   21      1.33      0.00
    1   22   21      0.24      0.00
    2   22   21     -1.92      0.00
    3   22   21      1.87      0.00
    4   22   21     -0.83      0.00
    5   22   21      1.28      0.00
    0   23   21     -0.56      0.00
    1   23   21      2.04      0.00
    2   23   21      0.85      0.00
    0    0   22    -18.44      0.00
    2    0   22      7.31      0.00
    4    0   22      7.07      0.00
    6    0   22     -9.40      0.00
    8    0   22      0.59      0.00
   10    0   22     -3.17      0.00
   12    0   22     -3.46      0.00
   14    0   22      4.74      0.00
   16    0   22      0.11      0.00
   18    0   22      0.52      0.00
    1    1   22      1.91      0.00
    2    1   22     -7.66      0.00
    3    1   22     -5.68      0.00
    4    1   22      1.50      0.00
    5    1   22      1.83      0.00
    6    1   22     -4.22      0.00
    7    1   22      1.19      0.00
    8    1   22     -0.77      0.00
    9    1   22     -3.85      0.00
   10    1   22      2.41      0.00
   11    1   22      2.61      0.00
   12    1   22     -2.73      0.00
   13    1   22      0.33      0.00
   14    1   22     -1.35      0.00
   15    1   22     -0.74      0.00
   16    1   22      1.02      0.00
   17    1   22     -0.48      0.00
   18    1   22     -0.84      0.00
    0    2   22     -5.68      0.00
    1    2   22      4.75      0.00
    2    2   22     -4.38      0.00
    3    2   22      3.44      0.00
    4    2   22      1.18      0.00
    5    2   22      3.42      0.00
    6    2   22      2.73      0.00
    7    2   22     -1.72      0.00
    8    2   22     -2.95      0.00
    9    2   22     -1.64      0.00
   10    2   22     -0.88      0.00
   11    2   22      2.14      0.00
   12    2   22      2.89      0.00
   13    2   22      1.66      0.00
   14    2   22     -0.37      0.00
   15    2   22      0.16      0.00
   16    2   22     -0.94      0.00
   17    2   22      0.32      0.00
    1    3   22     -9.54      0.00
    2    3   22      0.29      0.00
    3    3   22      2.47      0.00
    4    3   22     -3.02      0.00
    5    3   22     -1.04      0.00
    6    3   22     -3.19      0.00
    7    3   22     -1.34      0.00
    8    3   22      3.56      0.00
    9    3   22      0.02      0.00
   10    3   22      0.58      0.00
   11    3   22     -1.48      0.00
   12    3   22     -3.25      0.00
   13    3   22      0.74      0.00
   14    3   22      0.60      0.00
   15    3   22     -0.27      0.00
   16    3   22      0.22      0.00
   17    3   22      1.62      0.00
    0    4   22      8.75      0.00
    1    4   22     -9.12      0.00
    2    4   22      1.34      0.00
    3    4   22     -2.08      0.00
    4    4   22     -0.96      0.00
    5    4   22      4.36      0.00
    6    4   22      5.99      0.00
    7    4   22     -1.40      0.00
    8    4   22     -6.19      0.00
    9    4   22      1.45      0.00
   10    4   22     -0.08      0.00
   11    4   22      3.46      0.00
   12    4   22      1.07      0.00
   13    4   22      0.48      0.00
   14    4   22      1.03      0.00
   15    4   22     -0.13      0.00
   16    4   22      1.25      0.00
   17    4   22      1.16      0.00
    1    5   22     -0.27      0.00
    2    5   22     11.56      0.00
    3    5   22     -5.48      0.00
    4    5   22     -0.64      0.00
    5    5   22      3.17      0.00
    6    5   22     -2.09      0.00
    7    5   22      1.14      0.00
    8    5   22     -4.21      0.00
    9    5   22     -2.37      0.00
   10    5   22     -2.17      0.00
   11    5   22      2.47      0.00
   12    5   22      0.94      0.00
   13    5   22      2.87      0.00
   14    5   22      0.59      0.00
   15    5   22     -3.02      0.00
   16    5   22     -1.48      0.00
   17    5   22      1.54      0.00
    0    6   22    -11.75      0.00
    1    6   22     -0.66      0.00
    2    6   22     -3.71      0.00
    3    6   22     -0.50      0.00
    4    6   22     -1.41      0.00
    5    6   22     -6.79      0.00
    6    6   22      0.16      0.00
    7    6   22      3.92      0.00
    8    6   22     -0.80      0.00
    9    6   22      0.86      0.00
   10    6   22     -0.75      0.00
   11    6   22     -4.35      0.00
   12    6   22     -3.17      0.00
   13    6   22      1.03      0.00
   14    6   22      2.12      0.00
   15    6   22      0.74      0.00
   16    6   22     -0.08      0.00
   17    6   22     -0.14      0.00
    1    7   22      4.87      0.00
    2    7   22      4.41      0.00
    3    7   22      1.24      0.00
    4    7   22      2.34      0.00
    5    7   22      1.87      0.00
    6    7   22      4.63      0.00
    7    7   22      0.17      0.00
    8    7   22      0.04      0.00
    9    7   22     -1.14      0.00
   10    7   22      4.93      0.00
   11    7   22      1.27      0.00
   12    7   22      1.43      0.00
   13    7   22     -0.95      0.00
   14    7   22     -0.20      0.00
   15    7   22      1.06      0.00
   16    7   22      0.97      0.00
   17    7   22      0.41      0.00
    0    8   22      3.02      0.00
    1    8   22      0.09      0.00
    2    8   22      0.02      0.00
    3    8   22      1.01      0.00
    4    8   22      0.10      0.00
    5    8   22     -5.34      0.00
    6    8   22     -2.29      0.00
    7    8   22      0.38      0.00
    8    8   22     -0.40      0.00
    9    8   22     -3.44      0.00
   10    8   22      0.26      0.00
   11    8   22     -2.11      0.00
   12    8   22      2.15      0.00
   13    8   22      0.73      0.00
   14    8   22      1.94      0.00
   15    8   22      0.79      0.00
   16    8   22     -0.23      0.00
    1    9   22     -4.92      0.00
    2    9   22      2.96      0.00
    3    9   22      4.47      0.00
    4    9   22     -1.02      0.00
    5    9   22     -3.45      0.00
    6    9   22     -1.76      0.00
    7    9   22     -0.33      0.00
    8    9   22     -0.34      0.00
    9    9   22      1.98      0.00
   10    9   22      1.01      0.00
   11    9   22     -2.25      0.00
   12    9   22     -0.30      0.00
   13    9   22     -2.90      0.00
   14    9   22      2.79      0.00
   15    9   22      2.96      0.00
   16    9   22      1.66      0.00
    0   10   22      1.69      0.00
    1   10   22     -0.94      0.00
    2   10   22      0.14      0.00
    3   10   22     -2.90      0.00
    4   10   22     -2.06      0.00
    5   10   22      3.04      0.00
    6   10   22      0.21      0.00
    7   10   22     -0.30      0.00
    8   10   22     -1.98      0.00
    9   10   22      0.34      0.00
   10   10   22      1.71      0.00
   11   10   22      2.18      0.00
   12   10   22      0.53      0.00
   13   10   22     -1.70      0.00
   14   10   22     -1.05      0.00
   15   10   22      0.16      0.00
   16   10   22     -1.39      0.00
    1   11   22      0.60      0.00
    2   11   22     -2.38      0.00
    3   11   22      1.37      0.00
    4   11   22      0.58      0.00
    5   11   22     -0.16      0.00
    6   11   22     -2.71      0.00
    7   11   22      0.30      0.00
    8   11   22     -0.27      0.00
    9   11   22      0.89      0.00
   10   11   22      1.29      0.00
   11   11   22     -0.21      0.00
   12   11   22      1.97      0.00
   13   11   22      0.75      0.00
   14   11   22     -0.52      0.00
   15   11   22      0.00      0.00
    0   12   22     -3.17      0.00
    1   12   22      1.29      0.00
    2   12   22      5.63      0.00
    3   12   22     -1.27      0.00
    4   12   22     -0.54      0.00
    5   12   22      4.07      0.00
    6   12   22      1.78      0.00
    7   12   22      0.68      0.00
    8   12   22      1.07      0.00
    9   12   22     -2.55      0.00
   10   12   22      1.82      0.00
   11   12   22     -0.48      0.00
   12   12   22      0.79      0.00
   13   12   22     -1.01      0.00
   14   12   22     -1.54      0.00
   15   12   22      1.37      0.00
    1   13   22      0.41      0.00
    2   13   22     -2.11      0.00
    3   13   22     -5.55      0.00
    4   13   22     -1.60      0.00
    5   13   22      2.78      0.00
    6   13   22      0.32      0.00
    7   13   22     -0.21      0.00
    8   13   22     -1.35      0.00
    9   13   22     -2.50      0.00
   10   13   22      1.89      0.00
   11   13   22      0.75      0.00
   12   13   22     -1.07      0.00
   13   13   22      1.88      0.00
   14   13   22     -1.19      0.00
    0   14   22     -5.15      0.00
    1   14   22     -4.48      0.00
    2   14   22      3.39      0.00
    3   14   22      1.51      0.00
    4   14   22     -3.75      0.00
    5   14   22     -0.12      0.00
    6   14   22      3.65      0.00
    7   14   22      0.73      0.00
    8   14   22      1.48      0.00
    9   14   22     -2.96      0.00
   10   14   22     -0.99      0.00
   11   14   22      1.81      0.00
   12   14   22      0.12      0.00
   13   14   22      1.26      0.00
   14   14   22     -2.53      0.00
    1   15   22      1.81      0.00
    2   15   22      2.79      0.00
    3   15   22     -1.84      0.00
    4   15   22     -3.03      0.00
    5   15   22      1.12      0.00
    6   15   22      2.68      0.00
    7   15   22      0.15      0.00
    8   15   22     -1.19      0.00
    9   15   22     -1.16      0.00
   10   15   22     -1.23      0.00
   11   15   22      1.32      0.00
   12   15   22     -1.08      0.00
   13   15   22      1.55      0.00
    0   16   22      1.27      0.00
    1   16   22     -0.19      0.00
    2   16   22      1.68      0.00
    3   16   22      0.51      0.00
    4   16   22     -2.07      0.00
    5   16   22     -1.19      0.00
    6   16   22      2.17      0.00
    7   16   22      1.28      0.00
    8   16   22     -0.78      0.00
    9   16   22     -0.61      0.00
   10   16   22     -1.24      0.00
   11   16   22     -1.17      0.00
   12   16   22      0.69      0.00
    1   17   22     -0.15      0.00
    2   17   22     -1.60      0.00
    3   17   22      2.65      0.00
    4   17   22      2.52      0.00
    5   17   22     -0.94      0.00
    6   17   22      0.05      0.00
    7   17   22      1.80      0.00
    8   17   22     -2.48      0.00
    9   17   22     -0.31      0.00
   10   17   22     -1.82      0.00
   11   17   22     -0.19      0.00
   12   17   22      1.25      0.00
    0   18   22      3.95      0.00
    1   18   22      0.12      0.00
    2   18   22     -5.44      0.00
    3   18   22     -1.37      0.00
    4   18   22     -4.05      0.00
    5   18   22     -1.67      0.00
    6   18   22      0.54      0.00
    7   18   22      2.41      0.00
    8   18   22     -0.60      0.00
    9   18   22      0.82      0.00
   10   18   22      0.46      0.00
   11   18   22     -0.13      0.00
    1   19   22      1.74      0.00
    2   19   22      0.35      0.00
    3   19   22      2.95      0.00
    4   19   22     -1.07      0.00
    5   19   22     -0.01      0.00
    6   19   22     -0.44      0.00
    7   19   22      0.44      0.00
    8   19   22     -1.48      0.00
    9   19   22     -1.08      0.00
   10   19   22     -1.84      0.00
    0   20   22     -1.90      0.00
    1   20   22     -1.55      0.00
    2   20   22      0.08      0.00
    3   20   22      0.08      0.00
    4   20   22     -3.22      0.00
    5   20   22      1.79      0.00
    6   20   22     -0.79      0.00
    7   20   22     -0.67      0.00
    8   20   22      1.27      0.00
    1   21   22      1.54      0.00
    2   21   22     -2.86      0.00
    3   21   22     -2.23      0.00
    4   21   22     -1.32      0.00
    5   21   22      0.15      0.00
    6   21   22      0.24      0.00
    7   21   22      1.33      0.00
    0   22   22      0.40      0.00
    1   22   22     -1.29      0.00
    2   22   22      0.18      0.00
    3   22   22      1.43      0.00
    4   22   22      2.09      0.00
    5   22   22      0.44      0.00
    1    0   23     -6.81      0.00
    3    0   23     17.38      0.00
    5    0   23     -0.49      0.00
    7    0   23     -4.60      0.00
    9    0   23      0.84      0.00
   11    0   23     -0.79      0.00
   13    0   23      2.05      0.00
   15    0   23      0.47      0.00
   17    0   23      1.85      0.00
    0    1   23     14.38      0.00
    1    1   23     -1.43      0.00
    2    1   23    -10.01      0.00
    3    1   23     -1.21      0.00
    4    1   23     -3.31      0.00
    5    1   23      0.13      0.00
    6    1   23      6.69      0.00
    7    1   23     -0.58      0.00
    8    1   23     -5.10      0.00
    9    1   23      0.59      0.00
   10    1   23     -0.50      0.00
   11    1   23      0.08      0.00
   12    1   23     -0.93      0.00
   13    1   23     -1.07      0.00
   14    1   23      0.26      0.00
   15    1   23      0.85      0.00
   16    1   23     -0.63      0.00
   17    1   23     -0.30      0.00
    1    2   23     -7.15      0.00
    2    2   23      8.90      0.00
    3    2   23      5.18      0.00
    4    2   23     -3.04      0.00
    5    2   23      2.51      0.00
    6    2   23      0.15      0.00
    7    2   23     -1.66      0.00
    8    2   23      1.10      0.00
    9    2   23     -3.15      0.00
   10    2   23     -1.83      0.00
   11    2   23      1.52      0.00
   12    2   23      1.98      0.00
   13    2   23      2.91      0.00
   14    2   23      0.06      0.00
   15    2   23     -1.47      0.00
   16    2   23     -1.59      0.00
   17    2   23      1.32      0.00
    0    3   23     -7.57      0.00
    1    3   23     -5.19      0.00
    2    3   23     -0.92      0.00
    3    3   23     -7.65      0.00
    4    3   23      6.63      0.00
    5    3   23     -4.18      0.00
    6    3   23     -4.00      0.00
    7    3   23      1.25      0.00
    8    3   23      1.31      0.00
    9    3   23     -0.67      0.00
   10    3   23      1.63      0.00
   11    3   23      0.46      0.00
   12    3   23     -1.44      0.00
   13    3   23      1.12      0.00
   14    3   23      2.44      0.00
   15    3   23      0.98      0.00
   16    3   23     -0.43      0.00
   17    3   23     -0.80      0.00
    1    4   23      0.85      0.00
    2    4   23      4.83      0.00
    3    4   23      4.23      0.00
    4    4   23     -1.51      0.00
    5    4   23     -1.07      0.00
    6    4   23      0.91      0.00
    7    4   23      1.77      0.00
    8    4   23      0.65      0.00
    9    4   23     -0.11      0.00
   10    4   23      2.14      0.00
   11    4   23     -0.66      0.00
   12    4   23      0.79      0.00
   13    4   23     -0.61      0.00
   14    4   23     -0.08      0.00
   15    4   23      1.52      0.00
   16    4   23      0.44      0.00
   17    4   23      0.00      0.00
    0    5   23     -4.24      0.00
    1    5   23     -1.76      0.00
    2    5   23     -6.44      0.00
    3    5   23      3.89      0.00
    4    5   23      5.73      0.00
    5    5   23      0.44      0.00
    6    5   23      0.26      0.00
    7    5   23     -5.07      0.00
    8    5   23      1.15      0.00
    9    5   23     -1.35      0.00
   10    5   23     -1.85      0.00
   11    5   23      1.54      0.00
   12    5   23      0.97      0.00
   13    5   23     -0.99      0.00
   14    5   23      0.88      0.00
   15    5   23     -0.55      0.00
   16    5   23      0.77      0.00
   17    5   23     -0.42      0.00
    1    6   23     -7.51      0.00
    2    6   23     -2.52      0.00
    3    6   23      7.60      0.00
    4    6   23     -2.89      0.00
    5    6   23     -1.71      0.00
    6    6   23      0.52      0.00
    7    6   23     -2.98      0.00
    8    6   23      2.00      0.00
    9    6   23      2.41      0.00
   10    6   23     -0.25      0.00
   11    6   23     -0.53      0.00
   12    6   23     -1.16      0.00
   13    6   23     -1.39      0.00
   14    6   23      0.30      0.00
   15    6   23      0.89      0.00
   16    6   23      0.88      0.00
   17    6   23     -1.23      0.00
    0    7   23      3.18      0.00
    1    7   23      2.48      0.00
    2    7   23     -1.00      0.00
    3    7   23      1.85      0.00
    4    7   23      2.82      0.00
    5    7   23      4.80      0.00
    6    7   23     -0.46      0.00
    7    7   23     -5.73      0.00
    8    7   23      0.03      0.00
    9    7   23      2.71      0.00
   10    7   23     -0.20      0.00
   11    7   23      3.63      0.00
   12    7   23      2.22      0.00
   13    7   23      0.59      0.00
   14    7   23      0.10      0.00
   15    7   23     -1.24      0.00
   16    7   23      2.00      0.00
   17    7   23      0.88      0.00
    1    8   23      0.31      0.00
    2    8   23     -5.10      0.00
    3    8   23     -2.91      0.00
    4    8   23      1.06      0.00
    5    8   23      3.33      0.00
    6    8   23     -2.39      0.00
    7    8   23      2.06      0.00
    8    8   23     -1.93      0.00
    9    8   23     -0.83      0.00
   10    8   23     -0.62      0.00
   11    8   23     -1.14      0.00
   12    8   23      0.47      0.00
   13    8   23      1.79      0.00
   14    8   23     -1.66      0.00
   15    8   23     -1.33      0.00
   16    8   23      1.11      0.00
    0    9   23     -5.75      0.00
    1    9   23      2.68      0.00
    2    9   23      2.08      0.00
    3    9   23      1.75      0.00
    4    9   23      3.06      0.00
    5    9   23     -0.13      0.00
    6    9   23     -1.56      0.00
    7    9   23     -1.73      0.00
    8    9   23      0.13      0.00
    9    9   23      2.02      0.00
   10    9   23      1.81      0.00
   11    9   23     -1.87      0.00
   12    9   23     -0.85      0.00
   13    9   23      2.27      0.00
   14    9   23     -1.56      0.00
   15    9   23      0.05      0.00
   16    9   23      1.59      0.00
    1   10   23      2.95      0.00
    2   10   23      1.83      0.00
    3   10   23     -7.69      0.00
    4   10   23     -1.64      0.00
    5   10   23      2.32      0.00
    6   10   23      1.55      0.00
    7   10   23     -0.92      0.00
    8   10   23     -2.69      0.00
    9   10   23     -2.12      0.00
   10   10   23      0.86      0.00
   11   10   23      0.98      0.00
   12   10   23      1.43      0.00
   13   10   23      2.38      0.00
   14   10   23     -0.45      0.00
   15   10   23     -0.61      0.00
    0   11   23      0.77      0.00
    1   11   23     -4.46      0.00
    2   11   23     -0.32      0.00
    3   11   23      1.87      0.00
    4   11   23      1.18      0.00
    5   11   23     -3.87      0.00
    6   11   23     -0.13      0.00
    7   11   23      1.16      0.00
    8   11   23      1.56      0.00
    9   11   23      3.79      0.00
   10   11   23     -1.27      0.00
   11   11   23     -0.39      0.00
   12   11   23     -1.28      0.00
   13   11   23      1.95      0.00
   14   11   23      0.84      0.00
   15   11   23     -0.90      0.00
    1   12   23      1.35      0.00
    2   12   23      2.59      0.00
    3   12   23      2.04      0.00
    4   12   23     -2.44      0.00
    5   12   23     -0.55      0.00
    6   12   23      1.63      0.00
    7   12   23      0.57      0.00
    8   12   23     -0.81      0.00
    9   12   23      2.58      0.00
   10   12   23     -2.21      0.00
   11   12   23      1.38      0.00
   12   12   23     -2.06      0.00
   13   12   23     -1.46      0.00
   14   12   23      1.06      0.00
   15   12   23     -0.72      0.00
    0   13   23      2.53      0.00
    1   13   23      2.12      0.00
    2   13   23     -5.40      0.00
    3   13   23      0.35      0.00
    4   13   23      3.24      0.00
    5   13   23     -4.58      0.00
    6   13   23     -1.53      0.00
    7   13   23     -1.04      0.00
    8   13   23      0.27      0.00
    9   13   23      2.63      0.00
   10   13   23      0.21      0.00
   11   13   23     -0.94      0.00
   12   13   23      0.29      0.00
   13   13   23      0.09      0.00
   14   13   23      2.53      0.00
    1   14   23     -1.74      0.00
    2   14   23     -4.17      0.00
    3   14   23      2.01      0.00
    4   14   23      4.20      0.00
    5   14   23     -0.92      0.00
    6   14   23      0.55      0.00
    7   14   23      0.88      0.00
    8   14   23      1.09      0.00
    9   14   23      1.92      0.00
   10   14   23      0.47      0.00
   11   14   23     -1.59      0.00
   12   14   23      0.57      0.00
   13   14   23     -1.63      0.00
   14   14   23     -0.05      0.00
    0   15   23      3.12      0.00
    1   15   23      4.49      0.00
    2   15   23     -1.67      0.00
    3   15   23     -2.26      0.00
    4   15   23      2.14      0.00
    5   15   23     -0.87      0.00
    6   15   23     -3.71      0.00
    7   15   23      0.09      0.00
    8   15   23      0.30      0.00
    9   15   23      0.94      0.00
   10   15   23      1.88      0.00
   11   15   23     -0.58      0.00
   12   15   23     -1.65      0.00
   13   15   23     -0.50      0.00
    1   16   23     -1.00      0.00
    2   16   23     -0.16      0.00
    3   16   23      0.52      0.00
    4   16   23      0.53      0.00
    5   16   23      2.00      0.00
    6   16   23     -0.83      0.00
    7   16   23     -1.07      0.00
    8   16   23     -0.87      0.00
    9   16   23      0.67      0.00
   10   16   23      1.63      0.00
   11   16   23     -1.10      0.00
   12   16   23     -1.83      0.00
    0   17   23     -4.11      0.00
    1   17   23     -3.27      0.00
    2   17   23      7.66      0.00
    3   17   23      0.79      0.00
    4   17   23     -0.40      0.00
    5   17   23      1.35      0.00
    6   17   23     -0.10      0.00
    7   17   23     -3.02      0.00
    8   17   23     -0.24      0.00
    9   17   23      0.59      0.00
   10   17   23      0.03      0.00
   11   17   23      0.84      0.00
    1   18   23     -5.11      0.00
    2   18   23     -1.07      0.00
    3   18   23     -6.09      0.00
    4   18   23     -1.86      0.00
    5   18   23      1.50      0.00
    6   18   23      1.03      0.00
    7   18   23     -1.75      0.00
    8   18   23      0.36      0.00
    9   18   23      1.59      0.00
   10   18   23      0.78      0.00
    0   19   23     -0.07      0.00
    1   19   23      0.15      0.00
    2   19   23      5.76      0.00
    3   19   23      1.92      0.00
    4   19   23      1.29      0.00
    5   19   23     -1.04      0.00
    6   19   23      0.20      0.00
    7   19   23     -1.30      0.00
    8   19   23      0.91      0.00
    9   19   23     -0.52      0.00
    1   20   23     -1.83      0.00
    2   20   23     -0.55      0.00
    3   20   23     -1.30      0.00
    4   20   23      2.57      0.00
    5   20   23     -1.62      0.00
    6   20   23      0.15      0.00
    7   20   23     -0.42      0.00
    8   20   23     -0.13      0.00
    0   21   23      0.14      0.00
    1   21   23     -0.75      0.00
    2   21   23     -0.77      0.00
    3   21   23     -0.02      0.00
    4   21   23      1.88      0.00
    5   21   23     -2.48      0.00
    6   21   23      0.39      0.00
    1   22   23     -1.35      0.00
    2   22   23      0.27      0.00
    3   22   23      0.56      0.00
    4   22   23      1.53      0.00
    0    0   24     -8.92      0.00
    2    0   24      6.81      0.00
    4    0   24      8.19      0.00
    6    0   24     -0.96      0.00
    8    0   24      1.93      0.00
   10    0   24      1.82      0.00
   12    0   24      2.12      0.00
   14    0   24     -0.39      0.00
   16    0   24      1.10      0.00
    1    1   24     -0.47      0.00
    2    1   24      3.41      0.00
    3    1   24      0.15      0.00
    4    1   24      0.88      0.00
    5    1   24     -1.42      0.00
    6    1   24      2.54      0.00
    7    1   24     -0.41      0.00
    8    1   24      0.26      0.00
    9    1   24     -1.94      0.00
   10    1   24      1.51      0.00
   11    1   24      0.04      0.00
   12    1   24      0.00      0.00
   13    1   24     -0.84      0.00
   14    1   24     -0.52      0.00
   15    1   24     -0.47      0.00
   16    1   24      1.18      0.00
   17    1   24      0.64      0.00
    0    2   24     -4.91      0.00
    1    2   24     -7.47      0.00
    2    2   24      3.53      0.00
    3    2   24     -0.56      0.00
    4    2   24      3.99      0.00
    5    2   24     -1.10      0.00
    6    2   24     -0.30      0.00
    7    2   24     -2.36      0.00
    8    2   24     -1.70      0.00
    9    2   24      2.15      0.00
   10    2   24     -0.75      0.00
   11    2   24     -1.90      0.00
   12    2   24      0.54      0.00
   13    2   24      0.94      0.00
   14    2   24      1.36      0.00
   15    2   24     -0.89      0.00
   16    2   24      1.04      0.00
   17    2   24      0.29      0.00
    1    3   24      0.96      0.00
    2    3   24     -9.44      0.00
    3    3   24      2.89      0.00
    4    3   24      1.13      0.00
    5    3   24      3.41      0.00
    6    3   24      0.56      0.00
    7    3   24     -0.56      0.00
    8    3   24     -3.89      0.00
    9    3   24     -1.30      0.00
   10    3   24      2.41      0.00
   11    3   24      5.47      0.00
   12    3   24      1.57      0.00
   13    3   24     -0.30      0.00
   14    3   24     -1.21      0.00
   15    3   24     -1.15      0.00
   16    3   24      2.62      0.00
   17    3   24     -0.22      0.00
    0    4   24     -0.98      0.00
    1    4   24      9.06      0.00
    2    4   24     -2.19      0.00
    3    4   24      0.71      0.00
    4    4   24     -1.31      0.00
    5    4   24     -1.80      0.00
    6    4   24      3.19      0.00
    7    4   24     -0.15      0.00
    8    4   24     -0.67      0.00
    9    4   24      1.35      0.00
   10    4   24     -0.14      0.00
   11    4   24     -3.68      0.00
   12    4   24     -0.13      0.00
   13    4   24      2.89      0.00
   14    4   24      0.03      0.00
   15    4   24     -0.86      0.00
   16    4   24     -0.83      0.00
   17    4   24     -0.84      0.00
    1    5   24     -3.36      0.00
    2    5   24     -8.19      0.00
    3    5   24     -1.22      0.00
    4    5   24      2.36      0.00
    5    5   24      5.81      0.00
    6    5   24     -0.57      0.00
    7    5   24      2.79      0.00
    8    5   24      1.24      0.00
    9    5   24     -4.59      0.00
   10    5   24      2.11      0.00
   11    5   24      1.56      0.00
   12    5   24     -0.78      0.00
   13    5   24     -0.12      0.00
   14    5   24     -2.48      0.00
   15    5   24      0.02      0.00
   16    5   24      2.17      0.00
   17    5   24      2.54      0.00
    0    6   24     -0.37      0.00
    1    6   24      0.70      0.00
    2    6   24      6.41      0.00
    3    6   24     -3.46      0.00
    4    6   24      4.22      0.00
    5    6   24      0.27      0.00
    6    6   24      0.50      0.00
    7    6   24      4.07      0.00
    8    6   24     -3.17      0.00
    9    6   24     -1.64      0.00
   10    6   24      3.77      0.00
   11    6   24     -1.20      0.00
   12    6   24      1.43      0.00
   13    6   24      3.52      0.00
   14    6   24     -0.59      0.00
   15    6   24     -0.44      0.00
   16    6   24     -1.37      0.00
   17    6   24     -0.70      0.00
    1    7   24     -2.74      0.00
    2    7   24      5.74      0.00
    3    7   24     -4.41      0.00
    4    7   24     -4.35      0.00
    5    7   24     -0.57      0.00
    6    7   24     -3.22      0.00
    7    7   24      2.06      0.00
    8    7   24     -0.08      0.00
    9    7   24     -1.60      0.00
   10    7   24     -1.63      0.00
   11    7   24      1.27      0.00
   12    7   24      0.35      0.00
   13    7   24      1.57      0.00
   14    7   24      1.17      0.00
   15    7   24      0.56      0.00
   16    7   24     -0.70      0.00
    0    8   24     -5.69      0.00
    1    8   24     -5.15      0.00
    2    8   24     -0.06      0.00
    3    8   24     -1.02      0.00
    4    8   24      2.23      0.00
    5    8   24      1.44      0.00
    6    8   24      3.62      0.00
    7    8   24      1.85      0.00
    8    8   24      0.58      0.00
    9    8   24     -0.46      0.00
   10    8   24     -1.16      0.00
   11    8   24      0.12      0.00
   12    8   24     -2.04      0.00
   13    8   24      0.05      0.00
   14    8   24      0.48      0.00
   15    8   24     -0.10      0.00
   16    8   24     -1.78      0.00
    1    9   24     -0.44      0.00
    2    9   24      2.16      0.00
    3    9   24      6.27      0.00
    4    9   24     -2.65      0.00
    5    9   24     -0.74      0.00
    6    9   24      0.03      0.00
    7    9   24     -0.89      0.00
    8    9   24      3.03      0.00
    9    9   24      0.94      0.00
   10    9   24     -1.11      0.00
   11    9   24      2.31      0.00
   12    9   24     -0.63      0.00
   13    9   24     -2.04      0.00
   14    9   24      0.75      0.00
   15    9   24      0.60      0.00
   16    9   24      0.16      0.00
    0   10   24     -1.57      0.00
    1   10   24      3.65      0.00
    2   10   24     -1.27      0.00
    3   10   24     -0.38      0.00
    4   10   24      0.29      0.00
    5   10   24      0.90      0.00
    6   10   24     -1.43      0.00
    7   10   24     -1.23      0.00
    8   10   24      1.01      0.00
    9   10   24     -2.86      0.00
   10   10   24     -0.37      0.00
   11   10   24     -0.28      0.00
   12   10   24      1.89      0.00
   13   10   24      0.32      0.00
   14   10   24      1.50      0.00
   15   10   24      0.29      0.00
    1   11   24     -2.03      0.00
    2   11   24     -5.19      0.00
    3   11   24      1.91      0.00
    4   11   24      1.65      0.00
    5   11   24     -0.59      0.00
    6   11   24      0.15      0.00
    7   11   24      0.51      0.00
    8   11   24      2.24      0.00
    9   11   24      1.36      0.00
   10   11   24      1.68      0.00
   11   11   24     -1.66      0.00
   12   11   24     -0.02      0.00
   13   11   24     -1.36      0.00
   14   11   24      0.33      0.00
   15   11   24      1.68      0.00
    0   12   24     -4.38      0.00
    1   12   24      2.07      0.00
    2   12   24      3.81      0.00
    3   12   24     -3.31      0.00
    4   12   24     -1.91      0.00
    5   12   24      2.76      0.00
    6   12   24     -0.73      0.00
    7   12   24     -1.89      0.00
    8   12   24     -1.12      0.00
    9   12   24     -1.35      0.00
   10   12   24      1.23      0.00
   11   12   24      0.48      0.00
   12   12   24      1.17      0.00
   13   12   24     -0.59      0.00
   14   12   24     -2.42      0.00
    1   13   24     -0.24      0.00
    2   13   24     -0.48      0.00
    3   13   24     -1.66      0.00
    4   13   24     -1.46      0.00
    5   13   24      0.92      0.00
    6   13   24     -0.09      0.00
    7   13   24      0.52      0.00
    8   13   24     -0.09      0.00
    9   13   24      0.64      0.00
   10   13   24      0.25      0.00
   11   13   24      0.19      0.00
   12   13   24      1.05      0.00
   13   13   24      0.31      0.00
   14   13   24      0.44      0.00
    0   14   24     -2.50      0.00
    1   14   24     -3.45      0.00
    2   14   24      3.26      0.00
    3   14   24     -1.41      0.00
    4   14   24     -2.78      0.00
    5   14   24      4.89      0.00
    6   14   24      2.24      0.00
    7   14   24      1.15      0.00
    8   14   24     -1.19      0.00
    9   14   24      0.07      0.00
   10   14   24     -0.97      0.00
   11   14   24      0.26      0.00
   12   14   24      1.69      0.00
   13   14   24     -1.07      0.00
    1   15   24      1.31      0.00
    2   15   24     -1.54      0.00
    3   15   24     -0.20      0.00
    4   15   24     -2.52      0.00
    5   15   24     -2.43      0.00
    6   15   24      1.05      0.00
    7   15   24      2.14      0.00
    8   15   24      1.04      0.00
    9   15   24     -1.33      0.00
   10   15   24     -0.29      0.00
   11   15   24      0.64      0.00
   12   15   24      1.23      0.00
   13   15   24     -1.63      0.00
    0   16   24      0.59      0.00
    1   16   24     -0.99      0.00
    2   16   24     -5.12      0.00
    3   16   24      0.30      0.00
    4   16   24      1.41      0.00
    5   16   24     -0.99      0.00
    6   16   24      1.88      0.00
    7   16   24      1.34      0.00
    8   16   24      0.02      0.00
    9   16   24     -1.63      0.00
   10   16   24     -1.51      0.00
   11   16   24      1.00      0.00
   12   16   24      1.67      0.00
    1   17   24      3.60      0.00
    2   17   24     -2.43      0.00
    3   17   24      0.91      0.00
    4   17   24      0.43      0.00
    5   17   24     -2.18      0.00
    6   17   24     -0.64      0.00
    7   17   24      2.77      0.00
    8   17   24      3.62      0.00
    9   17   24     -2.21      0.00
   10   17   24     -0.49      0.00
   11   17   24      0.35      0.00
    0   18   24     -1.73      0.00
    1   18   24      2.41      0.00
    2   18   24     -8.02      0.00
    3   18   24     -4.00      0.00
    4   18   24      3.03      0.00
    5   18   24      0.55      0.00
    6   18   24     -1.17      0.00
    7   18   24      1.54      0.00
    8   18   24      0.56      0.00
    9   18   24     -2.58      0.00
   10   18   24      0.05      0.00
    1   19   24      2.81      0.00
    2   19   24     -0.78      0.00
    3   19   24     -0.24      0.00
    4   19   24      2.07      0.00
    5   19   24     -0.49      0.00
    6   19   24     -0.94      0.00
    7   19   24      2.62      0.00
    8   19   24      0.65      0.00
    9   19   24      0.51      0.00
    0   20   24      0.70      0.00
    1   20   24      2.72      0.00
    2   20   24     -2.55      0.00
    3   20   24     -2.08      0.00
    4   20   24      0.18      0.00
    5   20   24      2.51      0.00
    6   20   24      0.91      0.00
    7   20   24      0.40      0.00
    8   20   24      0.11      0.00
    1   21   24     -0.06      0.00
    2   21   24      0.64      0.00
    3   21   24     -0.07      0.00
    4   21   24      0.00      0.00
    5   21   24      0.14      0.00
    6   21   24     -0.46      0.00
    0   22   24     -1.64      0.00
    1   22   24     -0.32      0.00
    2   22   24     -0.81      0.00
    3   22   24      1.03      0.00
    1    0   25      3.98      0.00
    3    0   25     -8.76      0.00
    5    0   25      7.55      0.00
    7    0   25      3.68      0.00
    9    0   25     -2.20      0.00
   11    0   25      6.59      0.00
   13    0   25     -0.05      0.00
   15    0   25     -3.52      0.00
   17    0   25      1.77      0.00
    0    1   25      1.57      0.00
    1    1   25     10.95      0.00
    2    1   25      1.03      0.00
    3    1   25      1.42      0.00
    4    1   25      3.42      0.00
    5    1   25     -1.14      0.00
    6    1   25     -3.15      0.00
    7    1   25      4.23      0.00
    8    1   25      1.90      0.00
    9    1   25     -1.35      0.00
   10    1   25      1.18      0.00
   11    1   25      0.52      0.00
   12    1   25     -3.29      0.00
   13    1   25      0.71      0.00
   14    1   25      2.79      0.00
   15    1   25     -0.04      0.00
   16    1   25     -1.20      0.00
   17    1   25     -0.50      0.00
    1    2   25      5.73      0.00
    2    2   25     -9.65      0.00
    3    2   25     -0.53      0.00
    4    2   25     -3.07      0.00
    5    2   25      0.50      0.00
    6    2   25     -0.25      0.00
    7    2   25      1.51      0.00
    8    2   25      1.24      0.00
    9    2   25      0.09      0.00
   10    2   25      0.38      0.00
   11    2   25     -0.82      0.00
   12    2   25     -1.58      0.00
   13    2   25      0.74      0.00
   14    2   25      0.93      0.00
   15    2   25     -0.63      0.00
   16    2   25     -0.42      0.00
   17    2   25      1.95      0.00
    0    3   25      3.19      0.00
    1    3   25      0.64      0.00
    2    3   25      0.76      0.00
    3    3   25      3.04      0.00
    4    3   25      3.47      0.00
    5    3   25      2.46      0.00
    6    3   25      0.45      0.00
    7    3   25      0.57      0.00
    8    3   25     -0.38      0.00
    9    3   25     -3.02      0.00
   10    3   25      2.81      0.00
   11    3   25      2.19      0.00
   12    3   25      0.23      0.00
   13    3   25     -0.86      0.00
   14    3   25     -0.86      0.00
   15    3   25      0.78      0.00
   16    3   25      0.37      0.00
   17    3   25     -0.60      0.00
    1    4   25     -1.53      0.00
    2    4   25      9.13      0.00
    3    4   25     -0.04      0.00
    4    4   25     -7.45      0.00
    5    4   25     -1.50      0.00
    6    4   25      0.71      0.00
    7    4   25      0.57      0.00
    8    4   25      0.88      0.00
    9    4   25      1.86      0.00
   10    4   25     -2.83      0.00
   11    4   25     -1.81      0.00
   12    4   25     -1.35      0.00
   13    4   25      2.18      0.00
   14    4   25      1.68      0.00
   15    4   25     -2.40      0.00
   16    4   25     -2.37      0.00
   17    4   25      0.20      0.00
    0    5   25     -3.50      0.00
    1    5   25    -12.60      0.00
    2    5   25      0.51      0.00
    3    5   25     -3.12      0.00
    4    5   25      4.86      0.00
    5    5   25      1.10      0.00
    6    5   25     -2.01      0.00
    7    5   25      1.67      0.00
    8    5   25      1.69      0.00
    9    5   25      3.02      0.00
   10    5   25      0.78      0.00
   11    5   25      0.68      0.00
   12    5   25     -2.85      0.00
   13    5   25     -1.23      0.00
   14    5   25      0.87      0.00
   15    5   25      0.81      0.00
   16    5   25      0.90      0.00
   17    5   25      0.23      0.00
    1    6   25      6.37      0.00
    2    6   25     -0.46      0.00
    3    6   25      6.53      0.00
    4    6   25      0.35      0.00
    5    6   25      1.29      0.00
    6    6   25      3.70      0.00
    7    6   25      0.38      0.00
    8    6   25     -3.76      0.00
    9    6   25      0.93      0.00
   10    6   25      2.71      0.00
   11    6   25      2.25      0.00
   12    6   25      0.90      0.00
   13    6   25      0.70      0.00
   14    6   25     -0.93      0.00
   15    6   25     -1.28      0.00
   16    6   25      1.05      0.00
    0    7   25     -2.54      0.00
    1    7   25      1.46      0.00
    2    7   25     -8.13      0.00
    3    7   25      0.94      0.00
    4    7   25      0.39      0.00
    5    7   25     -5.35      0.00
    6    7   25     -2.10      0.00
    7    7   25     -1.46      0.00
    8    7   25      1.74      0.00
    9    7   25     -0.75      0.00
   10    7   25      0.47      0.00
   11    7   25     -3.22      0.00
   12    7   25     -0.74      0.00
   13    7   25      0.85      0.00
   14    7   25      1.03      0.00
   15    7   25      1.04      0.00
   16    7   25     -0.11      0.00
    1    8   25     -2.41      0.00
    2    8   25     -6.08      0.00
    3    8   25      2.68      0.00
    4    8   25      4.57      0.00
    5    8   25      2.09      0.00
    6    8   25      3.11      0.00
    7    8   25      0.75      0.00
    8    8   25     -2.61      0.00
    9    8   25      0.23      0.00
   10    8   25      5.20      0.00
   11    8   25     -0.40      0.00
   12    8   25     -1.18      0.00
   13    8   25     -2.66      0.00
   14    8   25     -2.72      0.00
   15    8   25      0.00      0.00
   16    8   25      1.86      0.00
    0    9   25      4.76      0.00
    1    9   25     -0.04      0.00
    2    9   25      0.64      0.00
    3    9   25     -1.51      0.00
    4    9   25      2.42      0.00
    5    9   25     -0.76      0.00
    6    9   25      0.85      0.00
    7    9   25      0.76      0.00
    8    9   25     -2.77      0.00
    9    9   25      0.83      0.00
   10    9   25      1.03      0.00
   11    9   25      0.73      0.00
   12    9   25      1.74      0.00
   13    9   25      1.02      0.00
   14    9   25     -0.65      0.00
   15    9   25     -1.44      0.00
    1   10   25     -1.58      0.00
    2   10   25      0.33      0.00
    3   10   25     -1.66      0.00
    4   10   25      1.25      0.00
    5   10   25      0.91      0.00
    6   10   25     -1.49      0.00
    7   10   25      1.05      0.00
    8   10   25     -2.71      0.00
    9   10   25      2.25      0.00
   10   10   25      0.01      0.00
   11   10   25      0.93      0.00
   12   10   25     -1.40      0.00
   13   10   25     -0.04      0.00
   14   10   25     -0.95      0.00
   15   10   25     -0.93      0.00
    0   11   25      0.58      0.00
    1   11   25     -1.29      0.00
    2   11   25     -1.51      0.00
    3   11   25      0.80      0.00
    4   11   25      0.15      0.00
    5   11   25      1.30      0.00
    6   11   25      1.94      0.00
    7   11   25      1.40      0.00
    8   11   25     -0.88      0.00
    9   11   25     -0.24      0.00
   10   11   25      0.19      0.00
   11   11   25     -0.53      0.00
   12   11   25     -0.26      0.00
   13   11   25      0.03      0.00
   14   11   25      0.68      0.00
   15   11   25     -0.41      0.00
    1   12   25     -0.33      0.00
    2   12   25     -0.80      0.00
    3   12   25     -2.24      0.00
    4   12   25     -0.11      0.00
    5   12   25      0.07      0.00
    6   12   25     -1.14      0.00
    7   12   25     -2.06      0.00
    8   12   25     -1.02      0.00
    9   12   25     -1.17      0.00
   10   12   25      2.68      0.00
   11   12   25      0.81      0.00
   12   12   25      1.96      0.00
   13   12   25     -0.54      0.00
   14   12   25     -1.24      0.00
    0   13   25      3.27      0.00
    1   13   25     -0.31      0.00
    2   13   25     -2.22      0.00
    3   13   25      2.65      0.00
    4   13   25     -0.05      0.00
    5   13   25     -3.24      0.00
    6   13   25     -0.70      0.00
    7   13   25      3.38      0.00
    8   13   25      1.95      0.00
    9   13   25     -0.31      0.00
   10   13   25      0.04      0.00
   11   13   25     -0.94      0.00
   12   13   25     -1.05      0.00
   13   13   25      1.60      0.00
   14   13   25     -0.67      0.00
    1   14   25      0.60      0.00
    2   14   25      0.51      0.00
    3   14   25     -0.17      0.00
    4   14   25     -1.30      0.00
    5   14   25      0.76      0.00
    6   14   25      0.53      0.00
    7   14   25     -3.07      0.00
    8   14   25      0.73      0.00
    9   14   25      1.60      0.00
   10   14   25      1.34      0.00
   11   14   25      0.02      0.00
   12   14   25     -2.20      0.00
   13   14   25      1.10      0.00
    0   15   25     -3.55      0.00
    1   15   25     -1.14      0.00
    2   15   25      2.75      0.00
    3   15   25     -0.66      0.00
    4   15   25      0.59      0.00
    5   15   25     -0.47      0.00
    6   15   25     -1.48      0.00
    7   15   25     -0.01      0.00
    8   15   25      0.62      0.00
    9   15   25      1.82      0.00
   10   15   25      0.50      0.00
   11   15   25      0.95      0.00
   12   15   25     -1.45      0.00
    1   16   25     -3.71      0.00
    2   16   25     -0.87      0.00
    3   16   25     -2.79      0.00
    4   16   25      0.23      0.00
    5   16   25      1.44      0.00
    6   16   25     -0.31      0.00
    7   16   25     -1.28      0.00
    8   16   25     -1.20      0.00
    9   16   25      3.85      0.00
   10   16   25      1.30      0.00
   11   16   25     -0.57      0.00
   12   16   25      0.42      0.00
    0   17   25      0.33      0.00
    1   17   25      2.06      0.00
    2   17   25      2.39      0.00
    3   17   25     -1.28      0.00
    4   17   25     -0.91      0.00
    5   17   25     -0.21      0.00
    6   17   25      0.16      0.00
    7   17   25      2.08      0.00
    8   17   25     -1.35      0.00
    9   17   25      3.44      0.00
   10   17   25      0.45      0.00
   11   17   25      0.53      0.00
    1   18   25     -3.90      0.00
    2   18   25     -0.26      0.00
    3   18   25      4.66      0.00
    4   18   25     -0.33      0.00
    5   18   25     -0.88      0.00
    6   18   25     -0.21      0.00
    7   18   25      0.34      0.00
    8   18   25     -2.17      0.00
    9   18   25      1.40      0.00
   10   18   25      0.88      0.00
    0   19   25     -2.59      0.00
    1   19   25     -3.73      0.00
    2   19   25      0.70      0.00
    3   19   25      3.68      0.00
    4   19   25     -1.89      0.00
    5   19   25     -1.16      0.00
    6   19   25      0.46      0.00
    7   19   25     -0.10      0.00
    8   19   25     -1.16      0.00
    9   19   25      1.46      0.00
    1   20   25     -2.36      0.00
    2   20   25      0.58      0.00
    3   20   25      0.71      0.00
    4   20   25     -0.11      0.00
    5   20   25      1.27      0.00
    6   20   25      0.07      0.00
    7   20   25      0.72      0.00
    0   21   25     -0.65      0.00
    1   21   25      1.81      0.00
    2   21   25      0.24      0.00
    3   21   25      1.03      0.00
    4   21   25      1.29      0.00
    5   21   25      0.00      0.00
    1   22   25     -1.30      0.00
    2   22   25      0.36      0.00
    0    0   26     -0.15      0.00
    2    0   26     -3.97      0.00
    4    0   26     -5.91      0.00
    6    0   26      4.29      0.00
    8    0   26     -1.22      0.00
   10    0   26      1.54      0.00
   12    0   26      2.44      0.00
   14    0   26     -3.31      0.00
   16    0   26      2.89      0.00
    1    1   26      0.92      0.00
    2    1   26      4.96      0.00
    3    1   26     10.07      0.00
    4    1   26     -1.49      0.00
    5    1   26     -1.88      0.00
    6    1   26     -1.19      0.00
    7    1   26      1.53      0.00
    8    1   26     -0.44      0.00
    9    1   26      3.91      0.00
   10    1   26     -1.67      0.00
   11    1   26     -0.15      0.00
   12    1   26      0.52      0.00
   13    1   26     -0.03      0.00
   14    1   26      0.03      0.00
   15    1   26     -0.40      0.00
   16    1   26     -0.28      0.00
   17    1   26     -0.32      0.00
    0    2   26      6.25      0.00
    1    2   26    -10.03      0.00
    2    2   26      0.94      0.00
    3    2   26     -3.87      0.00
    4    2   26     -1.36      0.00
    5    2   26      4.39      0.00
    6    2   26      0.56      0.00
    7    2   26     -0.44      0.00
    8    2   26      3.07      0.00
    9    2   26      2.17      0.00
   10    2   26      0.60      0.00
   11    2   26     -1.02      0.00
   12    2   26     -0.69      0.00
   13    2   26      1.03      0.00
   14    2   26      0.17      0.00
   15    2   26     -0.44      0.00
   16    2   26      1.17      0.00
   17    2   26     -0.54      0.00
    1    3   26     -0.22      0.00
    2    3   26      4.01      0.00
    3    3   26      0.53      0.00
    4    3   26      4.93      0.00
    5    3   26      0.27      0.00
    6    3   26      0.15      0.00
    7    3   26      2.11      0.00
    8    3   26     -0.74      0.00
    9    3   26     -2.37      0.00
   10    3   26      0.00      0.00
   11    3   26      2.17      0.00
   12    3   26     -1.73      0.00
   13    3   26     -2.68      0.00
   14    3   26     -1.79      0.00
   15    3   26      0.09      0.00
   16    3   26      1.40      0.00
   17    3   26      2.36      0.00
    0    4   26      4.84      0.00
    1    4   26      0.66      0.00
    2    4   26      0.63      0.00
    3    4   26     -1.43      0.00
    4    4   26      3.00      0.00
    5    4   26      0.15      0.00
    6    4   26     -0.27      0.00
    7    4   26      2.19      0.00
    8    4   26      0.63      0.00
    9    4   26     -1.50      0.00
   10    4   26      0.70      0.00
   11    4   26     -1.72      0.00
   12    4   26      1.24      0.00
   13    4   26      1.45      0.00
   14    4   26      0.49      0.00
   15    4   26     -0.23      0.00
   16    4   26     -0.53      0.00
    1    5   26      1.63      0.00
    2    5   26     -7.79      0.00
    3    5   26     -0.15      0.00
    4    5   26     -0.14      0.00
    5    5   26     -1.89      0.00
    6    5   26     -0.24      0.00
    7    5   26     -0.28      0.00
    8    5   26      1.32      0.00
    9    5   26     -0.26      0.00
   10    5   26      0.37      0.00
   11    5   26      1.98      0.00
   12    5   26      0.35      0.00
   13    5   26     -2.78      0.00
   14    5   26      0.25      0.00
   15    5   26     -0.04      0.00
   16    5   26      1.03      0.00
    0    6   26      1.67      0.00
    1    6   26      2.95      0.00
    2    6   26      2.92      0.00
    3    6   26     -1.52      0.00
    4    6   26      1.12      0.00
    5    6   26      4.64      0.00
    6    6   26      4.29      0.00
    7    6   26     -0.97      0.00
    8    6   26     -0.16      0.00
    9    6   26     -1.38      0.00
   10    6   26     -1.58      0.00
   11    6   26      1.02      0.00
   12    6   26      2.48      0.00
   13    6   26      0.42      0.00
   14    6   26     -0.67      0.00
   15    6   26     -1.74      0.00
   16    6   26      0.08      0.00
    1    7   26     -0.15      0.00
    2    7   26     -1.04      0.00
    3    7   26     -3.05      0.00
    4    7   26     -1.88      0.00
    5    7   26      1.94      0.00
    6    7   26     -1.41      0.00
    7    7   26      0.02      0.00
    8    7   26      3.32      0.00
    9    7   26     -0.64      0.00
   10    7   26     -4.59      0.00
   11    7   26      0.30      0.00
   12    7   26     -0.33      0.00
   13    7   26     -0.79      0.00
   14    7   26      1.69      0.00
   15    7   26     -0.81      0.00
   16    7   26     -0.16      0.00
    0    8   26     -6.06      0.00
    1    8   26      0.28      0.00
    2    8   26      4.89      0.00
    3    8   26     -2.59      0.00
    4    8   26      0.98      0.00
    5    8   26      3.14      0.00
    6    8   26     -0.52      0.00
    7    8   26      1.33      0.00
    8    8   26      1.19      0.00
    9    8   26     -0.26      0.00
   10    8   26     -0.12      0.00
   11    8   26     -0.90      0.00
   12    8   26      1.21      0.00
   13    8   26      0.83      0.00
   14    8   26     -0.77      0.00
   15    8   26     -1.77      0.00
   16    8   26     -0.35      0.00
    1    9   26      2.80      0.00
    2    9   26     -1.37      0.00
    3    9   26     -2.76      0.00
    4    9   26     -1.81      0.00
    5    9   26      2.70      0.00
    6    9   26      1.24      0.00
    7    9   26      0.11      0.00
    8    9   26      0.29      0.00
    9    9   26     -2.30      0.00
   10    9   26     -1.14      0.00
   11    9   26     -0.96      0.00
   12    9   26      3.13      0.00
   13    9   26      2.87      0.00
   14    9   26      0.67      0.00
   15    9   26     -0.34      0.00
    0   10   26     -8.61      0.00
    1   10   26     -0.99      0.00
    2   10   26      1.79      0.00
    3   10   26      1.02      0.00
    4   10   26      0.58      0.00
    5   10   26     -2.21      0.00
    6   10   26     -1.09      0.00
    7   10   26      0.67      0.00
    8   10   26      3.42      0.00
    9   10   26      1.11      0.00
   10   10   26      0.74      0.00
   11   10   26     -3.27      0.00
   12   10   26     -0.64      0.00
   13   10   26      0.62      0.00
   14   10   26     -1.11      0.00
   15   10   26      0.71      0.00
    1   11   26      0.14      0.00
    2   11   26      1.41      0.00
    3   11   26      1.23      0.00
    4   11   26     -0.25      0.00
    5   11   26      0.21      0.00
    6   11   26      3.20      0.00
    7   11   26     -0.37      0.00
    8   11   26     -1.31      0.00
    9   11   26     -0.56      0.00
   10   11   26     -2.59      0.00
   11   11   26      0.34      0.00
   12   11   26     -0.90      0.00
   13   11   26     -0.18      0.00
   14   11   26      0.16      0.00
    0   12   26     -3.88      0.00
    1   12   26     -2.05      0.00
    2   12   26     -0.03      0.00
    3   12   26     -1.18      0.00
    4   12   26      1.60      0.00
    5   12   26      0.72      0.00
    6   12   26     -1.15      0.00
    7   12   26     -1.20      0.00
    8   12   26     -0.97      0.00
    9   12   26      1.97      0.00
   10   12   26     -1.39      0.00
   11   12   26      2.10      0.00
   12   12   26      0.41      0.00
   13   12   26      1.69      0.00
   14   12   26      1.02      0.00
    1   13   26     -0.57      0.00
    2   13   26     -1.14      0.00
    3   13   26      1.11      0.00
    4   13   26      1.57      0.00
    5   13   26     -3.50      0.00
    6   13   26      1.48      0.00
    7   13   26      1.81      0.00
    8   13   26     -0.20      0.00
    9   13   26      1.09      0.00
   10   13   26     -1.29      0.00
   11   13   26     -0.26      0.00
   12   13   26     -0.32      0.00
   13   13   26     -1.42      0.00
    0   14   26      0.73      0.00
    1   14   26      3.24      0.00
    2   14   26     -0.61      0.00
    3   14   26     -2.91      0.00
    4   14   26      1.08      0.00
    5   14   26      0.09      0.00
    6   14   26     -0.34      0.00
    7   14   26     -0.15      0.00
    8   14   26     -2.36      0.00
    9   14   26     -0.04      0.00
   10   14   26     -0.03      0.00
   11   14   26      0.92      0.00
   12   14   26      1.21      0.00
   13   14   26     -0.19      0.00
    1   15   26     -2.31      0.00
    2   15   26     -3.74      0.00
    3   15   26      2.53      0.00
    4   15   26      3.16      0.00
    5   15   26     -1.41      0.00
    6   15   26     -0.55      0.00
    7   15   26      1.98      0.00
    8   15   26     -0.12      0.00
    9   15   26     -1.51      0.00
   10   15   26      1.31      0.00
   11   15   26      0.76      0.00
   12   15   26      1.40      0.00
    0   16   26      1.10      0.00
    1   16   26     -1.69      0.00
    2   16   26     -3.42      0.00
    3   16   26     -0.92      0.00
    4   16   26     -3.01      0.00
    5   16   26      0.51      0.00
    6   16   26      1.08      0.00
    7   16   26      0.79      0.00
    8   16   26      0.62      0.00
    9   16   26     -1.41      0.00
   10   16   26      0.56      0.00
   11   16   26      0.34      0.00
    1   17   26      0.20      0.00
    2   17   26      0.72      0.00
    3   17   26     -1.17      0.00
    4   17   26     -0.74      0.00
    5   17   26      1.29      0.00
    6   17   26      1.21      0.00
    7   17   26      0.04      0.00
    8   17   26      1.81      0.00
    9   17   26     -2.14      0.00
   10   17   26      0.92      0.00
    0   18   26      0.48      0.00
    1   18   26      1.18      0.00
    2   18   26      1.85      0.00
    3   18   26     -0.55      0.00
    4   18   26      1.32      0.00
    5   18   26      0.52      0.00
    6   18   26      0.70      0.00
    7   18   26     -0.72      0.00
    8   18   26      1.98      0.00
    9   18   26     -0.39      0.00
    1   19   26     -0.34      0.00
    2   19   26     -2.02      0.00
    3   19   26     -3.77      0.00
    4   19   26      1.69      0.00
    5   19   26      0.51      0.00
    6   19   26     -0.26      0.00
    7   19   26     -0.84      0.00
    8   19   26      1.07      0.00
    0   20   26     -1.15      0.00
    1   20   26      3.36      0.00
    2   20   26     -2.17      0.00
    3   20   26     -1.81      0.00
    4   20   26      0.10      0.00
    5   20   26     -1.01      0.00
    6   20   26      0.16      0.00
    7   20   26      1.44      0.00
    1   21   26      1.14      0.00
    2   21   26     -0.24      0.00
    3   21   26     -0.59      0.00
    4   21   26      0.21      0.00
    1    0   27      0.35      0.00
    3    0   27     -8.40      0.00
    5    0   27     -4.10      0.00
    7    0   27      1.32      0.00
    9    0   27     -0.58      0.00
   11    0   27      0.11      0.00
   13    0   27     -0.50      0.00
   15    0   27      0.78      0.00
   17    0   27      2.74      0.00
    0    1   27      7.77      0.00
    1    1   27     -2.16      0.00
    2    1   27      2.99      0.00
    3    1   27     -0.15      0.00
    4    1   27      3.80      0.00
    5    1   27     -2.61      0.00
    6    1   27      0.46      0.00
    7    1   27     -1.89      0.00
    8    1   27      5.06      0.00
    9    1   27     -2.55      0.00
   10    1   27      3.16      0.00
   11    1   27     -0.86      0.00
   12    1   27     -2.09      0.00
   13    1   27     -0.55      0.00
   14    1   27      1.68      0.00
   15    1   27      0.91      0.00
   16    1   27     -2.21      0.00
   17    1   27      0.00      0.00
    1    2   27      4.41      0.00
    2    2   27      2.13      0.00
    3    2   27     -6.50      0.00
    4    2   27      1.76      0.00
    5    2   27     -0.94      0.00
    6    2   27      4.85      0.00
    7    2   27      2.80      0.00
    8    2   27      0.14      0.00
    9    2   27      2.09      0.00
   10    2   27      0.97      0.00
   11    2   27      2.15      0.00
   12    2   27      1.05      0.00
   13    2   27     -0.12      0.00
   14    2   27     -0.77      0.00
   15    2   27     -1.13      0.00
   16    2   27     -0.54      0.00
   17    2   27      0.23      0.00
    0    3   27     -3.99      0.00
    1    3   27      3.46      0.00
    2    3   27      1.12      0.00
    3    3   27     -0.68      0.00
    4    3   27     -2.87      0.00
    5    3   27     -1.81      0.00
    6    3   27     -0.21      0.00
    7    3   27      1.00      0.00
    8    3   27      2.12      0.00
    9    3   27      0.03      0.00
   10    3   27     -0.99      0.00
   11    3   27     -2.61      0.00
   12    3   27     -2.92      0.00
   13    3   27     -1.39      0.00
   14    3   27      0.80      0.00
   15    3   27     -0.94      0.00
   16    3   27      0.06      0.00
    1    4   27      8.61      0.00
    2    4   27     -4.34      0.00
    3    4   27      1.52      0.00
    4    4   27      2.77      0.00
    5    4   27      1.87      0.00
    6    4   27      3.79      0.00
    7    4   27      1.83      0.00
    8    4   27     -0.86      0.00
    9    4   27      1.07      0.00
   10    4   27      0.84      0.00
   11    4   27      1.98      0.00
   12    4   27      0.64      0.00
   13    4   27      0.90      0.00
   14    4   27     -0.35      0.00
   15    4   27     -0.55      0.00
   16    4   27      1.50      0.00
    0    5   27      3.18      0.00
    1    5   27      2.87      0.00
    2    5   27      0.65      0.00
    3    5   27     -0.05      0.00
    4    5   27     -4.73      0.00
    5    5   27     -3.23      0.00
    6    5   27     -4.00      0.00
    7    5   27      0.86      0.00
    8    5   27      1.95      0.00
    9    5   27     -0.77      0.00
   10    5   27      1.40      0.00
   11    5   27     -2.49      0.00
   12    5   27     -1.26      0.00
   13    5   27      2.49      0.00
   14    5   27      0.55      0.00
   15    5   27     -0.06      0.00
   16    5   27     -2.17      0.00
    1    6   27     -2.04      0.00
    2    6   27      0.01      0.00
    3    6   27     -2.88      0.00
    4    6   27      1.66      0.00
    5    6   27      0.35      0.00
    6    6   27      0.99      0.00
    7    6   27      3.34      0.00
    8    6   27     -2.53      0.00
    9    6   27     -0.73      0.00
   10    6   27      1.73      0.00
   11    6   27     -1.98      0.00
   12    6   27     -1.59      0.00
   13    6   27      0.62      0.00
   14    6   27     -1.48      0.00
   15    6   27     -0.15      0.00
   16    6   27     -0.11      0.00
    0    7   27      7.08      0.00
    1    7   27     -4.02      0.00
    2    7   27      2.62      0.00
    3    7   27      0.96      0.00
    4    7   27      3.41      0.00
    5    7   27     -1.51      0.00
    6    7   27     -1.33      0.00
    7    7   27      3.39      0.00
    8    7   27     -0.41      0.00
    9    7   27      1.83      0.00
   10    7   27      1.96      0.00
   11    7   27     -1.44      0.00
   12    7   27     -1.90      0.00
   13    7   27     -0.13      0.00
   14    7   27     -0.67      0.00
   15    7   27      2.07      0.00
   16    7   27     -0.66      0.00
    1    8   27      0.85      0.00
    2    8   27     -0.45      0.00
    3    8   27      1.78      0.00
    4    8   27     -0.85      0.00
    5    8   27     -2.55      0.00
    6    8   27      0.21      0.00
    7    8   27      0.37      0.00
    8    8   27     -1.75      0.00
    9    8   27      1.83      0.00
   10    8   27      0.65      0.00
   11    8   27      2.34      0.00
   12    8   27     -1.11      0.00
   13    8   27     -0.50      0.00
   14    8   27     -1.21      0.00
   15    8   27      0.10      0.00
    0    9   27      4.81      0.00
    1    9   27      0.59      0.00
    2    9   27     -5.02      0.00
    3    9   27     -0.34      0.00
    4    9   27      0.89      0.00
    5    9   27      1.83      0.00
    6    9   27      0.90      0.00
    7    9   27     -1.54      0.00
    8    9   27     -0.34      0.00
    9    9   27     -1.04      0.00
   10    9   27     -0.59      0.00
   11    9   27      1.80      0.00
   12    9   27      0.03      0.00
   13    9   27     -0.65      0.00
   14    9   27      1.27      0.00
   15    9   27      0.55      0.00
    1   10   27     -1.88      0.00
    2   10   27     -4.06      0.00
    3   10   27      0.89      0.00
    4   10   27      2.64      0.00
    5   10   27      0.11      0.00
    6   10   27     -1.78      0.00
    7   10   27     -0.73      0.00
    8   10   27      0.42      0.00
    9   10   27      0.94      0.00
   10   10   27      3.33      0.00
   11   10   27      0.70      0.00
   12   10   27     -0.59      0.00
   13   10   27     -3.09      0.00
   14   10   27     -0.72      0.00
    0   11   27      4.78      0.00
    1   11   27      5.81      0.00
    2   11   27      0.28      0.00
    3   11   27     -1.37      0.00
    4   11   27     -0.65      0.00
    5   11   27      0.99      0.00
    6   11   27      0.88      0.00
    7   11   27      0.25      0.00
    8   11   27     -2.84      0.00
    9   11   27     -2.59      0.00
   10   11   27      0.15      0.00
   11   11   27     -0.26      0.00
   12   11   27      1.68      0.00
   13   11   27     -1.01      0.00
   14   11   27     -1.53      0.00
    1   12   27     -0.02      0.00
    2   12   27     -3.34      0.00
    3   12   27     -1.78      0.00
    4   12   27      1.21      0.00
    5   12   27      4.57      0.00
    6   12   27     -1.05      0.00
    7   12   27     -1.22      0.00
    8   12   27     -0.17      0.00
    9   12   27      0.92      0.00
   10   12   27      2.42      0.00
   11   12   27     -1.29      0.00
   12   12   27      1.10      0.00
   13   12   27      0.96      0.00
   14   12   27     -0.17      0.00
    0   13   27     -1.99      0.00
    1   13   27      1.67      0.00
    2   13   27      1.83      0.00
    3   13   27      1.18      0.00
    4   13   27     -4.07      0.00
    5   13   27      0.42      0.00
    6   13   27      0.56      0.00
    7   13   27     -0.61      0.00
    8   13   27     -0.12      0.00
    9   13   27     -1.01      0.00
   10   13   27      0.65      0.00
   11   13   27     -0.88      0.00
   12   13   27      0.98      0.00
   13   13   27     -0.71      0.00
    1   14   27      0.54      0.00
    2   14   27      2.35      0.00
    3   14   27     -1.40      0.00
    4   14   27     -2.58      0.00
    5   14   27      2.65      0.00
    6   14   27     -0.25      0.00
    7   14   27     -1.98      0.00
    8   14   27     -0.35      0.00
    9   14   27     -0.43      0.00
   10   14   27      0.93      0.00
   11   14   27     -0.06      0.00
   12   14   27      1.62      0.00
   13   14   27     -0.51      0.00
    0   15   27     -1.27      0.00
    1   15   27     -0.18      0.00
    2   15   27     -1.62      0.00
    3   15   27      2.62      0.00
    4   15   27      0.40      0.00
    5   15   27     -1.35      0.00
    6   15   27     -0.04      0.00
    7   15   27      0.02      0.00
    8   15   27     -0.02      0.00
    9   15   27      0.65      0.00
   10   15   27     -0.25      0.00
   11   15   27      0.36      0.00
   12   15   27      0.18      0.00
    1   16   27      1.23      0.00
    2   16   27      0.70      0.00
    3   16   27     -0.11      0.00
    4   16   27     -1.57      0.00
    5   16   27     -2.73      0.00
    6   16   27     -0.10      0.00
    7   16   27     -0.30      0.00
    8   16   27      1.18      0.00
    9   16   27      1.52      0.00
   10   16   27     -1.45      0.00
   11   16   27     -0.28      0.00
    0   17   27     -2.85      0.00
    1   17   27      1.93      0.00
    2   17   27     -0.43      0.00
    3   17   27      1.77      0.00
    4   17   27      2.49      0.00
    5   17   27     -1.17      0.00
    6   17   27     -1.67      0.00
    7   17   27      0.22      0.00
    8   17   27     -1.74      0.00
    9   17   27     -0.66      0.00
   10   17   27      1.56      0.00
    1   18   27      0.28      0.00
    2   18   27      1.01      0.00
    3   18   27      0.60      0.00
    4   18   27      0.81      0.00
    5   18   27     -0.89      0.00
    6   18   27     -1.76      0.00
    7   18   27      1.03      0.00
    8   18   27      1.18      0.00
    9   18   27      1.38      0.00
    0   19   27      0.04      0.00
    1   19   27      0.46      0.00
    2   19   27      0.56      0.00
    3   19   27     -0.37      0.00
    4   19   27      0.91      0.00
    5   19   27      0.64      0.00
    6   19   27     -1.19      0.00
    7   19   27     -0.05      0.00
    8   19   27     -1.64      0.00
    1   20   27     -2.73      0.00
    2   20   27      1.15      0.00
    3   20   27      0.70      0.00
    4   20   27     -1.56      0.00
    5   20   27     -2.54      0.00
    6   20   27     -1.08      0.00
    0   21   27      1.59      0.00
    1   21   27     -2.40      0.00
    2   21   27     -0.58      0.00
    3   21   27      1.25      0.00
    4   21   27      0.70      0.00
    0    0   28     -6.56      0.00
    2    0   28      2.79      0.00
    4    0   28     -3.07      0.00
    6    0   28     -4.62      0.00
    8    0   28      4.47      0.00
   10    0   28     -1.84      0.00
   12    0   28     -2.26      0.00
   14    0   28      3.34      0.00
   16    0   28      1.82      0.00
    1    1   28      6.61      0.00
    2    1   28     -7.51      0.00
    3    1   28     -3.07      0.00
    4    1   28      1.58      0.00
    5    1   28      4.08      0.00
    6    1   28     -1.45      0.00
    7    1   28      3.88      0.00
    8    1   28     -2.24      0.00
    9    1   28     -0.88      0.00
   10    1   28     -0.41      0.00
   11    1   28      2.21      0.00
   12    1   28     -1.90      0.00
   13    1   28     -0.17      0.00
   14    1   28      0.62      0.00
   15    1   28     -1.73      0.00
   16    1   28      1.03      0.00
    0    2   28     -2.30      0.00
    1    2   28      9.16      0.00
    2    2   28     -1.27      0.00
    3    2   28      7.08      0.00
    4    2   28     -1.70      0.00
    5    2   28     -0.55      0.00
    6    2   28     -1.90      0.00
    7    2   28      3.28      0.00
    8    2   28      2.75      0.00
    9    2   28      0.44      0.00
   10    2   28      2.83      0.00
   11    2   28     -0.19      0.00
   12    2   28      0.17      0.00
   13    2   28      1.73      0.00
   14    2   28     -0.14      0.00
   15    2   28     -0.46      0.00
   16    2   28      0.73      0.00
    1    3   28      0.13      0.00
    2    3   28     -4.34      0.00
    3    3   28     -1.87      0.00
    4    3   28     -5.15      0.00
    5    3   28     -1.49      0.00
    6    3   28     -1.71      0.00
    7    3   28      1.76      0.00
    8    3   28     -0.21      0.00
    9    3   28      0.57      0.00
   10    3   28     -0.23      0.00
   11    3   28     -2.89      0.00
   12    3   28     -1.45      0.00
   13    3   28      0.26      0.00
   14    3   28     -0.05      0.00
   15    3   28     -0.39      0.00
   16    3   28     -1.22      0.00
    0    4   28      4.84      0.00
    1    4   28     -5.82      0.00
    2    4   28      2.91      0.00
    3    4   28      2.95      0.00
    4    4   28      4.32      0.00
    5    4   28      4.65      0.00
    6    4   28     -0.44      0.00
    7    4   28     -0.58      0.00
    8    4   28      2.10      0.00
    9    4   28      0.52      0.00
   10    4   28      3.02      0.00
   11    4   28      0.80      0.00
   12    4   28     -0.67      0.00
   13    4   28      0.42      0.00
   14    4   28     -0.13      0.00
   15    4   28      1.40      0.00
   16    4   28      2.19      0.00
    1    5   28      2.54      0.00
    2    5   28      6.08      0.00
    3    5   28     -3.90      0.00
    4    5   28     -2.27      0.00
    5    5   28     -2.84      0.00
    6    5   28      0.10      0.00
    7    5   28      1.10      0.00
    8    5   28     -1.06      0.00
    9    5   28     -0.44      0.00
   10    5   28     -1.29      0.00
   11    5   28      0.65      0.00
   12    5   28     -0.32      0.00
   13    5   28      0.44      0.00
   14    5   28     -0.11      0.00
   15    5   28     -0.53      0.00
   16    5   28     -0.10      0.00
    0    6   28     -4.03      0.00
    1    6   28      0.34      0.00
    2    6   28     -4.46      0.00
    3    6   28     -0.39      0.00
    4    6   28      0.31      0.00
    5    6   28      0.98      0.00
    6    6   28     -1.10      0.00
    7    6   28     -0.69      0.00
    8    6   28      2.41      0.00
    9    6   28     -1.45      0.00
   10    6   28     -0.76      0.00
   11    6   28     -1.02      0.00
   12    6   28     -1.60      0.00
   13    6   28      0.68      0.00
   14    6   28      0.02      0.00
   15    6   28     -1.21      0.00
   16    6   28      0.48      0.00
    1    7   28      6.68      0.00
    2    7   28     -4.91      0.00
    3    7   28      3.00      0.00
    4    7   28      2.16      0.00
    5    7   28      0.57      0.00
    6    7   28      2.16      0.00
    7    7   28      0.36      0.00
    8    7   28     -0.48      0.00
    9    7   28     -1.39      0.00
   10    7   28      2.84      0.00
   11    7   28      1.90      0.00
   12    7   28      1.25      0.00
   13    7   28     -0.67      0.00
   14    7   28     -1.07      0.00
   15    7   28     -1.09      0.00
    0    8   28     -1.03      0.00
    1    8   28      5.08      0.00
    2    8   28      1.07      0.00
    3    8   28     -1.01      0.00
    4    8   28     -3.00      0.00
    5    8   28     -2.54      0.00
    6    8   28      0.41      0.00
    7    8   28      1.56      0.00
    8    8   28      0.65      0.00
    9    8   28     -1.69      0.00
   10    8   28     -0.49      0.00
   11    8   28     -2.57      0.00
   12    8   28      1.66      0.00
   13    8   28      3.74      0.00
   14    8   28      0.61      0.00
   15    8   28     -2.19      0.00
    1    9   28     -0.15      0.00
    2    9   28     -0.79      0.00
    3    9   28     -2.33      0.00
    4    9   28      1.98      0.00
    5    9   28      0.23      0.00
    6    9   28      0.78      0.00
    7    9   28      1.85      0.00
    8    9   28     -2.20      0.00
    9    9   28      0.07      0.00
   10    9   28     -1.15      0.00
   11    9   28     -0.47      0.00
   12    9   28     -0.96      0.00
   13    9   28      0.38      0.00
   14    9   28     -0.21      0.00
   15    9   28      0.01      0.00
    0   10   28     -2.69      0.00
    1   10   28     -2.44      0.00
    2   10   28      3.60      0.00
    3   10   28      0.13      0.00
    4   10   28     -0.43      0.00
    5   10   28     -1.27      0.00
    6   10   28      0.34      0.00
    7   10   28      1.92      0.00
    8   10   28     -0.72      0.00
    9   10   28      1.70      0.00
   10   10   28     -2.59      0.00
   11   10   28     -0.08      0.00
   12   10   28     -0.07      0.00
   13   10   28      3.61      0.00
   14   10   28      0.68      0.00
    1   11   28      1.72      0.00
    2   11   28      2.70      0.00
    3   11   28      1.14      0.00
    4   11   28     -2.50      0.00
    5   11   28     -2.04      0.00
    6   11   28      0.04      0.00
    7   11   28      0.46      0.00
    8   11   28     -0.40      0.00
    9   11   28     -1.70      0.00
   10   11   28     -1.27      0.00
   11   11   28      0.55      0.00
   12   11   28      0.23      0.00
   13   11   28      0.25      0.00
   14   11   28      0.50      0.00
    0   12   28      0.62      0.00
    1   12   28     -2.24      0.00
    2   12   28     -1.41      0.00
    3   12   28      1.29      0.00
    4   12   28      3.04      0.00
    5   12   28     -2.35      0.00
    6   12   28      0.53      0.00
    7   12   28      1.73      0.00
    8   12   28      1.95      0.00
    9   12   28      0.72      0.00
   10   12   28     -0.99      0.00
   11   12   28     -1.97      0.00
   12   12   28     -0.59      0.00
   13   12   28      1.51      0.00
    1   13   28     -2.40      0.00
    2   13   28     -0.07      0.00
    3   13   28      3.29      0.00
    4   13   28      1.86      0.00
    5   13   28     -3.82      0.00
    6   13   28     -1.53      0.00
    7   13   28     -0.34      0.00
    8   13   28     -1.50      0.00
    9   13   28     -0.44      0.00
   10   13   28      0.06      0.00
   11   13   28      0.79      0.00
   12   13   28     -0.74      0.00
   13   13   28     -1.13      0.00
    0   14   28      0.56      0.00
    1   14   28     -0.78      0.00
    2   14   28     -1.03      0.00
    3   14   28      0.68      0.00
    4   14   28      2.44      0.00
    5   14   28     -0.16      0.00
    6   14   28      0.69      0.00
    7   14   28     -0.34      0.00
    8   14   28     -0.73      0.00
    9   14   28     -0.50      0.00
   10   14   28     -0.96      0.00
   11   14   28      0.66      0.00
   12   14   28     -0.11      0.00
    1   15   28     -0.82      0.00
    2   15   28      0.61      0.00
    3   15   28     -1.46      0.00
    4   15   28      1.24      0.00
    5   15   28     -0.17      0.00
    6   15   28     -1.17      0.00
    7   15   28     -0.63      0.00
    8   15   28     -1.26      0.00
    9   15   28      0.37      0.00
   10   15   28      0.94      0.00
   11   15   28     -0.92      0.00
    0   16   28      1.17      0.00
    1   16   28      2.24      0.00
    2   16   28      3.45      0.00
    3   16   28     -1.92      0.00
    4   16   28      0.52      0.00
    5   16   28      1.77      0.00
    6   16   28     -0.44      0.00
    7   16   28     -0.90      0.00
    8   16   28     -1.06      0.00
    9   16   28     -0.08      0.00
   10   16   28     -1.47      0.00
   11   16   28     -0.67      0.00
    1   17   28     -1.68      0.00
    2   17   28     -1.07      0.00
    3   17   28      1.05      0.00
    4   17   28      2.47      0.00
    5   17   28     -1.53      0.00
    6   17   28     -0.73      0.00
    7   17   28     -0.26      0.00
    8   17   28     -3.02      0.00
    9   17   28     -0.39      0.00
   10   17   28      0.75      0.00
    0   18   28      3.41      0.00
    1   18   28     -0.25      0.00
    2   18   28     -4.78      0.00
    3   18   28      0.99      0.00
    4   18   28     -1.87      0.00
    5   18   28     -0.44      0.00
    6   18   28      1.23      0.00
    7   18   28     -0.18      0.00
    8   18   28     -1.48      0.00
    9   18   28      0.71      0.00
    1   19   28      2.68      0.00
    2   19   28     -0.36      0.00
    3   19   28      1.90      0.00
    4   19   28     -0.44      0.00
    5   19   28     -0.75      0.00
    6   19   28      0.58      0.00
    7   19   28      1.83      0.00
    0   20   28     -0.93      0.00
    1   20   28      1.92      0.00
    2   20   28     -0.31      0.00
    3   20   28     -0.53      0.00
    4   20   28     -0.63      0.00
    5   20   28     -0.86      0.00
    1   21   28      0.20      0.00
    2   21   28     -1.87      0.00
    3   21   28     -1.31      0.00
    1    0   29      1.95      0.00
    3    0   29      3.01      0.00
    5    0   29     -2.85      0.00
    7    0   29      0.22      0.00
    9    0   29      3.65      0.00
   11    0   29     -2.44      0.00
   13    0   29      0.67      0.00
   15    0   29      1.23      0.00
    0    1   29      1.16      0.00
    1    1   29     -6.71      0.00
    2    1   29     -0.26      0.00
    3    1   29     -3.52      0.00
    4    1   29     -0.90      0.00
    5    1   29      5.20      0.00
    6    1   29      0.69      0.00
    7    1   29     -1.97      0.00
    8    1   29      1.03      0.00
    9    1   29      0.58      0.00
   10    1   29      0.68      0.00
   11    1   29      0.29      0.00
   12    1   29     -0.01      0.00
   13    1   29     -1.03      0.00
   14    1   29     -0.05      0.00
   15    1   29      0.05      0.00
   16    1   29      0.84      0.00
    1    2   29     -0.44      0.00
    2    2   29      9.53      0.00
    3    2   29     -0.28      0.00
    4    2   29     -0.54      0.00
    5    2   29     -2.02      0.00
    6    2   29     -1.44      0.00
    7    2   29      0.48      0.00
    8    2   29      0.72      0.00
    9    2   29      0.54      0.00
   10    2   29      0.22      0.00
   11    2   29      1.50      0.00
   12    2   29      0.69      0.00
   13    2   29     -0.34      0.00
   14    2   29     -0.61      0.00
   15    2   29      0.33      0.00
   16    2   29      1.26      0.00
    0    3   29      5.44      0.00
    1    3   29     -4.59      0.00
    2    3   29     -0.81      0.00
    3    3   29     -5.75      0.00
    4    3   29     -1.24      0.00
    5    3   29     -0.92      0.00
    6    3   29     -0.61      0.00
    7    3   29     -1.63      0.00
    8    3   29      3.78      0.00
    9    3   29     -0.77      0.00
   10    3   29     -1.23      0.00
   11    3   29      1.51      0.00
   12    3   29     -0.06      0.00
   13    3   29      0.91      0.00
   14    3   29      1.83      0.00
   15    3   29     -1.14      0.00
   16    3   29     -2.72      0.00
    1    4   29      0.14      0.00
    2    4   29     -0.35      0.00
    3    4   29     -2.09      0.00
    4    4   29      4.50      0.00
    5    4   29     -0.65      0.00
    6    4   29     -1.33      0.00
    7    4   29      2.74      0.00
    8    4   29     -1.66      0.00
    9    4   29      0.14      0.00
   10    4   29      1.20      0.00
   11    4   29      1.89      0.00
   12    4   29     -0.35      0.00
   13    4   29     -0.88      0.00
   14    4   29     -0.43      0.00
   15    4   29     -0.27      0.00
   16    4   29      0.87      0.00
    0    5   29      0.71      0.00
    1    5   29      5.28      0.00
    2    5   29      1.55      0.00
    3    5   29      0.97      0.00
    4    5   29     -2.83      0.00
    5    5   29     -2.74      0.00
    6    5   29      2.28      0.00
    7    5   29      3.16      0.00
    8    5   29      0.65      0.00
    9    5   29      0.56      0.00
   10    5   29     -1.61      0.00
   11    5   29     -0.83      0.00
   12    5   29      1.47      0.00
   13    5   29     -0.72      0.00
   14    5   29      1.35      0.00
   15    5   29     -0.31      0.00
   16    5   29     -1.04      0.00
    1    6   29      1.78      0.00
    2    6   29     -0.15      0.00
    3    6   29     -3.65      0.00
    4    6   29      0.92      0.00
    5    6   29     -0.86      0.00
    6    6   29     -2.57      0.00
    7    6   29      1.27      0.00
    8    6   29      0.63      0.00
    9    6   29      2.51      0.00
   10    6   29     -1.64      0.00
   11    6   29     -0.04      0.00
   12    6   29     -0.82      0.00
   13    6   29     -1.17      0.00
   14    6   29      0.75      0.00
   15    6   29      0.14      0.00
    0    7   29      0.10      0.00
    1    7   29     -0.50      0.00
    2    7   29      3.48      0.00
    3    7   29     -0.52      0.00
    4    7   29     -0.36      0.00
    5    7   29      0.59      0.00
    6    7   29     -1.27      0.00
    7    7   29     -0.59      0.00
    8    7   29      1.36      0.00
    9    7   29      1.50      0.00
   10    7   29     -0.29      0.00
   11    7   29      1.71      0.00
   12    7   29      1.30      0.00
   13    7   29     -0.47      0.00
   14    7   29      1.02      0.00
   15    7   29      0.39      0.00
    1    8   29      0.72      0.00
    2    8   29      3.53      0.00
    3    8   29     -4.90      0.00
    4    8   29     -0.34      0.00
    5    8   29      0.36      0.00
    6    8   29     -2.38      0.00
    7    8   29     -0.66      0.00
    8    8   29      1.67      0.00
    9    8   29      0.34      0.00
   10    8   29      0.26      0.00
   11    8   29     -1.47      0.00
   12    8   29     -0.78      0.00
   13    8   29     -0.11      0.00
   14    8   29      1.46      0.00
   15    8   29      0.28      0.00
    0    9   29      1.59      0.00
    1    9   29      1.05      0.00
    2    9   29      0.39      0.00
    3    9   29      0.87      0.00
    4    9   29      1.15      0.00
    5    9   29     -0.40      0.00
    6    9   29     -2.37      0.00
    7    9   29     -0.13      0.00
    8    9   29      1.74      0.00
    9    9   29     -0.11      0.00
   10    9   29      1.68      0.00
   11    9   29     -1.83      0.00
   12    9   29     -0.94      0.00
   13    9   29     -3.12      0.00
   14    9   29     -1.06      0.00
    1   10   29      3.10      0.00
    2   10   29     -3.15      0.00
    3   10   29     -0.47      0.00
    4   10   29      1.17      0.00
    5   10   29      2.13      0.00
    6   10   29     -0.46      0.00
    7   10   29     -2.24      0.00
    8   10   29     -0.06      0.00
    9   10   29     -0.03      0.00
   10   10   29      2.57      0.00
   11   10   29     -1.27      0.00
   12   10   29      1.77      0.00
   13   10   29      0.21      0.00
   14   10   29     -0.68      0.00
    0   11   29     -0.28      0.00
    1   11   29      4.03      0.00
    2   11   29      0.23      0.00
    3   11   29     -0.62      0.00
    4   11   29     -0.59      0.00
    5   11   29     -1.12      0.00
    6   11   29     -0.02      0.00
    7   11   29     -1.41      0.00
    8   11   29     -0.33      0.00
    9   11   29      0.07      0.00
   10   11   29      0.25      0.00
   11   11   29      1.00      0.00
   12   11   29      0.63      0.00
   13   11   29     -1.28      0.00
   14   11   29     -0.83      0.00
    1   12   29      1.85      0.00
    2   12   29     -0.58      0.00
    3   12   29     -2.63      0.00
    4   12   29      0.11      0.00
    5   12   29      1.99      0.00
    6   12   29     -0.07      0.00
    7   12   29     -1.13      0.00
    8   12   29     -0.53      0.00
    9   12   29      1.59      0.00
   10   12   29      0.99      0.00
   11   12   29     -0.09      0.00
   12   12   29     -1.08      0.00
   13   12   29     -0.61      0.00
    0   13   29     -2.22      0.00
    1   13   29      3.09      0.00
    2   13   29      2.02      0.00
    3   13   29     -1.08      0.00
    4   13   29     -0.82      0.00
    5   13   29      0.76      0.00
    6   13   29      0.68      0.00
    7   13   29     -0.82      0.00
    8   13   29     -2.53      0.00
    9   13   29     -0.60      0.00
   10   13   29     -1.27      0.00
   11   13   29      1.73      0.00
   12   13   29      0.13      0.00
   13   13   29     -1.01      0.00
    1   14   29      1.38      0.00
    2   14   29     -1.07      0.00
    3   14   29     -0.78      0.00
    4   14   29      0.05      0.00
    5   14   29      1.20      0.00
    6   14   29     -0.73      0.00
    7   14   29      0.97      0.00
    8   14   29     -0.76      0.00
    9   14   29     -0.08      0.00
   10   14   29     -0.71      0.00
   11   14   29      0.15      0.00
   12   14   29      0.55      0.00
    0   15   29      2.34      0.00
    1   15   29      3.46      0.00
    2   15   29     -1.35      0.00
    3   15   29      1.71      0.00
    4   15   29     -3.49      0.00
    5   15   29     -2.73      0.00
    6   15   29      1.31      0.00
    7   15   29      1.49      0.00
    8   15   29     -1.62      0.00
    9   15   29     -1.15      0.00
   10   15   29     -0.40      0.00
   11   15   29     -1.04      0.00
    1   16   29      1.24      0.00
    2   16   29      1.71      0.00
    3   16   29      4.19      0.00
    4   16   29     -0.26      0.00
    5   16   29      0.37      0.00
    6   16   29     -1.59      0.00
    7   16   29     -0.25      0.00
    8   16   29      0.99      0.00
    9   16   29     -1.40      0.00
   10   16   29     -1.14      0.00
    0   17   29     -0.27      0.00
    1   17   29     -0.37      0.00
    2   17   29     -0.17      0.00
    3   17   29      1.36      0.00
    4   17   29     -1.88      0.00
    5   17   29     -0.99      0.00
    6   17   29     -0.85      0.00
    7   17   29      0.57      0.00
    8   17   29      0.42      0.00
    9   17   29     -1.33      0.00
    1   18   29     -0.64      0.00
    2   18   29      0.84      0.00
    3   18   29     -3.31      0.00
    4   18   29     -0.84      0.00
    5   18   29      0.12      0.00
    6   18   29     -1.75      0.00
    7   18   29     -3.25      0.00
    8   18   29      1.33      0.00
    0   19   29      0.60      0.00
    1   19   29      1.86      0.00
    2   19   29      3.01      0.00
    3   19   29     -0.73      0.00
    4   19   29      0.31      0.00
    5   19   29     -0.59      0.00
    6   19   29     -0.26      0.00
    7   19   29      0.86      0.00
    1   20   29     -0.06      0.00
    2   20   29     -0.03      0.00
    3   20   29      0.60      0.00
    4   20   29      1.21      0.00
    5   20   29     -0.36      0.00
    1   21   29     -1.17      0.00
    0    0   30      9.56      0.00
    2    0   30     -0.61      0.00
    4    0   30      2.67      0.00
    6    0   30      0.51      0.00
    8    0   30     -0.30      0.00
   10    0   30      1.54      0.00
   12    0   30     -1.10      0.00
   14    0   30      1.10      0.00
   16    0   30     -3.09      0.00
    1    1   30     -2.12      0.00
    2    1   30     -1.45      0.00
    3    1   30     -3.70      0.00
    4    1   30      0.25      0.00
    5    1   30      0.93      0.00
    6    1   30      1.61      0.00
    7    1   30      1.72      0.00
    8    1   30      0.83      0.00
    9    1   30     -3.22      0.00
   10    1   30      1.52      0.00
   11    1   30      1.01      0.00
   12    1   30      0.81      0.00
   13    1   30      0.91      0.00
   14    1   30     -0.15      0.00
   15    1   30     -0.58      0.00
   16    1   30     -1.45      0.00
    0    2   30     -3.35      0.00
    1    2   30      3.69      0.00
    2    2   30      3.17      0.00
    3    2   30      1.48      0.00
    4    2   30      2.63      0.00
    5    2   30     -6.64      0.00
    6    2   30     -0.92      0.00
    7    2   30      1.26      0.00
    8    2   30     -1.03      0.00
    9    2   30     -0.37      0.00
   10    2   30      0.04      0.00
   11    2   30     -1.33      0.00
   12    2   30     -1.29      0.00
   13    2   30     -0.10      0.00
   14    2   30      2.14      0.00
   15    2   30      1.17      0.00
   16    2   30      0.17      0.00
    1    3   30      5.62      0.00
    2    3   30     -1.39      0.00
    3    3   30     -3.12      0.00
    4    3   30     -0.24      0.00
    5    3   30      2.37      0.00
    6    3   30     -0.50      0.00
    7    3   30      1.64      0.00
    8    3   30     -0.61      0.00
    9    3   30     -0.13      0.00
   10    3   30      0.98      0.00
   11    3   30      1.87      0.00
   12    3   30      1.64      0.00
   13    3   30      0.43      0.00
   14    3   30      2.13      0.00
   15    3   30     -0.49      0.00
   16    3   30     -0.08      0.00
    0    4   30    -11.05      0.00
    1    4   30      4.78      0.00
    2    4   30     -2.02      0.00
    3    4   30      2.12      0.00
    4    4   30     -0.04      0.00
    5    4   30     -2.67      0.00
    6    4   30     -3.75      0.00
    7    4   30     -1.11      0.00
    8    4   30      2.50      0.00
    9    4   30     -0.28      0.00
   10    4   30      1.57      0.00
   11    4   30     -1.70      0.00
   12    4   30     -2.37      0.00
   13    4   30      0.87      0.00
   14    4   30      0.74      0.00
   15    4   30     -1.33      0.00
   16    4   30     -0.15      0.00
    1    5   30      0.76      0.00
    2    5   30     -1.87      0.00
    3    5   30      1.79      0.00
    4    5   30     -1.06      0.00
    5    5   30      2.91      0.00
    6    5   30      0.57      0.00
    7    5   30      0.10      0.00
    8    5   30      0.01      0.00
    9    5   30     -0.60      0.00
   10    5   30      3.58      0.00
   11    5   30      0.48      0.00
   12    5   30      0.07      0.00
   13    5   30     -0.70      0.00
   14    5   30     -0.61      0.00
   15    5   30      1.13      0.00
    0    6   30      5.36      0.00
    1    6   30      1.78      0.00
    2    6   30      0.22      0.00
    3    6   30      2.35      0.00
    4    6   30      1.22      0.00
    5    6   30     -1.03      0.00
    6    6   30     -1.95      0.00
    7    6   30     -0.41      0.00
    8    6   30      2.44      0.00
    9    6   30     -0.13      0.00
   10    6   30      3.05      0.00
   11    6   30     -1.63      0.00
   12    6   30     -1.47      0.00
   13    6   30      1.23      0.00
   14    6   30      0.22      0.00
   15    6   30     -0.34      0.00
    1    7   30     -2.63      0.00
    2    7   30     -1.62      0.00
    3    7   30     -0.16      0.00
    4    7   30      0.68      0.00
    5    7   30     -1.89      0.00
    6    7   30      0.60      0.00
    7    7   30      1.71      0.00
    8    7   30     -3.79      0.00
    9    7   30     -0.49      0.00
   10    7   30      1.45      0.00
   11    7   30      0.55      0.00
   12    7   30      1.70      0.00
   13    7   30      0.79      0.00
   14    7   30     -1.80      0.00
   15    7   30      1.10      0.00
    0    8   30      0.67      0.00
    1    8   30      3.03      0.00
    2    8   30     -2.46      0.00
    3    8   30      1.91      0.00
    4    8   30     -0.77      0.00
    5    8   30     -1.30      0.00
    6    8   30      0.64      0.00
    7    8   30      0.43      0.00
    8    8   30     -0.49      0.00
    9    8   30      1.30      0.00
   10    8   30     -1.65      0.00
   11    8   30      0.02      0.00
   12    8   30     -1.26      0.00
   13    8   30      1.08      0.00
   14    8   30     -0.18      0.00
    1    9   30      3.05      0.00
    2    9   30     -0.36      0.00
    3    9   30      2.31      0.00
    4    9   30      0.20      0.00
    5    9   30     -2.63      0.00
    6    9   30      0.06      0.00
    7    9   30      1.39      0.00
    8    9   30     -0.64      0.00
    9    9   30     -0.82      0.00
   10    9   30     -0.30      0.00
   11    9   30      1.57      0.00
   12    9   30     -0.15      0.00
   13    9   30     -1.72      0.00
   14    9   30     -1.38      0.00
    0   10   30      2.86      0.00
    1   10   30      1.57      0.00
    2   10   30      0.34      0.00
    3   10   30     -1.61      0.00
    4   10   30     -0.71      0.00
    5   10   30     -0.72      0.00
    6   10   30      1.42      0.00
    7   10   30      1.72      0.00
    8   10   30     -0.06      0.00
    9   10   30     -0.16      0.00
   10   10   30     -1.64      0.00
   11   10   30     -0.20      0.00
   12   10   30      0.59      0.00
   13   10   30      2.98      0.00
   14   10   30      1.74      0.00
    1   11   30     -1.73      0.00
    2   11   30      0.43      0.00
    3   11   30      0.78      0.00
    4   11   30      1.65      0.00
    5   11   30     -1.89      0.00
    6   11   30     -2.21      0.00
    7   11   30      2.20      0.00
    8   11   30     -0.81      0.00
    9   11   30      0.30      0.00
   10   11   30      0.03      0.00
   11   11   30     -0.91      0.00
   12   11   30     -0.38      0.00
   13   11   30     -0.11      0.00
    0   12   30      2.88      0.00
    1   12   30      0.90      0.00
    2   12   30     -0.17      0.00
    3   12   30      0.77      0.00
    4   12   30     -2.54      0.00
    5   12   30     -2.35      0.00
    6   12   30     -0.16      0.00
    7   12   30      1.27      0.00
    8   12   30     -0.37      0.00
    9   12   30      0.89      0.00
   10   12   30     -0.71      0.00
   11   12   30     -1.77      0.00
   12   12   30      0.24      0.00
   13   12   30      1.67      0.00
    1   13   30      0.23      0.00
    2   13   30      0.33      0.00
    3   13   30      3.01      0.00
    4   13   30      0.57      0.00
    5   13   30      0.59      0.00
    6   13   30     -0.42      0.00
    7   13   30      0.01      0.00
    8   13   30      0.51      0.00
    9   13   30     -1.10      0.00
   10   13   30      0.64      0.00
   11   13   30     -2.50      0.00
   12   13   30      0.25      0.00
    0   14   30      2.14      0.00
    1   14   30     -1.27      0.00
    2   14   30     -0.66      0.00
    3   14   30     -0.34      0.00
    4   14   30      0.88      0.00
    5   14   30     -1.28      0.00
    6   14   30     -1.23      0.00
    7   14   30     -0.85      0.00
    8   14   30      1.68      0.00
    9   14   30      0.61      0.00
   10   14   30     -0.01      0.00
   11   14   30     -1.82      0.00
   12   14   30      0.40      0.00
    1   15   30     -0.47      0.00
    2   15   30      1.20      0.00
    3   15   30     -0.12      0.00
    4   15   30      0.41      0.00
    5   15   30     -2.09      0.00
    6   15   30      0.16      0.00
    7   15   30     -1.33      0.00
    8   15   30     -0.98      0.00
    9   15   30      0.46      0.00
   10   15   30      0.46      0.00
   11   15   30     -0.87      0.00
    0   16   30      0.74      0.00
    1   16   30     -0.41      0.00
    2   16   30     -0.12      0.00
    3   16   30      0.58      0.00
    4   16   30      4.03      0.00
    5   16   30      0.98      0.00
    6   16   30     -0.40      0.00
    7   16   30     -2.07      0.00
    8   16   30     -0.73      0.00
    9   16   30      0.27      0.00
   10   16   30     -0.68      0.00
    1   17   30     -0.10      0.00
    2   17   30     -1.92      0.00
    3   17   30     -1.38      0.00
    4   17   30      0.13      0.00
    5   17   30     -1.83      0.00
    6   17   30      0.90      0.00
    7   17   30      1.98      0.00
    8   17   30     -1.45      0.00
    9   17   30     -0.72      0.00
    0   18   30      0.37      0.00
    1   18   30      1.27      0.00
    2   18   30      1.39      0.00
    3   18   30     -0.84      0.00
    4   18   30      0.23      0.00
    5   18   30      0.41      0.00
    6   18   30     -0.89      0.00
    7   18   30     -1.18      0.00
    8   18   30     -2.33      0.00
    1   19   30     -1.35      0.00
    2   19   30     -0.91      0.00
    3   19   30     -0.09      0.00
    4   19   30     -0.36      0.00
    5   19   30     -1.72      0.00
    6   19   30      0.00      0.00
    0   20   30      2.87      0.00
    1   20   30     -0.82      0.00
    2   20   30     -1.24      0.00
    3   20   30      1.63      0.00
    4   20   30      2.01      0.00
    1    0   31      6.58      0.00
    3    0   31     -1.20      0.00
    5    0   31      3.53      0.00
    7    0   31     -3.02      0.00
    9    0   31     -1.22      0.00
   11    0   31      2.41      0.00
   13    0   31     -2.15      0.00
   15    0   31     -2.24      0.00
    0    1   31    -14.43      0.00
    1    1   31      1.59      0.00
    2    1   31      1.67      0.00
    3    1   31      0.90      0.00
    4    1   31      2.42      0.00
    5    1   31     -0.62      0.00
    6    1   31     -4.90      0.00
    7    1   31      0.11      0.00
    8    1   31      4.09      0.00
    9    1   31      1.84      0.00
   10    1   31     -1.94      0.00
   11    1   31      1.51      0.00
   12    1   31      0.61      0.00
   13    1   31      1.76      0.00
   14    1   31      1.28      0.00
   15    1   31     -1.90      0.00
   16    1   31      0.36      0.00
    1    2   31      1.52      0.00
    2    2   31     -5.74      0.00
    3    2   31      2.87      0.00
    4    2   31      0.21      0.00
    5    2   31      3.08      0.00
    6    2   31     -1.42      0.00
    7    2   31     -2.03      0.00
    8    2   31     -3.59      0.00
    9    2   31     -1.32      0.00
   10    2   31      1.58      0.00
   11    2   31     -0.70      0.00
   12    2   31     -1.43      0.00
   13    2   31      0.64      0.00
   14    2   31     -1.58      0.00
   15    2   31     -0.40      0.00
   16    2   31      1.66      0.00
    0    3   31      4.69      0.00
    1    3   31     -0.14      0.00
    2    3   31      0.86      0.00
    3    3   31      2.42      0.00
    4    3   31      0.99      0.00
    5    3   31      2.55      0.00
    6    3   31      1.10      0.00
    7    3   31     -0.34      0.00
    8    3   31      0.30      0.00
    9    3   31      1.86      0.00
   10    3   31      0.45      0.00
   11    3   31      0.44      0.00
   12    3   31      2.34      0.00
   13    3   31      1.05      0.00
   14    3   31     -0.42      0.00
   15    3   31      2.08      0.00
    1    4   31     -4.61      0.00
    2    4   31      2.59      0.00
    3    4   31     -2.54      0.00
    4    4   31     -1.60      0.00
    5    4   31     -0.85      0.00
    6    4   31     -1.94      0.00
    7    4   31      1.11      0.00
    8    4   31     -1.37      0.00
    9    4   31     -0.73      0.00
   10    4   31      0.83      0.00
   11    4   31     -0.98      0.00
   12    4   31     -0.44      0.00
   13    4   31      1.13      0.00
   14    4   31     -2.37      0.00
   15    4   31     -1.44      0.00
    0    5   31      0.75      0.00
    1    5   31     -2.72      0.00
    2    5   31      1.75      0.00
    3    5   31     -2.92      0.00
    4    5   31      3.95      0.00
    5    5   31     -0.46      0.00
    6    5   31      0.20      0.00
    7    5   31     -0.40      0.00
    8    5   31      0.33      0.00
    9    5   31      1.53      0.00
   10    5   31     -1.00      0.00
   11    5   31      2.19      0.00
   12    5   31      1.36      0.00
   13    5   31      0.29      0.00
   14    5   31     -1.08      0.00
   15    5   31      0.92      0.00
    1    6   31      3.65      0.00
    2    6   31      3.18      0.00
    3    6   31     -2.63      0.00
    4    6   31      1.67      0.00
    5    6   31      0.83      0.00
    6    6   31     -2.13      0.00
    7    6   31      1.70      0.00
    8    6   31      0.97      0.00
    9    6   31     -1.04      0.00
   10    6   31      1.31      0.00
   11    6   31      1.53      0.00
   12    6   31     -1.34      0.00
   13    6   31      1.33      0.00
   14    6   31     -0.22      0.00
   15    6   31     -1.56      0.00
    0    7   31     -4.83      0.00
    1    7   31      2.91      0.00
    2    7   31      0.06      0.00
    3    7   31     -1.15      0.00
    4    7   31     -0.60      0.00
    5    7   31     -2.26      0.00
    6    7   31     -0.55      0.00
    7    7   31      2.48      0.00
    8    7   31      2.00      0.00
    9    7   31     -1.33      0.00
   10    7   31     -1.56      0.00
   11    7   31     -1.90      0.00
   12    7   31      0.07      0.00
   13    7   31      1.32      0.00
   14    7   31      1.08      0.00
   15    7   31     -1.27      0.00
    1    8   31      0.56      0.00
    2    8   31     -0.84      0.00
    3    8   31     -1.31      0.00
    4    8   31      2.68      0.00
    5    8   31      2.10      0.00
    6    8   31     -2.89      0.00
    7    8   31     -0.87      0.00
    8    8   31      0.47      0.00
    9    8   31      1.16      0.00
   10    8   31      2.72      0.00
   11    8   31     -1.75      0.00
   12    8   31     -1.44      0.00
   13    8   31     -0.54      0.00
   14    8   31      0.37      0.00
    0    9   31     -0.07      0.00
    1    9   31      2.47      0.00
    2    9   31      4.10      0.00
    3    9   31      0.04      0.00
    4    9   31     -0.60      0.00
    5    9   31     -2.38      0.00
    6    9   31     -0.89      0.00
    7    9   31      0.80      0.00
    8    9   31      0.51      0.00
    9    9   31      1.58      0.00
   10    9   31     -0.46      0.00
   11    9   31     -0.94      0.00
   12    9   31     -0.09      0.00
   13    9   31      0.37      0.00
   14    9   31     -0.14      0.00
    1   10   31      0.06      0.00
    2   10   31      0.10      0.00
    3   10   31     -2.26      0.00
    4   10   31     -0.17      0.00
    5   10   31      1.65      0.00
    6   10   31      0.66      0.00
    7   10   31     -1.26      0.00
    8   10   31      0.07      0.00
    9   10   31      1.82      0.00
   10   10   31      1.03      0.00
   11   10   31     -0.75      0.00
   12   10   31     -1.23      0.00
   13   10   31     -0.13      0.00
    0   11   31     -2.50      0.00
    1   11   31     -0.28      0.00
    2   11   31      0.85      0.00
    3   11   31      1.39      0.00
    4   11   31      0.30      0.00
    5   11   31     -0.03      0.00
    6   11   31     -1.26      0.00
    7   11   31     -1.15      0.00
    8   11   31      1.68      0.00
    9   11   31      0.01      0.00
   10   11   31      0.24      0.00
   11   11   31     -0.30      0.00
   12   11   31     -1.26      0.00
   13   11   31     -1.50      0.00
    1   12   31      1.30      0.00
    2   12   31     -0.96      0.00
    3   12   31     -1.64      0.00
    4   12   31     -0.52      0.00
    5   12   31     -0.58      0.00
    6   12   31      0.33      0.00
    7   12   31     -1.83      0.00
    8   12   31     -0.33      0.00
    9   12   31     -0.22      0.00
   10   12   31      0.93      0.00
   11   12   31      0.22      0.00
   12   12   31      0.19      0.00
    0   13   31      2.50      0.00
    1   13   31      1.38      0.00
    2   13   31      0.69      0.00
    3   13   31      0.02      0.00
    4   13   31      1.35      0.00
    5   13   31      0.23      0.00
    6   13   31      2.62      0.00
    7   13   31      1.08      0.00
    8   13   31     -0.43      0.00
    9   13   31     -0.73      0.00
   10   13   31     -0.91      0.00
   11   13   31      0.28      0.00
   12   13   31     -0.27      0.00
    1   14   31      0.65      0.00
    2   14   31     -1.78      0.00
    3   14   31     -0.67      0.00
    4   14   31     -0.86      0.00
    5   14   31     -1.88      0.00
    6   14   31     -0.31      0.00
    7   14   31     -0.03      0.00
    8   14   31      0.22      0.00
    9   14   31      0.73      0.00
   10   14   31     -0.10      0.00
   11   14   31      0.38      0.00
    0   15   31     -1.65      0.00
    1   15   31      0.96      0.00
    2   15   31      1.68      0.00
    3   15   31     -0.12      0.00
    4   15   31     -2.48      0.00
    5   15   31      0.71      0.00
    6   15   31      1.61      0.00
    7   15   31      1.48      0.00
    8   15   31     -1.38      0.00
    9   15   31     -1.02      0.00
   10   15   31     -0.29      0.00
    1   16   31      0.76      0.00
    2   16   31     -1.01      0.00
    3   16   31     -1.17      0.00
    4   16   31      0.05      0.00
    5   16   31      0.52      0.00
    6   16   31     -1.00      0.00
    7   16   31      0.14      0.00
    8   16   31      1.24      0.00
    9   16   31      0.09      0.00
    0   17   31      2.29      0.00
    1   17   31      0.10      0.00
    2   17   31     -3.01      0.00
    3   17   31     -0.95      0.00
    4   17   31     -1.12      0.00
    5   17   31     -1.24      0.00
    6   17   31      1.95      0.00
    7   17   31      1.78      0.00
    8   17   31     -0.28      0.00
    1   18   31      2.45      0.00
    2   18   31      0.53      0.00
    3   18   31      4.05      0.00
    4   18   31      0.16      0.00
    5   18   31     -0.89      0.00
    6   18   31     -0.37      0.00
    7   18   31     -0.26      0.00
    0   19   31     -0.83      0.00
    1   19   31     -1.08      0.00
    2   19   31     -4.68      0.00
    3   19   31     -0.50      0.00
    4   19   31     -0.98      0.00
    5   19   31     -0.08      0.00
    1   20   31      1.81      0.00
    2   20   31     -0.82      0.00
    3   20   31     -0.70      0.00
    0    0   32      5.10      0.00
    2    0   32      1.37      0.00
    4    0   32     -0.26      0.00
    6    0   32      3.76      0.00
    8    0   32     -5.72      0.00
   10    0   32      1.90      0.00
   12    0   32     -0.60      0.00
   14    0   32     -1.15      0.00
    1    1   32     -2.87      0.00
    2    1   32      5.10      0.00
    3    1   32     -0.66      0.00
    4    1   32     -3.29      0.00
    5    1   32      2.85      0.00
    6    1   32     -1.64      0.00
    7    1   32      0.88      0.00
    8    1   32      2.46      0.00
    9    1   32     -2.73      0.00
   10    1   32     -0.87      0.00
   11    1   32      1.08      0.00
   12    1   32      1.36      0.00
   13    1   32      1.39      0.00
   14    1   32      1.04      0.00
   15    1   32     -0.44      0.00
    0    2   32     -0.08      0.00
    1    2   32     -1.37      0.00
    2    2   32      0.54      0.00
    3    2   32     -2.12      0.00
    4    2   32      3.11      0.00
    5    2   32      1.55      0.00
    6    2   32     -0.05      0.00
    7    2   32     -1.04      0.00
    8    2   32     -1.27      0.00
    9    2   32     -1.99      0.00
   10    2   32      1.29      0.00
   11    2   32      0.99      0.00
   12    2   32     -1.41      0.00
   13    2   32     -1.11      0.00
   14    2   32     -0.20      0.00
   15    2   32     -0.34      0.00
    1    3   32      1.10      0.00
    2    3   32      3.64      0.00
    3    3   32      0.42      0.00
    4    3   32     -0.27      0.00
    5    3   32      2.63      0.00
    6    3   32      0.56      0.00
    7    3   32     -0.60      0.00
    8    3   32      3.45      0.00
    9    3   32     -2.67      0.00
   10    3   32     -0.75      0.00
   11    3   32      2.62      0.00
   12    3   32     -0.13      0.00
   13    3   32     -0.71      0.00
   14    3   32      1.55      0.00
   15    3   32      0.69      0.00
    0    4   32     -5.08      0.00
    1    4   32      1.90      0.00
    2    4   32      1.43      0.00
    3    4   32      1.13      0.00
    4    4   32      2.07      0.00
    5    4   32     -3.83      0.00
    6    4   32     -1.27      0.00
    7    4   32      1.80      0.00
    8    4   32      0.30      0.00
    9    4   32     -0.15      0.00
   10    4   32     -0.25      0.00
   11    4   32      0.32      0.00
   12    4   32     -1.73      0.00
   13    4   32      0.09      0.00
   14    4   32      1.73      0.00
   15    4   32     -1.80      0.00
    1    5   32      1.81      0.00
    2    5   32     -3.51      0.00
    3    5   32      2.74      0.00
    4    5   32      0.88      0.00
    5    5   32      2.05      0.00
    6    5   32     -1.03      0.00
    7    5   32     -1.19      0.00
    8    5   32     -1.98      0.00
    9    5   32      0.92      0.00
   10    5   32      0.22      0.00
   11    5   32      0.98      0.00
   12    5   32      1.78      0.00
   13    5   32     -1.63      0.00
   14    5   32      0.94      0.00
   15    5   32      0.53      0.00
    0    6   32     -5.24      0.00
    1    6   32      2.10      0.00
    2    6   32      0.60      0.00
    3    6   32      2.24      0.00
    4    6   32      0.39      0.00
    5    6   32     -1.26      0.00
    6    6   32     -0.36      0.00
    7    6   32     -0.50      0.00
    8    6   32     -1.56      0.00
    9    6   32      2.32      0.00
   10    6   32      0.57      0.00
   11    6   32      1.03      0.00
   12    6   32     -0.54      0.00
   13    6   32     -0.59      0.00
   14    6   32      1.16      0.00
   15    6   32      0.54      0.00
    1    7   32      1.21      0.00
    2    7   32     -0.30      0.00
    3    7   32      0.39      0.00
    4    7   32     -1.20      0.00
    5    7   32      0.74      0.00
    6    7   32      1.39      0.00
    7    7   32      0.55      0.00
    8    7   32     -0.32      0.00
    9    7   32      0.08      0.00
   10    7   32     -0.65      0.00
   11    7   32      0.20      0.00
   12    7   32     -0.47      0.00
   13    7   32     -2.90      0.00
   14    7   32     -0.60      0.00
    0    8   32      0.82      0.00
    1    8   32     -0.92      0.00
    2    8   32      0.20      0.00
    3    8   32      0.06      0.00
    4    8   32      3.37      0.00
    5    8   32      0.92      0.00
    6    8   32     -0.64      0.00
    7    8   32     -1.85      0.00
    8    8   32      0.32      0.00
    9    8   32     -0.26      0.00
   10    8   32      1.50      0.00
   11    8   32      2.30      0.00
   12    8   32     -0.87      0.00
   13    8   32     -0.47      0.00
   14    8   32     -0.02      0.00
    1    9   32      0.24      0.00
    2    9   32     -0.63      0.00
    3    9   32     -0.53      0.00
    4    9   32      0.40      0.00
    5    9   32     -0.62      0.00
    6    9   32     -1.33      0.00
    7    9   32      1.85      0.00
    8    9   32     -0.50      0.00
    9    9   32     -1.12      0.00
   10    9   32      0.69      0.00
   11    9   32      0.55      0.00
   12    9   32      1.07      0.00
   13    9   32     -0.32      0.00
    0   10   32      1.06      0.00
    1   10   32      3.69      0.00
    2   10   32     -3.15      0.00
    3   10   32      0.11      0.00
    4   10   32     -0.20      0.00
    5   10   32     -0.34      0.00
    6   10   32      1.18      0.00
    7   10   32      2.20      0.00
    8   10   32     -0.17      0.00
    9   10   32     -0.96      0.00
   10   10   32     -0.49      0.00
   11   10   32     -0.51      0.00
   12   10   32     -0.06      0.00
   13   10   32      0.06      0.00
    1   11   32      1.86      0.00
    2   11   32     -2.50      0.00
    3   11   32      1.11      0.00
    4   11   32      2.61      0.00
    5   11   32     -1.79      0.00
    6   11   32     -1.22      0.00
    7   11   32      0.85      0.00
    8   11   32     -0.57      0.00
    9   11   32      0.83      0.00
   10   11   32      0.00      0.00
   11   11   32     -0.30      0.00
   12   11   32      0.46      0.00
   13   11   32     -1.05      0.00
    0   12   32     -0.58      0.00
    1   12   32      2.68      0.00
    2   12   32      0.12      0.00
    3   12   32     -1.40      0.00
    4   12   32     -1.27      0.00
    5   12   32     -0.48      0.00
    6   12   32      1.19      0.00
    7   12   32      1.85      0.00
    8   12   32     -0.24      0.00
    9   12   32     -0.39      0.00
   10   12   32     -1.54      0.00
   11   12   32     -0.31      0.00
   12   12   32      0.18      0.00
    1   13   32      1.81      0.00
    2   13   32     -0.02      0.00
    3   13   32     -0.40      0.00
    4   13   32      0.79      0.00
    5   13   32      0.13      0.00
    6   13   32     -0.89      0.00
    7   13   32      1.19      0.00
    8   13   32     -0.36      0.00
    9   13   32      1.41      0.00
   10   13   32     -0.01      0.00
   11   13   32     -0.32      0.00
   12   13   32     -0.86      0.00
    0   14   32     -0.49      0.00
    1   14   32      0.68      0.00
    2   14   32     -0.88      0.00
    3   14   32     -0.11      0.00
    4   14   32     -1.13      0.00
    5   14   32     -0.36      0.00
    6   14   32     -1.60      0.00
    7   14   32      1.08      0.00
    8   14   32      0.30      0.00
    9   14   32      0.73      0.00
   10   14   32     -0.77      0.00
   11   14   32     -0.39      0.00
    1   15   32     -0.29      0.00
    2   15   32     -1.82      0.00
    3   15   32      3.31      0.00
    4   15   32      1.15      0.00
    5   15   32     -0.14      0.00
    6   15   32      0.05      0.00
    7   15   32      0.94      0.00
    8   15   32     -0.56      0.00
    9   15   32      0.33      0.00
   10   15   32      0.52      0.00
    0   16   32      2.27      0.00
    1   16   32     -0.02      0.00
    2   16   32     -1.73      0.00
    3   16   32     -1.02      0.00
    4   16   32     -1.00      0.00
    5   16   32     -0.01      0.00
    6   16   32     -0.53      0.00
    7   16   32      0.68      0.00
    8   16   32     -0.03      0.00
    9   16   32      1.45      0.00
    1   17   32     -1.99      0.00
    2   17   32     -1.01      0.00
    3   17   32      0.43      0.00
    4   17   32     -0.78      0.00
    5   17   32     -0.01      0.00
    6   17   32     -0.07      0.00
    7   17   32      0.09      0.00
    8   17   32     -1.39      0.00
    0   18   32     -0.29      0.00
    1   18   32      0.83      0.00
    2   18   32      4.88      0.00
    3   18   32      0.74      0.00
    4   18   32      1.64      0.00
    5   18   32      1.64      0.00
    6   18   32     -0.16      0.00
    7   18   32      1.09      0.00
    1   19   32     -3.54      0.00
    2   19   32     -1.74      0.00
    3   19   32     -1.32      0.00
    4   19   32      0.07      0.00
    5   19   32     -0.42      0.00
    1   20   32     -0.72      0.00
    1    0   33     -1.18      0.00
    3    0   33      4.01      0.00
    5    0   33      1.36      0.00
    7    0   33     -0.31      0.00
    9    0   33     -0.19      0.00
   11    0   33     -1.25      0.00
   13    0   33      0.11      0.00
   15    0   33     -0.84      0.00
    0    1   33     -3.05      0.00
    1    1   33      0.08      0.00
    2    1   33      0.04      0.00
    3    1   33      0.84      0.00
    4    1   33      4.56      0.00
    5    1   33     -1.86      0.00
    6    1   33     -2.60      0.00
    7    1   33      1.22      0.00
    8    1   33      1.48      0.00
    9    1   33      0.07      0.00
   10    1   33     -1.49      0.00
   11    1   33     -2.02      0.00
   12    1   33      2.20      0.00
   13    1   33      0.01      0.00
   14    1   33      0.30      0.00
   15    1   33      1.35      0.00
    1    2   33     -0.11      0.00
    2    2   33     -2.19      0.00
    3    2   33     -0.47      0.00
    4    2   33      4.53      0.00
    5    2   33      1.04      0.00
    6    2   33      0.21      0.00
    7    2   33      0.18      0.00
    8    2   33     -3.22      0.00
    9    2   33      0.50      0.00
   10    2   33      2.51      0.00
   11    2   33     -0.09      0.00
   12    2   33     -0.44      0.00
   13    2   33     -1.99      0.00
   14    2   33     -0.06      0.00
   15    2   33     -2.94      0.00
    0    3   33     -6.88      0.00
    1    3   33     -0.13      0.00
    2    3   33      1.71      0.00
    3    3   33     -0.84      0.00
    4    3   33      4.46      0.00
    5    3   33      0.38      0.00
    6    3   33     -2.43      0.00
    7    3   33      1.52      0.00
    8    3   33     -0.07      0.00
    9    3   33      1.36      0.00
   10    3   33     -1.55      0.00
   11    3   33     -0.66      0.00
   12    3   33      1.32      0.00
   13    3   33     -0.52      0.00
   14    3   33      0.17      0.00
   15    3   33     -0.87      0.00
    1    4   33      3.29      0.00
    2    4   33     -1.97      0.00
    3    4   33     -0.80      0.00
    4    4   33      1.51      0.00
    5    4   33      3.71      0.00
    6    4   33     -0.70      0.00
    7    4   33      0.03      0.00
    8    4   33     -1.22      0.00
    9    4   33     -3.37      0.00
   10    4   33      3.37      0.00
   11    4   33      1.17      0.00
   12    4   33     -1.32      0.00
   13    4   33     -0.42      0.00
   14    4   33     -0.04      0.00
   15    4   33     -0.82      0.00
    0    5   33      2.11      0.00
    1    5   33      1.47      0.00
    2    5   33      0.72      0.00
    3    5   33     -1.00      0.00
    4    5   33      2.80      0.00
    5    5   33      2.33      0.00
    6    5   33     -0.65      0.00
    7    5   33      0.41      0.00
    8    5   33      1.25      0.00
    9    5   33     -2.56      0.00
   10    5   33     -1.17      0.00
   11    5   33     -1.15      0.00
   12    5   33      1.77      0.00
   13    5   33      1.48      0.00
   14    5   33     -0.81      0.00
   15    5   33     -0.77      0.00
    1    6   33     -3.83      0.00
    2    6   33     -1.92      0.00
    3    6   33     -0.32      0.00
    4    6   33      0.35      0.00
    5    6   33      1.47      0.00
    6    6   33     -2.35      0.00
    7    6   33     -0.97      0.00
    8    6   33      0.47      0.00
    9    6   33     -2.20      0.00
   10    6   33      2.65      0.00
   11    6   33     -0.25      0.00
   12    6   33      0.26      0.00
   13    6   33      0.30      0.00
   14    6   33      0.42      0.00
    0    7   33      3.41      0.00
    1    7   33      2.41      0.00
    2    7   33      1.63      0.00
    3    7   33     -1.16      0.00
    4    7   33      1.99      0.00
    5    7   33     -0.84      0.00
    6    7   33      0.56      0.00
    7    7   33      2.36      0.00
    8    7   33      0.78      0.00
    9    7   33      0.49      0.00
   10    7   33     -2.01      0.00
   11    7   33     -2.18      0.00
   12    7   33      0.93      0.00
   13    7   33      0.05      0.00
   14    7   33     -2.06      0.00
    1    8   33      0.52      0.00
    2    8   33     -2.49      0.00
    3    8   33      1.74      0.00
    4    8   33      1.92      0.00
    5    8   33      1.75      0.00
    6    8   33     -0.30      0.00
    7    8   33     -0.72      0.00
    8    8   33     -1.28      0.00
    9    8   33      1.13      0.00
   10    8   33      0.64      0.00
   11    8   33      0.67      0.00
   12    8   33      1.67      0.00
   13    8   33      0.50      0.00
   14    8   33      0.44      0.00
    0    9   33     -5.91      0.00
    1    9   33      0.44      0.00
    2    9   33      0.78      0.00
    3    9   33     -0.93      0.00
    4    9   33     -0.37      0.00
    5    9   33     -1.37      0.00
    6    9   33      0.35      0.00
    7    9   33      0.92      0.00
    8    9   33      1.58      0.00
    9    9   33      0.24      0.00
   10    9   33     -1.02      0.00
   11    9   33     -1.99      0.00
   12    9   33      0.40      0.00
   13    9   33      0.94      0.00
    1   10   33     -0.67      0.00
    2   10   33      0.52      0.00
    3   10   33     -0.74      0.00
    4   10   33      0.92      0.00
    5   10   33      1.36      0.00
    6   10   33      0.35      0.00
    7   10   33     -1.03      0.00
    8   10   33     -0.44      0.00
    9   10   33      0.52      0.00
   10   10   33      0.50      0.00
   11   10   33     -1.02      0.00
   12   10   33     -1.76      0.00
   13   10   33     -0.86      0.00
    0   11   33      0.69      0.00
    1   11   33     -2.34      0.00
    2   11   33      2.58      0.00
    3   11   33     -0.43      0.00
    4   11   33      0.96      0.00
    5   11   33      0.46      0.00
    6   11   33     -0.47      0.00
    7   11   33     -0.03      0.00
    8   11   33      0.09      0.00
    9   11   33      0.65      0.00
   10   11   33      0.93      0.00
   11   11   33     -0.67      0.00
   12   11   33     -0.26      0.00
    1   12   33     -1.88      0.00
    2   12   33     -0.65      0.00
    3   12   33      1.77      0.00
    4   12   33      0.69      0.00
    5   12   33      0.79      0.00
    6   12   33      1.53      0.00
    7   12   33      0.04      0.00
    8   12   33     -0.23      0.00
    9   12   33      0.78      0.00
   10   12   33     -0.48      0.00
   11   12   33     -0.45      0.00
   12   12   33     -1.12      0.00
    0   13   33      1.98      0.00
    1   13   33     -1.46      0.00
    2   13   33     -1.44      0.00
    3   13   33     -0.26      0.00
    4   13   33     -0.96      0.00
    5   13   33     -0.24      0.00
    6   13   33      0.27      0.00
    7   13   33     -0.10      0.00
    8   13   33     -0.38      0.00
    9   13   33      0.06      0.00
   10   13   33      1.70      0.00
   11   13   33     -0.41      0.00
    1   14   33     -1.27      0.00
    2   14   33     -0.46      0.00
    3   14   33     -0.06      0.00
    4   14   33      0.88      0.00
    5   14   33     -0.52      0.00
    6   14   33      1.84      0.00
    7   14   33     -1.46      0.00
    8   14   33     -0.44      0.00
    9   14   33      0.19      0.00
   10   14   33     -0.02      0.00
    0   15   33      2.25      0.00
    1   15   33     -1.26      0.00
    2   15   33      0.62      0.00
    3   15   33     -1.50      0.00
    4   15   33      2.80      0.00
    5   15   33      0.81      0.00
    6   15   33      2.46      0.00
    7   15   33      0.33      0.00
    8   15   33      0.12      0.00
    9   15   33     -1.12      0.00
    1   16   33      0.63      0.00
    2   16   33     -1.17      0.00
    3   16   33     -1.83      0.00
    4   16   33     -0.70      0.00
    5   16   33     -1.60      0.00
    6   16   33      0.90      0.00
    7   16   33      0.05      0.00
    8   16   33      1.15      0.00
    9   16   33     -0.25      0.00
    0   17   33      0.02      0.00
    1   17   33     -0.73      0.00
    2   17   33     -0.77      0.00
    3   17   33     -0.31      0.00
    4   17   33      0.13      0.00
    5   17   33      0.33      0.00
    6   17   33      0.95      0.00
    7   17   33     -0.45      0.00
    1   18   33      1.67      0.00
    2   18   33     -0.75      0.00
    3   18   33      0.28      0.00
    4   18   33      1.40      0.00
    5   18   33      0.21      0.00
    6   18   33      0.89      0.00
    0   19   33      1.89      0.00
    1   19   33      0.62      0.00
    2   19   33     -2.68      0.00
    3   19   33     -0.82      0.00
    0    0   34     -8.95      0.00
    2    0   34      2.62      0.00
    4    0   34      2.37      0.00
    6    0   34     -0.33      0.00
    8    0   34      2.98      0.00
   10    0   34      0.54      0.00
   12    0   34     -2.15      0.00
   14    0   34      2.14      0.00
    1    1   34      4.04      0.00
    2    1   34     -0.89      0.00
    3    1   34     -4.26      0.00
    4    1   34     -0.13      0.00
    5    1   34      4.81      0.00
    6    1   34      1.82      0.00
    7    1   34     -1.41      0.00
    8    1   34      0.15      0.00
    9    1   34     -3.11      0.00
   10    1   34     -1.91      0.00
   11    1   34      4.32      0.00
   12    1   34     -1.20      0.00
   13    1   34     -1.69      0.00
   14    1   34     -0.54      0.00
   15    1   34     -0.25      0.00
    0    2   34     -1.67      0.00
    1    2   34      2.09      0.00
    2    2   34      1.17      0.00
    3    2   34      1.68      0.00
    4    2   34     -2.11      0.00
    5    2   34      0.33      0.00
    6    2   34      1.25      0.00
    7    2   34      0.75      0.00
    8    2   34      0.88      0.00
    9    2   34     -0.23      0.00
   10    2   34      0.13      0.00
   11    2   34      0.16      0.00
   12    2   34     -2.04      0.00
   13    2   34      1.51      0.00
   14    2   34     -0.71      0.00
   15    2   34     -0.54      0.00
    1    3   34     -2.68      0.00
    2    3   34     -0.79      0.00
    3    3   34      2.27      0.00
    4    3   34     -1.92      0.00
    5    3   34      2.47      0.00
    6    3   34      0.79      0.00
    7    3   34     -1.34      0.00
    8    3   34      0.05      0.00
    9    3   34     -0.17      0.00
   10    3   34     -1.27      0.00
   11    3   34      0.03      0.00
   12    3   34      1.70      0.00
   13    3   34      0.84      0.00
   14    3   34     -2.11      0.00
   15    3   34     -0.33      0.00
    0    4   34      2.65      0.00
    1    4   34      0.11      0.00
    2    4   34      2.11      0.00
    3    4   34     -0.30      0.00
    4    4   34      0.16      0.00
    5    4   34      0.40      0.00
    6    4   34      0.80      0.00
    7    4   34      0.49      0.00
    8    4   34     -1.85      0.00
    9    4   34      0.47      0.00
   10    4   34      0.57      0.00
   11    4   34     -0.02      0.00
   12    4   34     -0.46      0.00
   13    4   34     -0.27      0.00
   14    4   34     -0.60      0.00
    1    5   34      0.88      0.00
    2    5   34      2.21      0.00
    3    5   34     -0.37      0.00
    4    5   34      0.81      0.00
    5    5   34      0.85      0.00
    6    5   34      2.49      0.00
    7    5   34      0.74      0.00
    8    5   34     -0.76      0.00
    9    5   34     -0.82      0.00
   10    5   34     -2.21      0.00
   11    5   34      0.16      0.00
   12    5   34      0.25      0.00
   13    5   34      0.53      0.00
   14    5   34     -0.29      0.00
    0    6   34     -6.19      0.00
    1    6   34     -1.99      0.00
    2    6   34      1.77      0.00
    3    6   34     -1.76      0.00
    4    6   34      2.97      0.00
    5    6   34     -1.89      0.00
    6    6   34     -2.67      0.00
    7    6   34      0.89      0.00
    8    6   34     -0.04      0.00
    9    6   34     -0.05      0.00
   10    6   34      1.02      0.00
   11    6   34      0.75      0.00
   12    6   34     -2.61      0.00
   13    6   34      0.89      0.00
   14    6   34      0.50      0.00
    1    7   34      2.31      0.00
    2    7   34     -0.17      0.00
    3    7   34     -0.68      0.00
    4    7   34      1.99      0.00
    5    7   34      2.12      0.00
    6    7   34     -0.98      0.00
    7    7   34      0.40      0.00
    8    7   34     -1.90      0.00
    9    7   34     -1.64      0.00
   10    7   34      1.77      0.00
   11    7   34      1.36      0.00
   12    7   34     -1.15      0.00
   13    7   34     -0.40      0.00
   14    7   34     -1.29      0.00
    0    8   34     -0.46      0.00
    1    8   34      0.60      0.00
    2    8   34      0.86      0.00
    3    8   34     -1.26      0.00
    4    8   34      1.14      0.00
    5    8   34      0.37      0.00
    6    8   34      0.17      0.00
    7    8   34      1.29      0.00
    8    8   34     -1.07      0.00
    9    8   34     -0.88      0.00
   10    8   34      1.88      0.00
   11    8   34      0.78      0.00
   12    8   34      0.42      0.00
   13    8   34      1.65      0.00
    1    9   34     -1.52      0.00
    2    9   34     -1.95      0.00
    3    9   34      0.16      0.00
    4    9   34      1.66      0.00
    5    9   34      0.30      0.00
    6    9   34      0.17      0.00
    7    9   34      0.76      0.00
    8    9   34     -0.85      0.00
    9    9   34      0.21      0.00
   10    9   34     -0.25      0.00
   11    9   34      0.94      0.00
   12    9   34     -0.09      0.00
   13    9   34     -0.90      0.00
    0   10   34      1.49      0.00
    1   10   34      2.50      0.00
    2   10   34     -0.30      0.00
    3   10   34     -0.98      0.00
    4   10   34      0.30      0.00
    5   10   34     -0.49      0.00
    6   10   34      0.33      0.00
    7   10   34     -0.29      0.00
    8   10   34     -0.90      0.00
    9   10   34     -0.54      0.00
   10   10   34      0.12      0.00
   11   10   34      0.47      0.00
   12   10   34      0.40      0.00
    1   11   34      1.00      0.00
    2   11   34     -1.62      0.00
    3   11   34     -0.17      0.00
    4   11   34      0.89      0.00
    5   11   34      1.74      0.00
    6   11   34      0.57      0.00
    7   11   34      0.16      0.00
    8   11   34     -0.75      0.00
    9   11   34     -0.10      0.00
   10   11   34      0.65      0.00
   11   11   34      0.65      0.00
   12   11   34      1.21      0.00
    0   12   34     -1.36      0.00
    1   12   34      3.10      0.00
    2   12   34      0.66      0.00
    3   12   34     -0.62      0.00
    4   12   34      0.59      0.00
    5   12   34      0.56      0.00
    6   12   34      0.35      0.00
    7   12   34      1.36      0.00
    8   12   34      1.08      0.00
    9   12   34     -1.45      0.00
   10   12   34     -0.21      0.00
   11   12   34     -0.63      0.00
    1   13   34     -0.07      0.00
    2   13   34     -2.20      0.00
    3   13   34     -0.96      0.00
    4   13   34      0.66      0.00
    5   13   34     -1.22      0.00
    6   13   34     -0.90      0.00
    7   13   34      0.11      0.00
    8   13   34      0.20      0.00
    9   13   34     -0.22      0.00
   10   13   34      0.94      0.00
   11   13   34      0.99      0.00
    0   14   34     -1.22      0.00
    1   14   34      1.95      0.00
    2   14   34      1.03      0.00
    3   14   34      0.85      0.00
    4   14   34     -0.73      0.00
    5   14   34      0.43      0.00
    6   14   34      0.71      0.00
    7   14   34      0.81      0.00
    8   14   34     -0.15      0.00
    9   14   34     -0.71      0.00
   10   14   34     -1.28      0.00
    1   15   34      1.05      0.00
    2   15   34     -1.39      0.00
    3   15   34      2.07      0.00
    4   15   34     -0.13      0.00
    5   15   34      0.76      0.00
    6   15   34     -0.90      0.00
    7   15   34      1.15      0.00
    8   15   34      0.01      0.00
    9   15   34      0.32      0.00
    0   16   34     -1.36      0.00
    1   16   34      0.87      0.00
    2   16   34      0.32      0.00
    3   16   34      1.10      0.00
    4   16   34     -0.96      0.00
    5   16   34     -0.53      0.00
    6   16   34     -0.62      0.00
    7   16   34      0.69      0.00
    8   16   34     -0.65      0.00
    1   17   34     -0.03      0.00
    2   17   34      0.20      0.00
    3   17   34      2.75      0.00
    4   17   34      0.12      0.00
    5   17   34     -0.45      0.00
    6   17   34     -0.60      0.00
    7   17   34     -0.43      0.00
    0   18   34      0.83      0.00
    1   18   34     -1.09      0.00
    2   18   34     -1.35      0.00
    3   18   34      0.56      0.00
    4   18   34      0.78      0.00
    5   18   34     -0.01      0.00
    1   19   34     -0.07      0.00
    2   19   34      1.04      0.00
    1    0   35     -3.94      0.00
    3    0   35      2.46      0.00
    5    0   35     -0.48      0.00
    7    0   35      2.08      0.00
    9    0   35      2.80      0.00
   11    0   35     -3.27      0.00
   13    0   35      1.86      0.00
    0    1   35      2.60      0.00
    1    1   35     -0.85      0.00
    2    1   35      0.81      0.00
    3    1   35     -0.24      0.00
    4    1   35     -0.46      0.00
    5    1   35      2.84      0.00
    6    1   35     -0.10      0.00
    7    1   35      0.01      0.00
    8    1   35      0.57      0.00
    9    1   35     -0.34      0.00
   10    1   35      0.58      0.00
   11    1   35      0.57      0.00
   12    1   35      0.66      0.00
   13    1   35     -1.72      0.00
   14    1   35     -2.34      0.00
    1    2   35      1.09      0.00
    2    2   35      0.36      0.00
    3    2   35     -1.09      0.00
    4    2   35     -0.71      0.00
    5    2   35      0.77      0.00
    6    2   35     -0.88      0.00
    7    2   35      1.57      0.00
    8    2   35      1.46      0.00
    9    2   35     -1.48      0.00
   10    2   35      0.12      0.00
   11    2   35     -1.70      0.00
   12    2   35     -1.57      0.00
   13    2   35      0.37      0.00
   14    2   35      1.85      0.00
    0    3   35     -4.04      0.00
    1    3   35     -1.36      0.00
    2    3   35     -0.18      0.00
    3    3   35      0.31      0.00
    4    3   35      3.73      0.00
    5    3   35      0.63      0.00
    6    3   35     -2.44      0.00
    7    3   35     -0.10      0.00
    8    3   35      3.11      0.00
    9    3   35     -1.74      0.00
   10    3   35      0.21      0.00
   11    3   35     -0.19      0.00
   12    3   35      0.52      0.00
   13    3   35      0.32      0.00
   14    3   35     -0.52      0.00
    1    4   35      2.01      0.00
    2    4   35     -2.95      0.00
    3    4   35     -1.73      0.00
    4    4   35      2.01      0.00
    5    4   35      1.34      0.00
    6    4   35     -0.59      0.00
    7    4   35     -0.67      0.00
    8    4   35      0.01      0.00
    9    4   35     -0.69      0.00
   10    4   35      0.17      0.00
   11    4   35      0.62      0.00
   12    4   35     -1.41      0.00
   13    4   35     -2.19      0.00
   14    4   35      1.63      0.00
    0    5   35     -2.63      0.00
    1    5   35      0.56      0.00
    2    5   35     -1.00      0.00
    3    5   35      1.37      0.00
    4    5   35      0.28      0.00
    5    5   35      1.43      0.00
    6    5   35      0.23      0.00
    7    5   35      1.72      0.00
    8    5   35      0.57      0.00
    9    5   35     -0.25      0.00
   10    5   35     -1.87      0.00
   11    5   35     -1.22      0.00
   12    5   35      1.29      0.00
   13    5   35      0.64      0.00
   14    5   35     -0.33      0.00
    1    6   35      1.40      0.00
    2    6   35     -4.27      0.00
    3    6   35      1.99      0.00
    4    6   35      0.51      0.00
    5    6   35      1.53      0.00
    6    6   35      0.79      0.00
    7    6   35     -1.22      0.00
    8    6   35     -0.44      0.00
    9    6   35      1.08      0.00
   10    6   35     -1.23      0.00
   11    6   35      0.00      0.00
   12    6   35      0.70      0.00
   13    6   35     -1.65      0.00
   14    6   35      0.65      0.00
    0    7   35     -1.96      0.00
    1    7   35      0.98      0.00
    2    7   35     -0.95      0.00
    3    7   35      0.46      0.00
    4    7   35      0.65      0.00
    5    7   35      1.50      0.00
    6    7   35      0.94      0.00
    7    7   35     -1.44      0.00
    8    7   35     -0.65      0.00
    9    7   35     -1.40      0.00
   10    7   35     -1.42      0.00
   11    7   35      0.67      0.00
   12    7   35      2.13      0.00
   13    7   35      0.10      0.00
    1    8   35      0.12      0.00
    2    8   35     -2.15      0.00
    3    8   35     -0.96      0.00
    4    8   35     -0.91      0.00
    5    8   35      0.97      0.00
    6    8   35      0.96      0.00
    7    8   35     -0.48      0.00
    8    8   35      0.89      0.00
    9    8   35     -0.29      0.00
   10    8   35     -1.11      0.00
   11    8   35      0.21      0.00
   12    8   35     -0.60      0.00
   13    8   35      0.20      0.00
    0    9   35     -1.11      0.00
    1    9   35     -0.04      0.00
    2    9   35      0.58      0.00
    3    9   35      0.41      0.00
    4    9   35      2.96      0.00
    5    9   35      1.45      0.00
    6    9   35     -1.01      0.00
    7    9   35      1.95      0.00
    8    9   35      0.55      0.00
    9    9   35     -1.12      0.00
   10    9   35     -0.40      0.00
   11    9   35     -0.12      0.00
   12    9   35      0.14      0.00
    1   10   35      0.35      0.00
    2   10   35     -2.96      0.00
    3   10   35      1.79      0.00
    4   10   35      1.37      0.00
    5   10   35     -0.81      0.00
    6   10   35     -1.83      0.00
    7   10   35     -0.83      0.00
    8   10   35     -0.85      0.00
    9   10   35      0.65      0.00
   10   10   35     -0.08      0.00
   11   10   35      0.98      0.00
   12   10   35     -0.48      0.00
    0   11   35     -2.34      0.00
    1   11   35     -0.16      0.00
    2   11   35     -1.56      0.00
    3   11   35     -0.05      0.00
    4   11   35      1.58      0.00
    5   11   35     -0.23      0.00
    6   11   35      2.17      0.00
    7   11   35      2.11      0.00
    8   11   35     -1.12      0.00
    9   11   35     -0.18      0.00
   10   11   35     -0.32      0.00
   11   11   35      0.10      0.00
   12   11   35     -0.05      0.00
    1   12   35      0.29      0.00
    2   12   35     -1.51      0.00
    3   12   35      1.80      0.00
    4   12   35      1.67      0.00
    5   12   35     -1.06      0.00
    6   12   35     -0.30      0.00
    7   12   35     -1.17      0.00
    8   12   35     -0.56      0.00
    9   12   35      1.43      0.00
   10   12   35     -0.55      0.00
   11   12   35      0.21      0.00
    0   13   35     -1.58      0.00
    1   13   35     -1.08      0.00
    2   13   35     -1.06      0.00
    3   13   35     -0.43      0.00
    4   13   35      1.82      0.00
    5   13   35      0.29      0.00
    6   13   35      0.97      0.00
    7   13   35      0.56      0.00
    8   13   35     -1.76      0.00
    9   13   35      0.34      0.00
   10   13   35      0.51      0.00
    1   14   35      0.71      0.00
    2   14   35     -0.04      0.00
    3   14   35      1.61      0.00
    4   14   35      0.48      0.00
    5   14   35      0.67      0.00
    6   14   35      0.03      0.00
    7   14   35     -0.77      0.00
    8   14   35     -0.55      0.00
    9   14   35      1.00      0.00
   10   14   35     -0.20      0.00
    0   15   35      1.88      0.00
    1   15   35     -0.28      0.00
    2   15   35     -2.10      0.00
    3   15   35     -1.20      0.00
    4   15   35      1.11      0.00
    5   15   35      0.87      0.00
    6   15   35      0.30      0.00
    7   15   35      0.06      0.00
    8   15   35     -0.93      0.00
    9   15   35      0.18      0.00
    1   16   35     -1.07      0.00
    2   16   35      0.14      0.00
    3   16   35      1.79      0.00
    4   16   35      1.24      0.00
    5   16   35     -0.83      0.00
    6   16   35      0.44      0.00
    7   16   35     -0.23      0.00
    8   16   35     -2.07      0.00
    0   17   35      3.10      0.00
    1   17   35      1.57      0.00
    2   17   35      0.82      0.00
    3   17   35     -0.65      0.00
    4   17   35      1.12      0.00
    5   17   35      1.41      0.00
    6   17   35      1.46      0.00
    1   18   35     -0.37      0.00
    2   18   35     -2.42      0.00
    3   18   35     -2.19      0.00
    4   18   35      0.05      0.00
    0    0   36     -2.78      0.00
    2    0   36     -0.80      0.00
    4    0   36     -0.19      0.00
    6    0   36     -2.25      0.00
    8    0   36      3.84      0.00
   10    0   36      0.00      0.00
   12    0   36      0.00      0.00
   14    0   36      1.62      0.00
    1    1   36      3.36      0.00
    2    1   36      0.16      0.00
    3    1   36     -2.04      0.00
    4    1   36      1.88      0.00
    5    1   36      1.15      0.00
    6    1   36      0.13      0.00
    7    1   36     -0.23      0.00
    8    1   36     -1.19      0.00
    9    1   36      0.94      0.00
   10    1   36      1.74      0.00
   11    1   36      0.95      0.00
   12    1   36      1.75      0.00
   13    1   36     -4.03      0.00
   14    1   36     -0.92      0.00
    0    2   36      0.04      0.00
    1    2   36     -1.13      0.00
    2    2   36      0.84      0.00
    3    2   36     -2.93      0.00
    4    2   36     -0.32      0.00
    5    2   36     -0.73      0.00
    6    2   36     -0.33      0.00
    7    2   36      1.74      0.00
    8    2   36      1.66      0.00
    9    2   36     -0.37      0.00
   10    2   36     -0.76      0.00
   11    2   36     -1.33      0.00
   12    2   36      0.22      0.00
   13    2   36     -0.20      0.00
   14    2   36      3.63      0.00
    1    3   36      1.63      0.00
    2    3   36      1.51      0.00
    3    3   36     -3.20      0.00
    4    3   36      1.34      0.00
    5    3   36      0.80      0.00
    6    3   36      1.20      0.00
    7    3   36      1.41      0.00
    8    3   36     -2.75      0.00
    9    3   36      0.39      0.00
   10    3   36     -0.83      0.00
   11    3   36      1.79      0.00
   12    3   36      0.03      0.00
   13    3   36     -1.69      0.00
   14    3   36      0.61      0.00
    0    4   36     -1.42      0.00
    1    4   36      0.62      0.00
    2    4   36      1.70      0.00
    3    4   36     -2.50      0.00
    4    4   36     -1.38      0.00
    5    4   36      0.37      0.00
    6    4   36     -1.00      0.00
    7    4   36      2.36      0.00
    8    4   36      1.88      0.00
    9    4   36     -1.67      0.00
   10    4   36     -0.45      0.00
   11    4   36     -0.03      0.00
   12    4   36     -1.80      0.00
   13    4   36      0.02      0.00
   14    4   36      0.80      0.00
    1    5   36     -1.27      0.00
    2    5   36      1.06      0.00
    3    5   36     -3.12      0.00
    4    5   36      0.62      0.00
    5    5   36      0.60      0.00
    6    5   36     -0.65      0.00
    7    5   36      1.75      0.00
    8    5   36     -0.23      0.00
    9    5   36     -1.30      0.00
   10    5   36      1.28      0.00
   11    5   36      1.10      0.00
   12    5   36     -1.70      0.00
   13    5   36     -0.06      0.00
   14    5   36      0.17      0.00
    0    6   36      3.28      0.00
    1    6   36      1.40      0.00
    2    6   36      2.65      0.00
    3    6   36     -1.73      0.00
    4    6   36      0.65      0.00
    5    6   36      1.42      0.00
    6    6   36     -0.81      0.00
    7    6   36      2.86      0.00
    8    6   36      0.70      0.00
    9    6   36     -1.79      0.00
   10    6   36      0.24      0.00
   11    6   36     -1.03      0.00
   12    6   36      0.67      0.00
   13    6   36      0.48      0.00
    1    7   36     -2.36      0.00
    2    7   36      0.46      0.00
    3    7   36     -1.01      0.00
    4    7   36      2.42      0.00
    5    7   36     -0.43      0.00
    6    7   36     -0.97      0.00
    7    7   36      0.61      0.00
    8    7   36     -1.19      0.00
    9    7   36     -0.36      0.00
   10    7   36     -0.28      0.00
   11    7   36      1.16      0.00
   12    7   36      0.87      0.00
   13    7   36      0.19      0.00
    0    8   36     -0.56      0.00
    1    8   36      1.28      0.00
    2    8   36      0.53      0.00
    3    8   36     -1.96      0.00
    4    8   36     -0.77      0.00
    5    8   36     -1.58      0.00
    6    8   36     -0.58      0.00
    7    8   36      1.92      0.00
    8    8   36     -0.31      0.00
    9    8   36      0.29      0.00
   10    8   36     -1.03      0.00
   11    8   36     -2.81      0.00
   12    8   36      0.03      0.00
   13    8   36     -0.98      0.00
    1    9   36      1.36      0.00
    2    9   36      0.46      0.00
    3    9   36      0.01      0.00
    4    9   36      2.29      0.00
    5    9   36      1.86      0.00
    6    9   36      0.86      0.00
    7    9   36     -1.19      0.00
    8    9   36     -0.84      0.00
    9    9   36      0.02      0.00
   10    9   36      1.89      0.00
   11    9   36      0.64      0.00
   12    9   36      1.42      0.00
    0   10   36     -1.71      0.00
    1   10   36      0.94      0.00
    2   10   36      2.79      0.00
    3   10   36     -1.22      0.00
    4   10   36     -0.26      0.00
    5   10   36      0.19      0.00
    6   10   36     -0.56      0.00
    7   10   36     -1.16      0.00
    8   10   36     -0.46      0.00
    9   10   36     -0.77      0.00
   10   10   36      1.27      0.00
   11   10   36     -0.45      0.00
    1   11   36     -1.49      0.00
    2   11   36      0.62      0.00
    3   11   36     -1.76      0.00
    4   11   36     -0.94      0.00
    5   11   36      1.88      0.00
    6   11   36      0.76      0.00
    7   11   36      0.23      0.00
    8   11   36      0.78      0.00
    9   11   36     -0.93      0.00
   10   11   36      1.20      0.00
   11   11   36      0.16      0.00
    0   12   36      1.59      0.00
    1   12   36      0.60      0.00
    2   12   36      0.61      0.00
    3   12   36     -0.12      0.00
    4   12   36     -0.79      0.00
    5   12   36     -0.12      0.00
    6   12   36     -1.40      0.00
    7   12   36     -0.65      0.00
    8   12   36     -0.16      0.00
    9   12   36     -0.23      0.00
   10   12   36     -0.29      0.00
   11   12   36      0.53      0.00
    1   13   36     -1.38      0.00
    2   13   36      0.40      0.00
    3   13   36      2.31      0.00
    4   13   36      0.21      0.00
    5   13   36      1.02      0.00
    6   13   36      0.67      0.00
    7   13   36      0.66      0.00
    8   13   36     -1.15      0.00
    9   13   36     -0.57      0.00
   10   13   36      0.59      0.00
    0   14   36      1.37      0.00
    1   14   36      1.60      0.00
    2   14   36      1.20      0.00
    3   14   36      0.33      0.00
    4   14   36     -0.29      0.00
    5   14   36     -1.46      0.00
    6   14   36      1.05      0.00
    7   14   36      0.42      0.00
    8   14   36      0.23      0.00
    9   14   36      0.39      0.00
    1   15   36     -0.68      0.00
    2   15   36     -0.22      0.00
    3   15   36     -1.29      0.00
    4   15   36      0.26      0.00
    5   15   36     -0.96      0.00
    6   15   36     -0.62      0.00
    7   15   36     -0.35      0.00
    8   15   36      0.76      0.00
    0   16   36     -1.48      0.00
    1   16   36      0.69      0.00
    2   16   36      1.37      0.00
    3   16   36      2.28      0.00
    4   16   36      0.95      0.00
    5   16   36     -0.93      0.00
    6   16   36     -0.04      0.00
    7   16   36      0.36      0.00
    1   17   36      1.32      0.00
    2   17   36      1.83      0.00
    3   17   36      1.86      0.00
    4   17   36     -0.56      0.00
    5   17   36      0.51      0.00
    0   18   36     -0.91      0.00
    1   18   36     -1.14      0.00
    2   18   36     -1.67      0.00
    3   18   36      0.14      0.00
    1    0   37      1.99      0.00
    3    0   37     -4.22      0.00
    5    0   37      0.73      0.00
    7    0   37      1.92      0.00
    9    0   37     -2.01      0.00
   11    0   37      1.45      0.00
   13    0   37      0.91      0.00
    0    1   37      0.19      0.00
    1    1   37      1.37      0.00
    2    1   37      2.21      0.00
    3    1   37      1.39      0.00
    4    1   37     -1.68      0.00
    5    1   37     -1.44      0.00
    6    1   37     -0.71      0.00
    7    1   37     -0.45      0.00
    8    1   37      2.84      0.00
    9    1   37      0.55      0.00
   10    1   37     -0.55      0.00
   11    1   37      0.87      0.00
   12    1   37     -2.48      0.00
   13    1   37      1.79      0.00
    1    2   37      0.53      0.00
    2    2   37     -3.03      0.00
    3    2   37     -0.24      0.00
    4    2   37     -0.76      0.00
    5    2   37      0.61      0.00
    6    2   37     -0.83      0.00
    7    2   37      0.92      0.00
    8    2   37      1.64      0.00
    9    2   37      1.39      0.00
   10    2   37     -1.36      0.00
   11    2   37      0.44      0.00
   12    2   37     -1.36      0.00
   13    2   37      1.30      0.00
    0    3   37      1.57      0.00
    1    3   37      2.11      0.00
    2    3   37     -0.09      0.00
    3    3   37      2.23      0.00
    4    3   37     -3.12      0.00
    5    3   37      1.31      0.00
    6    3   37      0.31      0.00
    7    3   37      0.28      0.00
    8    3   37      1.57      0.00
    9    3   37     -0.26      0.00
   10    3   37     -0.18      0.00
   11    3   37     -1.33      0.00
   12    3   37      0.30      0.00
   13    3   37      0.66      0.00
    1    4   37     -0.48      0.00
    2    4   37     -1.83      0.00
    3    4   37      1.34      0.00
    4    4   37     -0.59      0.00
    5    4   37     -0.40      0.00
    6    4   37     -0.42      0.00
    7    4   37     -0.70      0.00
    8    4   37      1.55      0.00
    9    4   37      2.41      0.00
   10    4   37     -1.53      0.00
   11    4   37     -2.40      0.00
   12    4   37      1.12      0.00
   13    4   37     -0.51      0.00
    0    5   37     -2.34      0.00
    1    5   37     -0.80      0.00
    2    5   37     -1.51      0.00
    3    5   37      0.50      0.00
    4    5   37      0.58      0.00
    5    5   37      0.80      0.00
    6    5   37     -0.97      0.00
    7    5   37     -1.43      0.00
    8    5   37      2.23      0.00
    9    5   37      0.43      0.00
   10    5   37      1.29      0.00
   11    5   37     -1.14      0.00
   12    5   37     -0.77      0.00
   13    5   37     -1.30      0.00
    1    6   37      3.21      0.00
    2    6   37     -0.89      0.00
    3    6   37     -2.75      0.00
    4    6   37      1.43      0.00
    5    6   37      1.45      0.00
    6    6   37      2.07      0.00
    7    6   37     -0.47      0.00
    8    6   37     -0.71      0.00
    9    6   37     -0.36      0.00
   10    6   37     -0.11      0.00
   11    6   37      0.12      0.00
   12    6   37      0.09      0.00
   13    6   37      0.43      0.00
    0    7   37     -3.74      0.00
    1    7   37     -0.50      0.00
    2    7   37     -0.06      0.00
    3    7   37      0.57      0.00
    4    7   37      0.60      0.00
    5    7   37      1.23      0.00
    6    7   37     -1.50      0.00
    7    7   37      1.57      0.00
    8    7   37      1.62      0.00
    9    7   37     -1.04      0.00
   10    7   37      1.00      0.00
   11    7   37     -0.47      0.00
   12    7   37     -1.02      0.00
   13    7   37      1.62      0.00
    1    8   37      0.99      0.00
    2    8   37     -0.74      0.00
    3    8   37     -0.49      0.00
    4    8   37      1.09      0.00
    5    8   37     -0.71      0.00
    6    8   37     -0.32      0.00
    7    8   37      0.24      0.00
    8    8   37     -0.20      0.00
    9    8   37     -1.17      0.00
   10    8   37     -0.82      0.00
   11    8   37     -1.44      0.00
   12    8   37     -1.77      0.00
    0    9   37      0.92      0.00
    1    9   37     -0.36      0.00
    2    9   37     -1.69      0.00
    3    9   37     -0.57      0.00
    4    9   37      0.78      0.00
    5    9   37      0.50      0.00
    6    9   37      0.71      0.00
    7    9   37      0.86      0.00
    8    9   37     -1.09      0.00
    9    9   37     -0.04      0.00
   10    9   37     -0.26      0.00
   11    9   37      1.94      0.00
   12    9   37      0.64      0.00
    1   10   37      0.33      0.00
    2   10   37     -0.43      0.00
    3   10   37      2.00      0.00
    4   10   37      2.36      0.00
    5   10   37     -0.93      0.00
    6   10   37     -0.16      0.00
    7   10   37      0.56      0.00
    8   10   37     -0.94      0.00
    9   10   37      0.00      0.00
   10   10   37     -1.58      0.00
   11   10   37     -0.18      0.00
    0   11   37      0.05      0.00
    1   11   37      1.52      0.00
    2   11   37     -1.73      0.00
    3   11   37     -1.46      0.00
    4   11   37      0.48      0.00
    5   11   37     -1.59      0.00
    6   11   37      0.52      0.00
    7   11   37      2.49      0.00
    8   11   37     -0.59      0.00
    9   11   37      1.18      0.00
   10   11   37      0.17      0.00
   11   11   37     -0.01      0.00
    1   12   37      0.54      0.00
    2   12   37     -1.11      0.00
    3   12   37     -0.23      0.00
    4   12   37      2.43      0.00
    5   12   37     -0.35      0.00
    6   12   37     -2.13      0.00
    7   12   37     -1.40      0.00
    8   12   37     -0.31      0.00
    9   12   37      0.46      0.00
   10   12   37      0.48      0.00
    0   13   37     -1.80      0.00
    1   13   37      1.50      0.00
    2   13   37      0.78      0.00
    3   13   37     -0.38      0.00
    4   13   37      1.87      0.00
    5   13   37      0.21      0.00
    6   13   37      0.49      0.00
    7   13   37      0.76      0.00
    8   13   37      0.04      0.00
    9   13   37     -0.74      0.00
    1   14   37     -0.03      0.00
    2   14   37     -0.29      0.00
    3   14   37      0.64      0.00
    4   14   37      0.94      0.00
    5   14   37     -0.10      0.00
    6   14   37     -1.49      0.00
    7   14   37     -0.44      0.00
    8   14   37      0.75      0.00
    0   15   37     -0.06      0.00
    1   15   37      0.04      0.00
    2   15   37     -1.58      0.00
    3   15   37      0.14      0.00
    4   15   37     -0.48      0.00
    5   15   37      0.62      0.00
    6   15   37      0.61      0.00
    7   15   37     -0.41      0.00
    1   16   37     -0.27      0.00
    2   16   37     -0.35      0.00
    3   16   37      2.12      0.00
    4   16   37      0.09      0.00
    5   16   37      0.04      0.00
    6   16   37      0.45      0.00
    0   17   37      1.76      0.00
    1   17   37      1.24      0.00
    2   17   37     -0.43      0.00
    3   17   37      0.01      0.00
    4   17   37     -0.02      0.00
    1   18   37     -0.92      0.00
    0    0   38      3.31      0.00
    2    0   38      0.60      0.00
    4    0   38     -1.84      0.00
    6    0   38      0.95      0.00
    8    0   38      0.72      0.00
   10    0   38      0.03      0.00
   12    0   38      1.90      0.00
    1    1   38      0.40      0.00
    2    1   38      1.18      0.00
    3    1   38      0.07      0.00
    4    1   38     -1.75      0.00
    5    1   38     -0.80      0.00
    6    1   38     -0.16      0.00
    7    1   38     -2.07      0.00
    8    1   38     -1.06      0.00
    9    1   38      2.27      0.00
   10    1   38     -0.29      0.00
   11    1   38     -1.94      0.00
   12    1   38     -0.03      0.00
   13    1   38     -0.91      0.00
    0    2   38     -0.40      0.00
    1    2   38     -1.90      0.00
    2    2   38      1.00      0.00
    3    2   38     -0.75      0.00
    4    2   38     -0.19      0.00
    5    2   38      1.50      0.00
    6    2   38     -1.19      0.00
    7    2   38     -0.09      0.00
    8    2   38      3.62      0.00
    9    2   38     -0.83      0.00
   10    2   38      1.32      0.00
   11    2   38      1.18      0.00
   12    2   38      0.04      0.00
   13    2   38     -1.82      0.00
    1    3   38      2.96      0.00
    2    3   38      1.57      0.00
    3    3   38     -4.76      0.00
    4    3   38      0.80      0.00
    5    3   38      0.82      0.00
    6    3   38      0.72      0.00
    7    3   38      0.51      0.00
    8    3   38     -0.93      0.00
    9    3   38     -1.37      0.00
   10    3   38      2.42      0.00
   11    3   38      0.79      0.00
   12    3   38     -0.64      0.00
   13    3   38     -1.39      0.00
    0    4   38      0.05      0.00
    1    4   38     -0.08      0.00
    2    4   38      1.16      0.00
    3    4   38     -1.18      0.00
    4    4   38     -0.77      0.00
    5    4   38     -0.95      0.00
    6    4   38     -0.96      0.00
    7    4   38      1.77      0.00
    8    4   38      2.09      0.00
    9    4   38     -0.47      0.00
   10    4   38     -0.93      0.00
   11    4   38      0.38      0.00
   12    4   38      1.21      0.00
   13    4   38      0.51      0.00
    1    5   38      0.91      0.00
    2    5   38      0.65      0.00
    3    5   38     -1.29      0.00
    4    5   38      1.04      0.00
    5    5   38     -0.16      0.00
    6    5   38     -1.47      0.00
    7    5   38      1.58      0.00
    8    5   38     -0.31      0.00
    9    5   38      1.03      0.00
   10    5   38     -0.70      0.00
   11    5   38      1.14      0.00
   12    5   38     -1.74      0.00
   13    5   38     -1.07      0.00
    0    6   38      1.50      0.00
    1    6   38      1.91      0.00
    2    6   38     -0.69      0.00
    3    6   38     -0.40      0.00
    4    6   38     -3.74      0.00
    5    6   38     -0.63      0.00
    6    6   38      1.68      0.00
    7    6   38      2.23      0.00
    8    6   38      0.20      0.00
    9    6   38      0.10      0.00
   10    6   38     -2.78      0.00
   11    6   38      0.38      0.00
   12    6   38      2.07      0.00
    1    7   38      0.40      0.00
    2    7   38      0.84      0.00
    3    7   38      0.26      0.00
    4    7   38      0.16      0.00
    5    7   38      0.04      0.00
    6    7   38     -0.78      0.00
    7    7   38     -0.01      0.00
    8    7   38      2.72      0.00
    9    7   38      2.28      0.00
   10    7   38     -0.81      0.00
   11    7   38     -0.04      0.00
   12    7   38     -1.36      0.00
    0    8   38      0.54      0.00
    1    8   38      4.13      0.00
    2    8   38      1.71      0.00
    3    8   38      0.97      0.00
    4    8   38     -0.34      0.00
    5    8   38      0.54      0.00
    6    8   38     -0.86      0.00
    7    8   38      0.37      0.00
    8    8   38      0.66      0.00
    9    8   38      0.06      0.00
   10    8   38     -0.80      0.00
   11    8   38     -0.18      0.00
   12    8   38     -0.27      0.00
    1    9   38     -0.84      0.00
    2    9   38     -2.10      0.00
    3    9   38     -2.99      0.00
    4    9   38     -0.60      0.00
    5    9   38      1.07      0.00
    6    9   38     -1.26      0.00
    7    9   38     -0.57      0.00
    8    9   38      0.45      0.00
    9    9   38      0.07      0.00
   10    9   38      1.14      0.00
   11    9   38      0.41      0.00
    0   10   38     -0.50      0.00
    1   10   38      2.79      0.00
    2   10   38      1.74      0.00
    3   10   38      1.83      0.00
    4   10   38      0.39      0.00
    5   10   38      0.39      0.00
    6   10   38     -0.25      0.00
    7   10   38      0.67      0.00
    8   10   38      0.75      0.00
    9   10   38     -0.74      0.00
   10   10   38     -1.21      0.00
   11   10   38     -0.08      0.00
    1   11   38      0.56      0.00
    2   11   38     -0.27      0.00
    3   11   38     -0.01      0.00
    4   11   38     -0.57      0.00
    5   11   38     -1.06      0.00
    6   11   38     -0.05      0.00
    7   11   38      0.24      0.00
    8   11   38      0.89      0.00
    9   11   38      0.05      0.00
   10   11   38      1.11      0.00
    0   12   38     -0.37      0.00
    1   12   38      0.71      0.00
    2   12   38     -0.18      0.00
    3   12   38      1.69      0.00
    4   12   38     -0.29      0.00
    5   12   38     -0.41      0.00
    6   12   38      1.75      0.00
    7   12   38     -1.72      0.00
    8   12   38     -1.18      0.00
    9   12   38     -0.15      0.00
   10   12   38     -0.45      0.00
    1   13   38      0.99      0.00
    2   13   38     -0.06      0.00
    3   13   38      0.49      0.00
    4   13   38     -1.13      0.00
    5   13   38     -1.20      0.00
    6   13   38      0.89      0.00
    7   13   38      0.91      0.00
    8   13   38      0.32      0.00
    9   13   38      0.38      0.00
    0   14   38      0.19      0.00
    1   14   38      1.39      0.00
    2   14   38     -1.97      0.00
    3   14   38      1.19      0.00
    4   14   38     -0.27      0.00
    5   14   38     -0.51      0.00
    6   14   38      0.60      0.00
    7   14   38      0.13      0.00
    8   14   38     -0.42      0.00
    1   15   38      0.40      0.00
    2   15   38      1.04      0.00
    3   15   38      0.60      0.00
    4   15   38     -0.58      0.00
    5   15   38     -0.65      0.00
    6   15   38     -0.43      0.00
    7   15   38      1.38      0.00
    0   16   38      0.58      0.00
    1   16   38      0.60      0.00
    2   16   38     -0.57      0.00
    3   16   38     -0.46      0.00
    4   16   38      0.57      0.00
    5   16   38     -0.60      0.00
    1   17   38     -0.56      0.00
    2   17   38      0.41      0.00
    3   17   38     -0.68      0.00
    1    0   39      4.63      0.00
    3    0   39     -1.75      0.00
    5    0   39      2.67      0.00
    7    0   39      1.40      0.00
    9    0   39     -2.40      0.00
   11    0   39      2.25      0.00
   13    0   39     -1.87      0.00
    0    1   39     -2.56      0.00
    1    1   39      0.90      0.00
    2    1   39     -0.29      0.00
    3    1   39     -1.11      0.00
    4    1   39     -1.24      0.00
    5    1   39     -0.50      0.00
    6    1   39     -2.21      0.00
    7    1   39      0.58      0.00
    8    1   39      1.31      0.00
    9    1   39     -0.82      0.00
   10    1   39     -1.08      0.00
   11    1   39     -2.01      0.00
   12    1   39      1.54      0.00
   13    1   39      0.36      0.00
    1    2   39      1.21      0.00
    2    2   39      1.35      0.00
    3    2   39     -0.30      0.00
    4    2   39      1.00      0.00
    5    2   39      0.60      0.00
    6    2   39     -1.68      0.00
    7    2   39      0.67      0.00
    8    2   39      1.24      0.00
    9    2   39     -0.28      0.00
   10    2   39     -0.20      0.00
   11    2   39      0.43      0.00
   12    2   39      0.87      0.00
   13    2   39     -1.74      0.00
    0    3   39     -0.15      0.00
    1    3   39      0.27      0.00
    2    3   39      0.51      0.00
    3    3   39     -0.16      0.00
    4    3   39     -0.52      0.00
    5    3   39     -0.77      0.00
    6    3   39     -1.06      0.00
    7    3   39      0.58      0.00
    8    3   39      1.12      0.00
    9    3   39      1.69      0.00
   10    3   39     -0.05      0.00
   11    3   39      0.59      0.00
   12    3   39     -1.09      0.00
   13    3   39      0.54      0.00
    1    4   39      1.08      0.00
    2    4   39      0.41      0.00
    3    4   39     -0.44      0.00
    4    4   39     -0.51      0.00
    5    4   39      0.65      0.00
    6    4   39     -1.37      0.00
    7    4   39     -0.49      0.00
    8    4   39      0.65      0.00
    9    4   39      0.80      0.00
   10    4   39      0.66      0.00
   11    4   39      1.44      0.00
   12    4   39     -0.81      0.00
   13    4   39      0.56      0.00
    0    5   39     -0.74      0.00
    1    5   39      1.07      0.00
    2    5   39      2.23      0.00
    3    5   39      0.42      0.00
    4    5   39      0.81      0.00
    5    5   39      0.85      0.00
    6    5   39     -2.23      0.00
    7    5   39      0.25      0.00
    8    5   39      1.83      0.00
    9    5   39     -0.71      0.00
   10    5   39      1.77      0.00
   11    5   39      0.44      0.00
   12    5   39     -2.43      0.00
    1    6   39     -0.73      0.00
    2    6   39     -0.43      0.00
    3    6   39     -1.91      0.00
    4    6   39     -0.23      0.00
    5    6   39     -1.21      0.00
    6    6   39     -0.69      0.00
    7    6   39      1.46      0.00
    8    6   39     -0.52      0.00
    9    6   39     -0.62      0.00
   10    6   39      2.27      0.00
   11    6   39     -0.77      0.00
   12    6   39     -0.38      0.00
    0    7   39      0.83      0.00
    1    7   39     -0.87      0.00
    2    7   39      0.48      0.00
    3    7   39     -0.72      0.00
    4    7   39      1.55      0.00
    5    7   39      0.23      0.00
    6    7   39     -0.70      0.00
    7    7   39      0.06      0.00
    8    7   39      1.16      0.00
    9    7   39      0.90      0.00
   10    7   39      0.98      0.00
   11    7   39      0.20      0.00
   12    7   39     -0.88      0.00
    1    8   39      1.58      0.00
    2    8   39      1.86      0.00
    3    8   39      0.15      0.00
    4    8   39      2.39      0.00
    5    8   39     -1.43      0.00
    6    8   39      0.35      0.00
    7    8   39      2.30      0.00
    8    8   39     -1.11      0.00
    9    8   39      0.10      0.00
   10    8   39      1.61      0.00
   11    8   39      0.54      0.00
    0    9   39     -0.84      0.00
    1    9   39     -1.33      0.00
    2    9   39     -1.59      0.00
    3    9   39     -1.69      0.00
    4    9   39     -1.38      0.00
    5    9   39     -1.11      0.00
    6    9   39      1.62      0.00
    7    9   39      0.92      0.00
    8    9   39     -0.16      0.00
    9    9   39     -0.25      0.00
   10    9   39     -0.54      0.00
   11    9   39     -1.42      0.00
    1   10   39      1.72      0.00
    2   10   39      1.67      0.00
    3   10   39     -0.71      0.00
    4   10   39      1.46      0.00
    5   10   39     -0.31      0.00
    6   10   39     -0.97      0.00
    7   10   39      0.90      0.00
    8   10   39      1.15      0.00
    9   10   39      0.57      0.00
   10   10   39      0.16      0.00
    0   11   39      0.91      0.00
    1   11   39      1.44      0.00
    2   11   39     -0.15      0.00
    3   11   39     -0.52      0.00
    4   11   39     -0.07      0.00
    5   11   39      0.34      0.00
    6   11   39     -0.91      0.00
    7   11   39      1.12      0.00
    8   11   39      0.92      0.00
    9   11   39     -0.17      0.00
   10   11   39     -0.13      0.00
    1   12   39      0.10      0.00
    2   12   39      0.61      0.00
    3   12   39      0.25      0.00
    4   12   39      1.55      0.00
    5   12   39      1.05      0.00
    6   12   39     -1.91      0.00
    7   12   39      0.69      0.00
    8   12   39     -0.91      0.00
    9   12   39      0.45      0.00
    0   13   39      1.97      0.00
    1   13   39      0.57      0.00
    2   13   39      0.06      0.00
    3   13   39     -1.43      0.00
    4   13   39     -1.02      0.00
    5   13   39     -0.74      0.00
    6   13   39     -0.46      0.00
    7   13   39      1.93      0.00
    8   13   39      0.90      0.00
    1   14   39     -1.05      0.00
    2   14   39     -0.17      0.00
    3   14   39     -0.42      0.00
    4   14   39      1.79      0.00
    5   14   39     -0.29      0.00
    6   14   39     -0.77      0.00
    7   14   39     -0.78      0.00
    0   15   39      0.34      0.00
    1   15   39      0.96      0.00
    2   15   39      1.76      0.00
    3   15   39      0.18      0.00
    4   15   39      0.06      0.00
    5   15   39     -0.12      0.00
    6   15   39      0.58      0.00
    1   16   39     -0.14      0.00
    2   16   39     -1.76      0.00
    3   16   39     -0.49      0.00
    4   16   39      0.78      0.00
    1   17   39     -0.34      0.00
    0    0   40      2.80      0.00
    2    0   40      2.37      0.00
    4    0   40      0.27      0.00
    6    0   40     -0.57      0.00
    8    0   40      0.64      0.00
   10    0   40      0.79      0.00
   12    0   40     -2.16      0.00
    1    1   40     -2.32      0.00
    2    1   40     -1.43      0.00
    3    1   40     -0.09      0.00
    4    1   40      1.35      0.00
    5    1   40      0.65      0.00
    6    1   40      0.11      0.00
    7    1   40     -2.00      0.00
    8    1   40     -0.31      0.00
    9    1   40      0.45      0.00
   10    1   40      0.73      0.00
   11    1   40      0.79      0.00
   12    1   40     -1.65      0.00
    0    2   40      1.26      0.00
    1    2   40      2.03      0.00
    2    2   40      0.76      0.00
    3    2   40      0.43      0.00
    4    2   40     -0.97      0.00
    5    2   40     -0.28      0.00
    6    2   40      0.06      0.00
    7    2   40     -0.03      0.00
    8    2   40     -0.83      0.00
    9    2   40     -0.04      0.00
   10    2   40     -1.82      0.00
   11    2   40      2.28      0.00
   12    2   40      1.45      0.00
    1    3   40     -0.43      0.00
    2    3   40     -1.40      0.00
    3    3   40      1.16      0.00
    4    3   40     -0.11      0.00
    5    3   40     -0.08      0.00
    6    3   40     -1.94      0.00
    7    3   40     -0.98      0.00
    8    3   40      0.34      0.00
    9    3   40      1.08      0.00
   10    3   40      1.14      0.00
   11    3   40     -0.30      0.00
   12    3   40     -0.41      0.00
    0    4   40      2.01      0.00
    1    4   40      0.68      0.00
    2    4   40     -0.09      0.00
    3    4   40     -0.91      0.00
    4    4   40     -1.22      0.00
    5    4   40      1.11      0.00
    6    4   40      1.88      0.00
    7    4   40     -0.77      0.00
    8    4   40      0.21      0.00
    9    4   40      0.13      0.00
   10    4   40     -1.48      0.00
   11    4   40      1.57      0.00
   12    4   40      4.71      0.00
    1    5   40      2.22      0.00
    2    5   40      2.01      0.00
    3    5   40     -1.53      0.00
    4    5   40      0.06      0.00
    5    5   40      1.44      0.00
    6    5   40     -1.77      0.00
    7    5   40     -0.93      0.00
    8    5   40      2.08      0.00
    9    5   40      0.19      0.00
   10    5   40      0.61      0.00
   11    5   40     -0.12      0.00
   12    5   40      1.98      0.00
    0    6   40     -1.21      0.00
    1    6   40      1.12      0.00
    2    6   40      0.76      0.00
    3    6   40     -1.06      0.00
    4    6   40     -0.82      0.00
    5    6   40     -1.42      0.00
    6    6   40     -0.37      0.00
    7    6   40      0.26      0.00
    8    6   40      1.57      0.00
    9    6   40      0.86      0.00
   10    6   40     -1.24      0.00
   11    6   40     -0.57      0.00
   12    6   40      0.58      0.00
    1    7   40      1.67      0.00
    2    7   40     -0.19      0.00
    3    7   40     -3.02      0.00
    4    7   40     -0.06      0.00
    5    7   40      3.17      0.00
    6    7   40     -2.97      0.00
    7    7   40     -0.82      0.00
    8    7   40      1.37      0.00
    9    7   40      1.06      0.00
   10    7   40      0.93      0.00
   11    7   40     -0.40      0.00
    0    8   40     -0.07      0.00
    1    8   40      1.64      0.00
    2    8   40      1.02      0.00
    3    8   40      0.23      0.00
    4    8   40     -0.68      0.00
    5    8   40     -0.53      0.00
    6    8   40     -0.36      0.00
    7    8   40      1.09      0.00
    8    8   40      2.14      0.00
    9    8   40      0.50      0.00
   10    8   40      0.34      0.00
   11    8   40      1.17      0.00
    1    9   40      0.14      0.00
    2    9   40      1.40      0.00
    3    9   40     -0.64      0.00
    4    9   40     -0.20      0.00
    5    9   40      0.69      0.00
    6    9   40     -0.56      0.00
    7    9   40      0.79      0.00
    8    9   40      0.95      0.00
    9    9   40      0.61      0.00
   10    9   40     -0.74      0.00
    0   10   40      0.77      0.00
    1   10   40      0.52      0.00
    2   10   40      0.23      0.00
    3   10   40     -0.55      0.00
    4   10   40     -0.17      0.00
    5   10   40     -0.76      0.00
    6   10   40     -0.08      0.00
    7   10   40     -0.04      0.00
    8   10   40      0.43      0.00
    9   10   40      1.49      0.00
   10   10   40      0.98      0.00
    1   11   40      0.41      0.00
    2   11   40      0.01      0.00
    3   11   40     -0.05      0.00
    4   11   40      1.42      0.00
    5   11   40     -0.96      0.00
    6   11   40      0.68      0.00
    7   11   40      0.53      0.00
    8   11   40     -1.55      0.00
    9   11   40     -0.10      0.00
    0   12   40      0.29      0.00
    1   12   40      0.53      0.00
    2   12   40      0.24      0.00
    3   12   40      0.38      0.00
    4   12   40      0.00      0.00
    5   12   40     -0.14      0.00
    6   12   40      2.14      0.00
    7   12   40      0.00      0.00
    8   12   40     -0.14      0.00
    1   13   40      1.36      0.00
    2   13   40     -0.17      0.00
    3   13   40     -1.11      0.00
    4   13   40     -0.39      0.00
    5   13   40     -0.43      0.00
    6   13   40     -0.36      0.00
    7   13   40      0.65      0.00
    8   13   40      1.23      0.00
    0   14   40      0.53      0.00
    1   14   40     -0.21      0.00
    2   14   40     -0.86      0.00
    3   14   40      0.08      0.00
    4   14   40     -0.29      0.00
    5   14   40      0.01      0.00
    6   14   40      0.79      0.00
    7   14   40      0.21      0.00
    1   15   40      0.93      0.00
    2   15   40      1.03      0.00
    3   15   40      1.55      0.00
    4   15   40     -1.37      0.00
    5   15   40     -1.28      0.00
    0   16   40      1.57      0.00
    1   16   40     -0.64      0.00
    2   16   40     -1.27      0.00
    3   16   40      0.47      0.00
    1    0   41     -0.47      0.00
    3    0   41      0.86      0.00
    5    0   41     -0.09      0.00
    7    0   41     -2.29      0.00
    9    0   41     -0.27      0.00
   11    0   41     -0.19      0.00
    0    1   41     -1.71      0.00
    1    1   41     -2.40      0.00
    2    1   41     -0.35      0.00
    3    1   41      1.21      0.00
    4    1   41      0.48      0.00
    5    1   41      0.98      0.00
    6    1   41      1.23      0.00
    7    1   41     -0.24      0.00
    8    1   41      0.07      0.00
    9    1   41      1.47      0.00
   10    1   41     -1.28      0.00
   11    1   41      0.52      0.00
   12    1   41      3.06      0.00
    1    2   41      1.09      0.00
    2    2   41      2.91      0.00
    3    2   41     -1.26      0.00
    4    2   41     -2.91      0.00
    5    2   41      2.35      0.00
    6    2   41     -0.07      0.00
    7    2   41     -2.76      0.00
    8    2   41      0.49      0.00
    9    2   41     -2.34      0.00
   10    2   41      0.05      0.00
   11    2   41      1.66      0.00
   12    2   41      1.86      0.00
    0    3   41     -2.77      0.00
    1    3   41     -1.04      0.00
    2    3   41      1.58      0.00
    3    3   41      0.10      0.00
    4    3   41      0.98      0.00
    5    3   41     -1.16      0.00
    6    3   41     -2.48      0.00
    7    3   41     -0.24      0.00
    8    3   41      1.29      0.00
    9    3   41     -0.30      0.00
   10    3   41      0.48      0.00
   11    3   41     -1.53      0.00
   12    3   41     -1.73      0.00
    1    4   41     -0.15      0.00
    2    4   41      0.45      0.00
    3    4   41     -0.20      0.00
    4    4   41      0.48      0.00
    5    4   41      1.70      0.00
    6    4   41     -0.68      0.00
    7    4   41     -0.10      0.00
    8    4   41     -1.00      0.00
    9    4   41     -0.90      0.00
   10    4   41      1.75      0.00
   11    4   41      0.65      0.00
   12    4   41     -0.05      0.00
    0    5   41      0.58      0.00
    1    5   41      0.32      0.00
    2    5   41     -0.27      0.00
    3    5   41      0.45      0.00
    4    5   41      0.49      0.00
    5    5   41     -1.84      0.00
    6    5   41     -1.16      0.00
    7    5   41      0.82      0.00
    8    5   41      0.18      0.00
    9    5   41      1.84      0.00
   10    5   41     -0.28      0.00
   11    5   41      2.49      0.00
    1    6   41     -0.12      0.00
    2    6   41      0.47      0.00
    3    6   41      4.12      0.00
    4    6   41     -0.16      0.00
    5    6   41     -1.63      0.00
    6    6   41     -1.67      0.00
    7    6   41     -0.06      0.00
    8    6   41     -0.74      0.00
    9    6   41      1.36      0.00
   10    6   41      0.43      0.00
   11    6   41      0.80      0.00
    0    7   41      0.35      0.00
    1    7   41      0.28      0.00
    2    7   41     -1.07      0.00
    3    7   41     -1.03      0.00
    4    7   41     -0.54      0.00
    5    7   41      0.60      0.00
    6    7   41      1.13      0.00
    7    7   41     -1.36      0.00
    8    7   41     -0.23      0.00
    9    7   41      0.06      0.00
   10    7   41      0.08      0.00
   11    7   41      2.67      0.00
    1    8   41      0.43      0.00
    2    8   41     -1.83      0.00
    3    8   41      0.14      0.00
    4    8   41      0.06      0.00
    5    8   41     -1.70      0.00
    6    8   41     -1.53      0.00
    7    8   41      1.30      0.00
    8    8   41      0.03      0.00
    9    8   41      0.58      0.00
   10    8   41      0.66      0.00
    0    9   41      1.02      0.00
    1    9   41      3.77      0.00
    2    9   41      0.61      0.00
    3    9   41      0.69      0.00
    4    9   41      0.36      0.00
    5    9   41      0.71      0.00
    6    9   41      0.24      0.00
    7    9   41      0.44      0.00
    8    9   41      1.18      0.00
    9    9   41      0.38      0.00
   10    9   41     -0.23      0.00
    1   10   41      0.69      0.00
    2   10   41     -2.25      0.00
    3   10   41     -0.79      0.00
    4   10   41      0.46      0.00
    5   10   41     -0.45      0.00
    6   10   41     -1.72      0.00
    7   10   41      0.94      0.00
    8   10   41      0.98      0.00
    9   10   41      0.90      0.00
    0   11   41      0.60      0.00
    1   11   41      0.94      0.00
    2   11   41      0.40      0.00
    3   11   41     -0.52      0.00
    4   11   41     -0.85      0.00
    5   11   41     -0.03      0.00
    6   11   41      0.26      0.00
    7   11   41     -0.20      0.00
    8   11   41      0.35      0.00
    9   11   41     -1.60      0.00
    1   12   41      0.71      0.00
    2   12   41     -0.27      0.00
    3   12   41      0.23      0.00
    4   12   41      0.38      0.00
    5   12   41     -1.12      0.00
    6   12   41      0.66      0.00
    7   12   41      1.42      0.00
    8   12   41      1.84      0.00
    0   13   41      1.01      0.00
    1   13   41      1.89      0.00
    2   13   41     -0.39      0.00
    3   13   41     -0.15      0.00
    4   13   41     -0.15      0.00
    5   13   41      0.15      0.00
    6   13   41     -0.08      0.00
    7   13   41     -0.90      0.00
    1   14   41      0.59      0.00
    2   14   41     -2.76      0.00
    3   14   41      1.06      0.00
    4   14   41      1.00      0.00
    5   14   41     -0.67      0.00
    6   14   41     -0.29      0.00
    0   15   41      1.08      0.00
    1   15   41      1.01      0.00
    2   15   41     -0.35      0.00
    3   15   41     -0.64      0.00
    4   15   41     -0.18      0.00
    0    0   42     -5.48      0.00
    2    0   42     -0.75      0.00
    4    0   42     -1.03      0.00
    6    0   42     -2.72      0.00
    8    0   42      0.18      0.00
   10    0   42     -1.63      0.00
    1    1   42      0.28      0.00
    2    1   42     -0.98      0.00
    3    1   42      1.10      0.00
    4    1   42      1.51      0.00
    5    1   42      2.51      0.00
    6    1   42     -1.13      0.00
    7    1   42     -0.06      0.00
    8    1   42      0.37      0.00
    9    1   42     -1.06      0.00
   10    1   42      1.74      0.00
   11    1   42      0.04      0.00
    0    2   42     -0.72      0.00
    1    2   42      1.90      0.00
    2    2   42      0.05      0.00
    3    2   42     -1.75      0.00
    4    2   42      0.05      0.00
    5    2   42      0.31      0.00
    6    2   42     -0.38      0.00
    7    2   42      0.50      0.00
    8    2   42     -0.84      0.00
    9    2   42     -0.45      0.00
   10    2   42     -0.24      0.00
   11    2   42      1.07      0.00
    1    3   42     -0.58      0.00
    2    3   42     -0.01      0.00
    3    3   42      1.00      0.00
    4    3   42      0.99      0.00
    5    3   42      1.13      0.00
    6    3   42     -2.05      0.00
    7    3   42     -1.54      0.00
    8    3   42     -0.12      0.00
    9    3   42     -0.72      0.00
   10    3   42     -0.18      0.00
   11    3   42     -0.19      0.00
    0    4   42     -2.50      0.00
    1    4   42      0.04      0.00
    2    4   42      0.50      0.00
    3    4   42     -0.52      0.00
    4    4   42     -0.48      0.00
    5    4   42      1.63      0.00
    6    4   42      1.05      0.00
    7    4   42     -0.42      0.00
    8    4   42     -0.82      0.00
    9    4   42     -0.86      0.00
   10    4   42     -1.07      0.00
   11    4   42      1.40      0.00
    1    5   42      0.11      0.00
    2    5   42     -0.47      0.00
    3    5   42     -1.98      0.00
    4    5   42     -1.13      0.00
    5    5   42      1.86      0.00
    6    5   42     -1.67      0.00
    7    5   42     -0.89      0.00
    8    5   42      1.02      0.00
    9    5   42     -1.68      0.00
   10    5   42      1.91      0.00
   11    5   42      0.74      0.00
    0    6   42     -0.53      0.00
    1    6   42      0.22      0.00
    2    6   42      2.64      0.00
    3    6   42      0.17      0.00
    4    6   42      0.92      0.00
    5    6   42      0.54      0.00
    6    6   42      0.00      0.00
    7    6   42     -0.53      0.00
    8    6   42     -0.24      0.00
    9    6   42     -1.25      0.00
   10    6   42      1.02      0.00
   11    6   42     -0.14      0.00
    1    7   42      0.10      0.00
    2    7   42      1.42      0.00
    3    7   42     -2.49      0.00
    4    7   42     -0.55      0.00
    5    7   42      1.18      0.00
    6    7   42      0.28      0.00
    7    7   42      0.35      0.00
    8    7   42     -0.31      0.00
    9    7   42     -1.65      0.00
   10    7   42      0.97      0.00
    0    8   42     -0.64      0.00
    1    8   42     -3.13      0.00
    2    8   42      0.81      0.00
    3    8   42     -0.94      0.00
    4    8   42      0.33      0.00
    5    8   42     -2.01      0.00
    6    8   42     -0.20      0.00
    7    8   42      0.18      0.00
    8    8   42     -0.57      0.00
    9    8   42     -0.83      0.00
   10    8   42      0.36      0.00
    1    9   42      1.09      0.00
    2    9   42      2.24      0.00
    3    9   42     -0.01      0.00
    4    9   42      0.15      0.00
    5    9   42     -0.19      0.00
    6    9   42     -0.02      0.00
    7    9   42     -0.33      0.00
    8    9   42      0.19      0.00
    9    9   42      0.97      0.00
    0   10   42     -0.88      0.00
    1   10   42     -1.88      0.00
    2   10   42     -0.92      0.00
    3   10   42     -0.20      0.00
    4   10   42      0.80      0.00
    5   10   42     -0.07      0.00
    6   10   42      0.50      0.00
    7   10   42      0.52      0.00
    8   10   42     -0.07      0.00
    9   10   42     -0.16      0.00
    1   11   42      1.05      0.00
    2   11   42     -1.55      0.00
    3   11   42     -0.51      0.00
    4   11   42     -0.42      0.00
    5   11   42      0.54      0.00
    6   11   42     -1.19      0.00
    7   11   42     -0.26      0.00
    8   11   42     -0.93      0.00
    0   12   42      0.10      0.00
    1   12   42     -0.07      0.00
    2   12   42     -0.70      0.00
    3   12   42     -0.16      0.00
    4   12   42      0.62      0.00
    5   12   42      0.06      0.00
    6   12   42     -0.53      0.00
    7   12   42      3.00      0.00
    1   13   42      0.33      0.00
    2   13   42      0.60      0.00
    3   13   42     -0.42      0.00
    4   13   42      0.20      0.00
    5   13   42      0.22      0.00
    6   13   42     -0.31      0.00
    0   14   42     -0.58      0.00
    1   14   42     -1.84      0.00
    2   14   42      0.93      0.00
    3   14   42     -0.48      0.00
    4   14   42      0.77      0.00
    5   14   42      0.08      0.00
    1   15   42     -0.30      0.00
    2   15   42      0.24      0.00
    1    0   43     -3.45      0.00
    3    0   43     -0.65      0.00
    5    0   43      2.05      0.00
    7    0   43     -3.17      0.00
    9    0   43     -1.18      0.00
   11    0   43      0.96      0.00
    0    1   43      1.96      0.00
    1    1   43      0.50      0.00
    2    1   43      0.63      0.00
    3    1   43     -0.48      0.00
    4    1   43      0.22      0.00
    5    1   43     -0.51      0.00
    6    1   43      0.44      0.00
    7    1   43      0.10      0.00
    8    1   43     -0.16      0.00
    9    1   43     -1.04      0.00
   10    1   43     -0.41      0.00
   11    1   43      0.04      0.00
    1    2   43     -2.31      0.00
    2    2   43     -0.39      0.00
    3    2   43      1.26      0.00
    4    2   43      0.81      0.00
    5    2   43      0.39      0.00
    6    2   43      0.01      0.00
    7    2   43     -1.19      0.00
    8    2   43      0.40      0.00
    9    2   43      0.57      0.00
   10    2   43     -1.05      0.00
   11    2   43      0.54      0.00
    0    3   43      1.27      0.00
    1    3   43     -0.28      0.00
    2    3   43     -1.12      0.00
    3    3   43      0.24      0.00
    4    3   43      1.04      0.00
    5    3   43      0.38      0.00
    6    3   43      0.07      0.00
    7    3   43      0.05      0.00
    8    3   43     -0.39      0.00
    9    3   43     -0.59      0.00
   10    3   43     -2.84      0.00
   11    3   43      1.46      0.00
    1    4   43     -1.27      0.00
    2    4   43      1.78      0.00
    3    4   43      0.87      0.00
    4    4   43     -0.28      0.00
    5    4   43     -0.32      0.00
    6    4   43     -0.43      0.00
    7    4   43     -1.22      0.00
    8    4   43      0.84      0.00
    9    4   43      0.54      0.00
   10    4   43     -2.41      0.00
   11    4   43     -0.33      0.00
    0    5   43     -1.02      0.00
    1    5   43     -0.81      0.00
    2    5   43     -0.17      0.00
    3    5   43     -2.20      0.00
    4    5   43      1.40      0.00
    5    5   43      0.75      0.00
    6    5   43     -1.96      0.00
    7    5   43     -0.54      0.00
    8    5   43     -0.15      0.00
    9    5   43     -0.83      0.00
   10    5   43     -2.15      0.00
    1    6   43      0.38      0.00
    2    6   43      0.79      0.00
    3    6   43     -0.42      0.00
    4    6   43      2.45      0.00
    5    6   43      1.41      0.00
    6    6   43     -2.23      0.00
    7    6   43     -1.11      0.00
    8    6   43      0.67      0.00
    9    6   43      1.47      0.00
   10    6   43     -1.29      0.00
    0    7   43     -0.58      0.00
    1    7   43      2.41      0.00
    2    7   43     -0.28      0.00
    3    7   43     -1.07      0.00
    4    7   43      1.20      0.00
    5    7   43      1.36      0.00
    6    7   43     -2.77      0.00
    7    7   43      0.64      0.00
    8    7   43     -0.19      0.00
    9    7   43      0.07      0.00
   10    7   43     -2.01      0.00
    1    8   43      0.00      0.00
    2    8   43     -1.66      0.00
    3    8   43      0.95      0.00
    4    8   43      0.59      0.00
    5    8   43      1.12      0.00
    6    8   43     -2.55      0.00
    7    8   43     -1.67      0.00
    8    8   43      0.21      0.00
    9    8   43      0.83      0.00
    0    9   43     -0.26      0.00
    1    9   43      1.32      0.00
    2    9   43      1.04      0.00
    3    9   43     -2.63      0.00
    4    9   43     -0.17      0.00
    5    9   43      1.31      0.00
    6    9   43     -2.14      0.00
    7    9   43     -1.28      0.00
    8    9   43     -0.32      0.00
    9    9   43     -0.46      0.00
    1   10   43     -0.87      0.00
    2   10   43      0.73      0.00
    3   10   43      0.01      0.00
    4   10   43      0.86      0.00
    5   10   43     -0.29      0.00
    6   10   43      0.50      0.00
    7   10   43      0.92      0.00
    8   10   43     -0.06      0.00
    0   11   43     -0.21      0.00
    1   11   43      0.04      0.00
    2   11   43      0.69      0.00
    3   11   43     -2.42      0.00
    4   11   43     -0.40      0.00
    5   11   43      0.30      0.00
    6   11   43      0.43      0.00
    7   11   43     -1.11      0.00
    1   12   43     -0.67      0.00
    2   12   43     -0.45      0.00
    3   12   43      1.18      0.00
    4   12   43      0.09      0.00
    5   12   43     -1.33      0.00
    6   12   43      0.30      0.00
    0   13   43      0.52      0.00
    1   13   43      0.34      0.00
    2   13   43     -0.53      0.00
    3   13   43     -0.58      0.00
    4   13   43     -1.18      0.00
    5   13   43      0.57      0.00
    1   14   43     -0.28      0.00
    2   14   43     -1.10      0.00
    3   14   43      1.44      0.00
    0    0   44      0.40      0.00
    2    0   44     -0.98      0.00
    4    0   44      0.44      0.00
    6    0   44      1.73      0.00
    8    0   44     -0.03      0.00
   10    0   44     -2.41      0.00
    1    1   44      0.16      0.00
    2    1   44      1.88      0.00
    3    1   44      1.15      0.00
    4    1   44     -2.04      0.00
    5    1   44     -0.82      0.00
    6    1   44      0.32      0.00
    7    1   44     -1.04      0.00
    8    1   44     -0.63      0.00
    9    1   44      0.41      0.00
   10    1   44     -1.81      0.00
    0    2   44     -4.92      0.00
    1    2   44     -2.54      0.00
    2    2   44      0.31      0.00
    3    2   44      0.68      0.00
    4    2   44     -1.43      0.00
    5    2   44      1.99      0.00
    6    2   44      0.30      0.00
    7    2   44     -0.76      0.00
    8    2   44      1.16      0.00
    9    2   44      0.36      0.00
   10    2   44     -1.12      0.00
    1    3   44      0.09      0.00
    2    3   44     -0.03      0.00
    3    3   44     -1.18      0.00
    4    3   44     -0.04      0.00
    5    3   44      2.78      0.00
    6    3   44      0.05      0.00
    7    3   44     -1.64      0.00
    8    3   44      0.15      0.00
    9    3   44     -1.37      0.00
   10    3   44      1.63      0.00
    0    4   44     -0.91      0.00
    1    4   44      1.08      0.00
    2    4   44      0.98      0.00
    3    4   44     -0.06      0.00
    4    4   44     -0.87      0.00
    5    4   44      0.83      0.00
    6    4   44     -0.35      0.00
    7    4   44      1.21      0.00
    8    4   44     -0.40      0.00
    9    4   44     -1.26      0.00
   10    4   44      1.21      0.00
    1    5   44     -1.34      0.00
    2    5   44     -1.71      0.00
    3    5   44      1.99      0.00
    4    5   44      0.26      0.00
    5    5   44      0.40      0.00
    6    5   44      1.04      0.00
    7    5   44     -2.37      0.00
    8    5   44     -2.72      0.00
    9    5   44     -1.48      0.00
   10    5   44     -0.77      0.00
    0    6   44     -1.09      0.00
    1    6   44     -1.64      0.00
    2    6   44     -0.88      0.00
    3    6   44      0.70      0.00
    4    6   44     -1.65      0.00
    5    6   44      1.78      0.00
    6    6   44      2.73      0.00
    7    6   44      0.40      0.00
    8    6   44     -1.22      0.00
    9    6   44     -1.80      0.00
    1    7   44     -0.12      0.00
    2    7   44      0.61      0.00
    3    7   44      1.53      0.00
    4    7   44     -1.06      0.00
    5    7   44     -1.63      0.00
    6    7   44      1.58      0.00
    7    7   44     -1.12      0.00
    8    7   44     -0.36      0.00
    9    7   44     -2.44      0.00
    0    8   44     -2.16      0.00
    1    8   44     -1.31      0.00
    2    8   44      0.04      0.00
    3    8   44      0.07      0.00
    4    8   44      0.77      0.00
    5    8   44      1.12      0.00
    6    8   44      1.78      0.00
    7    8   44      0.35      0.00
    8    8   44     -2.05      0.00
    9    8   44     -1.18      0.00
    1    9   44      0.53      0.00
    2    9   44     -2.37      0.00
    3    9   44      0.01      0.00
    4    9   44     -0.20      0.00
    5    9   44     -0.73      0.00
    6    9   44     -0.82      0.00
    7    9   44     -0.79      0.00
    8    9   44     -1.39      0.00
    0   10   44     -0.86      0.00
    1   10   44      0.22      0.00
    2   10   44     -0.97      0.00
    3   10   44      1.05      0.00
    4   10   44      1.00      0.00
    5   10   44     -0.83      0.00
    6   10   44      0.16      0.00
    7   10   44      1.92      0.00
    1   11   44     -0.41      0.00
    2   11   44     -0.71      0.00
    3   11   44     -0.09      0.00
    4   11   44      0.91      0.00
    5   11   44      0.55      0.00
    6   11   44     -0.49      0.00
    0   12   44     -2.27      0.00
    1   12   44      0.24      0.00
    2   12   44     -0.07      0.00
    3   12   44     -1.04      0.00
    4   12   44      2.08      0.00
    5   12   44     -0.61      0.00
    1   13   44     -0.58      0.00
    2   13   44     -1.00      0.00
    3   13   44     -0.81      0.00
    4   13   44      0.16      0.00
    1    0   45      0.64      0.00
    3    0   45     -0.01      0.00
    5    0   45      2.15      0.00
    7    0   45     -0.95      0.00
    9    0   45      0.43      0.00
    0    1   45      0.37      0.00
    1    1   45      1.84      0.00
    2    1   45      0.35      0.00
    3    1   45     -0.42      0.00
    4    1   45     -1.25      0.00
    5    1   45     -0.04      0.00
    6    1   45     -1.66      0.00
    7    1   45      1.21      0.00
    8    1   45      0.57      0.00
    9    1   45     -2.12      0.00
   10    1   45     -0.33      0.00
    1    2   45     -1.66      0.00
    2    2   45     -1.59      0.00
    3    2   45     -0.48      0.00
    4    2   45      1.31      0.00
    5    2   45      0.48      0.00
    6    2   45     -0.21      0.00
    7    2   45     -1.02      0.00
    8    2   45     -0.81      0.00
    9    2   45      0.30      0.00
   10    2   45     -0.23      0.00
    0    3   45      0.91      0.00
    1    3   45     -0.08      0.00
    2    3   45     -0.49      0.00
    3    3   45     -1.22      0.00
    4    3   45     -1.04      0.00
    5    3   45      1.11      0.00
    6    3   45     -0.40      0.00
    7    3   45      1.26      0.00
    8    3   45      0.32      0.00
    9    3   45     -1.74      0.00
   10    3   45     -1.17      0.00
    1    4   45      0.70      0.00
    2    4   45      1.18      0.00
    3    4   45      0.14      0.00
    4    4   45      0.62      0.00
    5    4   45     -0.31      0.00
    6    4   45     -0.51      0.00
    7    4   45     -0.25      0.00
    8    4   45      1.52      0.00
    9    4   45      0.03      0.00
   10    4   45     -2.17      0.00
    0    5   45     -1.48      0.00
    1    5   45     -1.13      0.00
    2    5   45      0.01      0.00
    3    5   45     -0.51      0.00
    4    5   45      0.24      0.00
    5    5   45      1.89      0.00
    6    5   45     -1.86      0.00
    7    5   45     -0.06      0.00
    8    5   45     -0.37      0.00
    9    5   45     -1.96      0.00
    1    6   45     -0.73      0.00
    2    6   45      0.32      0.00
    3    6   45     -1.27      0.00
    4    6   45      0.02      0.00
    5    6   45      1.00      0.00
    6    6   45     -0.54      0.00
    7    6   45      0.00      0.00
    8    6   45      1.33      0.00
    9    6   45     -0.72      0.00
    0    7   45      0.51      0.00
    1    7   45     -0.44      0.00
    2    7   45      0.91      0.00
    3    7   45     -0.96      0.00
    4    7   45      0.99      0.00
    5    7   45     -0.33      0.00
    6    7   45     -3.43      0.00
    7    7   45      0.42      0.00
    8    7   45     -0.14      0.00
    1    8   45     -2.36      0.00
    2    8   45      1.29      0.00
    3    8   45     -0.39      0.00
    4    8   45      1.34      0.00
    5    8   45      1.51      0.00
    6    8   45      0.94      0.00
    7    8   45     -1.20      0.00
    8    8   45      0.73      0.00
    0    9   45     -0.19      0.00
    1    9   45     -0.59      0.00
    2    9   45      0.16      0.00
    3    9   45     -0.74      0.00
    4    9   45      1.53      0.00
    5    9   45      0.71      0.00
    6    9   45     -1.59      0.00
    7    9   45     -1.42      0.00
    1   10   45     -0.64      0.00
    2   10   45     -0.79      0.00
    3   10   45      0.76      0.00
    4   10   45     -1.11      0.00
    5   10   45     -0.28      0.00
    6   10   45      0.22      0.00
    0   11   45     -0.82      0.00
    1   11   45      0.82      0.00
    2   11   45     -0.52      0.00
    3   11   45      1.44      0.00
    4   11   45      0.55      0.00
    5   11   45      1.66      0.00
    1   12   45     -0.60      0.00
    2   12   45     -1.25      0.00
    3   12   45      0.95      0.00
    4   12   45     -0.17      0.00
    1   13   45     -1.04      0.00
    2   13   45     -1.26      0.00
    0    0   46     -1.58      0.00
    2    0   46     -0.19      0.00
    4    0   46     -3.04      0.00
    6    0   46      0.03      0.00
    8    0   46      1.92      0.00
    1    1   46      0.39      0.00
    2    1   46     -0.06      0.00
    3    1   46     -0.09      0.00
    4    1   46      1.04      0.00
    5    1   46     -0.18      0.00
    6    1   46     -0.67      0.00
    7    1   46     -0.63      0.00
    8    1   46      1.68      0.00
    9    1   46     -0.41      0.00
    0    2   46      2.85      0.00
    1    2   46     -0.64      0.00
    2    2   46     -1.19      0.00
    3    2   46     -1.03      0.00
    4    2   46     -0.77      0.00
    5    2   46      0.75      0.00
    6    2   46      0.27      0.00
    7    2   46     -0.62      0.00
    8    2   46      0.25      0.00
    9    2   46      0.39      0.00
    1    3   46     -0.84      0.00
    2    3   46      0.69      0.00
    3    3   46      0.99      0.00
    4    3   46     -1.11      0.00
    5    3   46     -1.84      0.00
    6    3   46      0.05      0.00
    7    3   46     -0.74      0.00
    8    3   46      0.58      0.00
    9    3   46      1.22      0.00
    0    4   46      0.00      0.00
    1    4   46     -1.47      0.00
    2    4   46     -0.28      0.00
    3    4   46     -0.14      0.00
    4    4   46     -0.04      0.00
    5    4   46      1.67      0.00
    6    4   46     -0.12      0.00
    7    4   46     -0.13      0.00
    8    4   46      0.28      0.00
    9    4   46     -0.24      0.00
    1    5   46     -0.81      0.00
    2    5   46     -0.02      0.00
    3    5   46     -1.90      0.00
    4    5   46      0.06      0.00
    5    5   46      0.30      0.00
    6    5   46      0.46      0.00
    7    5   46     -1.32      0.00
    8    5   46      0.45      0.00
    0    6   46     -1.94      0.00
    1    6   46      0.44      0.00
    2    6   46      0.21      0.00
    3    6   46     -2.83      0.00
    4    6   46      1.27      0.00
    5    6   46      1.99      0.00
    6    6   46     -0.31      0.00
    7    6   46      0.31      0.00
    8    6   46     -0.89      0.00
    1    7   46      1.35      0.00
    2    7   46     -1.95      0.00
    3    7   46     -0.57      0.00
    4    7   46      0.26      0.00
    5    7   46     -0.43      0.00
    6    7   46     -1.22      0.00
    7    7   46     -0.25      0.00
    8    7   46     -0.83      0.00
    0    8   46     -3.65      0.00
    1    8   46      0.72      0.00
    2    8   46     -1.50      0.00
    3    8   46     -0.70      0.00
    4    8   46     -0.19      0.00
    5    8   46      2.83      0.00
    6    8   46      1.26      0.00
    7    8   46      0.93      0.00
    1    9   46      0.45      0.00
    2    9   46      1.37      0.00
    3    9   46     -0.18      0.00
    4    9   46      1.04      0.00
    5    9   46      0.60      0.00
    6    9   46     -0.66      0.00
    0   10   46     -2.20      0.00
    1   10   46     -1.00      0.00
    2   10   46      0.35      0.00
    3   10   46     -3.73      0.00
    4   10   46     -0.03      0.00
    5   10   46      0.00      0.00
    1   11   46     -0.10      0.00
    2   11   46      3.21      0.00
    3   11   46      0.13      0.00
    4   11   46      1.20      0.00
    0   12   46     -0.72      0.00
    1   12   46      0.29      0.00
    2   12   46      0.15      0.00
    1    0   47     -3.79      0.00
    3    0   47      1.00      0.00
    5    0   47     -3.67      0.00
    7    0   47     -1.06      0.00
    0    1   47      3.62      0.00
    1    1   47     -2.09      0.00
    2    1   47     -0.77      0.00
    3    1   47      0.08      0.00
    4    1   47     -1.80      0.00
    5    1   47      0.45      0.00
    6    1   47      0.68      0.00
    7    1   47     -0.09      0.00
    8    1   47     -0.19      0.00
    9    1   47      0.88      0.00
    1    2   47      1.78      0.00
    2    2   47      0.89      0.00
    3    2   47     -0.20      0.00
    4    2   47     -0.57      0.00
    5    2   47     -0.04      0.00
    6    2   47      0.67      0.00
    7    2   47     -1.58      0.00
    8    2   47     -0.16      0.00
    9    2   47      0.45      0.00
    0    3   47     -1.37      0.00
    1    3   47      0.66      0.00
    2    3   47      1.28      0.00
    3    3   47     -1.70      0.00
    4    3   47     -2.69      0.00
    5    3   47      0.20      0.00
    6    3   47     -0.54      0.00
    7    3   47      0.01      0.00
    8    3   47      0.93      0.00
    1    4   47     -0.65      0.00
    2    4   47     -1.52      0.00
    3    4   47     -0.82      0.00
    4    4   47      0.89      0.00
    5    4   47      0.22      0.00
    6    4   47     -0.95      0.00
    7    4   47     -0.54      0.00
    8    4   47     -0.18      0.00
    0    5   47      2.12      0.00
    1    5   47     -0.12      0.00
    2    5   47     -1.01      0.00
    3    5   47     -0.73      0.00
    4    5   47     -3.35      0.00
    5    5   47     -0.31      0.00
    6    5   47      1.31      0.00
    7    5   47      1.36      0.00
    8    5   47      0.90      0.00
    1    6   47     -1.25      0.00
    2    6   47      1.47      0.00
    3    6   47      1.53      0.00
    4    6   47     -1.18      0.00
    5    6   47     -0.35      0.00
    6    6   47     -0.25      0.00
    7    6   47     -0.93      0.00
    0    7   47      1.00      0.00
    1    7   47     -2.42      0.00
    2    7   47      0.40      0.00
    3    7   47      0.03      0.00
    4    7   47     -1.81      0.00
    5    7   47     -0.40      0.00
    6    7   47      0.62      0.00
    7    7   47     -0.70      0.00
    1    8   47     -1.49      0.00
    2    8   47      1.09      0.00
    3    8   47     -0.27      0.00
    4    8   47     -1.07      0.00
    5    8   47     -0.07      0.00
    6    8   47      0.00      0.00
    0    9   47      0.84      0.00
    1    9   47     -0.10      0.00
    2    9   47     -0.33      0.00
    3    9   47      2.36      0.00
    4    9   47      0.95      0.00
    5    9   47     -0.23      0.00
    1   10   47     -1.10      0.00
    2   10   47     -2.60      0.00
    3   10   47     -0.11      0.00
    4   10   47      0.02      0.00
    0   11   47      0.78      0.00
    1   11   47      0.65      0.00
    2   11   47     -0.32      0.00
    3   11   47      2.00      0.00
    0    0   48     -1.52      0.00
    2    0   48      0.33      0.00
    4    0   48     -1.16      0.00
    6    0   48     -1.03      0.00
    8    0   48      1.33      0.00
    1    1   48      0.97      0.00
    2    1   48     -0.78      0.00
    3    1   48     -2.50      0.00
    4    1   48     -1.08      0.00
    5    1   48      0.63      0.00
    6    1   48     -0.72      0.00
    7    1   48     -0.56      0.00
    8    1   48     -0.19      0.00
    0    2   48      0.59      0.00
    1    2   48      0.56      0.00
    2    2   48      0.15      0.00
    3    2   48      1.56      0.00
    4    2   48     -1.62      0.00
    5    2   48     -0.10      0.00
    6    2   48     -0.80      0.00
    7    2   48      1.47      0.00
    8    2   48      0.80      0.00
    1    3   48     -0.49      0.00
    2    3   48      0.19      0.00
    3    3   48     -0.53      0.00
    4    3   48     -1.30      0.00
    5    3   48      0.11      0.00
    6    3   48     -1.34      0.00
    7    3   48     -0.60      0.00
    8    3   48      0.96      0.00
    0    4   48      0.08      0.00
    1    4   48     -1.86      0.00
    2    4   48     -1.59      0.00
    3    4   48     -0.61      0.00
    4    4   48     -0.42      0.00
    5    4   48     -0.20      0.00
    6    4   48     -0.72      0.00
    7    4   48     -0.78      0.00
    1    5   48      1.60      0.00
    2    5   48      0.89      0.00
    3    5   48     -0.35      0.00
    4    5   48     -1.42      0.00
    5    5   48     -0.81      0.00
    6    5   48     -0.89      0.00
    7    5   48      1.48      0.00
    0    6   48     -1.30      0.00
    1    6   48      0.31      0.00
    2    6   48     -1.62      0.00
    3    6   48      0.58      0.00
    4    6   48      0.58      0.00
    5    6   48      0.37      0.00
    6    6   48     -1.39      0.00
    1    7   48      0.09      0.00
    2    7   48     -0.62      0.00
    3    7   48     -1.46      0.00
    4    7   48      0.33      0.00
    5    7   48     -0.04      0.00
    6    7   48     -0.26      0.00
    0    8   48      1.00      0.00
    1    8   48      1.39      0.00
    2    8   48     -0.58      0.00
    3    8   48     -2.27      0.00
    4    8   48     -0.06      0.00
    5    8   48     -0.44      0.00
    1    9   48      1.05      0.00
    2    9   48      0.68      0.00
    3    9   48     -0.73      0.00
    4    9   48     -0.31      0.00
    0   10   48     -0.79      0.00
    1   10   48      1.43      0.00
    2   10   48     -0.68      0.00
    3   10   48     -0.38      0.00
    1    0   49      2.24      0.00
    3    0   49      2.00      0.00
    5    0   49      0.93      0.00
    7    0   49     -1.41      0.00
    0    1   49     -0.01      0.00
    1    1   49      1.53      0.00
    2    1   49     -1.33      0.00
    3    1   49     -2.39      0.00
    4    1   49     -2.60      0.00
    5    1   49     -0.05      0.00
    6    1   49      0.04      0.00
    7    1   49     -1.41      0.00
    1    2   49     -2.61      0.00
    2    2   49      0.66      0.00
    3    2   49      1.05      0.00
    4    2   49      1.45      0.00
    5    2   49     -2.34      0.00
    6    2   49     -1.11      0.00
    7    2   49     -0.17      0.00
    0    3   49      2.64      0.00
    1    3   49     -0.39      0.00
    2    3   49     -1.45      0.00
    3    3   49     -1.19      0.00
    4    3   49     -1.18      0.00
    5    3   49      1.10      0.00
    6    3   49      0.99      0.00
    7    3   49     -0.99      0.00
    1    4   49     -0.08      0.00
    2    4   49      1.03      0.00
    3    4   49     -1.21      0.00
    4    4   49     -1.45      0.00
    5    4   49     -0.31      0.00
    6    4   49     -1.08      0.00
    0    5   49      0.50      0.00
    1    5   49      1.21      0.00
    2    5   49      2.56      0.00
    3    5   49     -1.09      0.00
    4    5   49     -1.48      0.00
    5    5   49      0.51      0.00
    6    5   49      0.70      0.00
    1    6   49     -0.11      0.00
    2    6   49      1.23      0.00
    3    6   49     -2.99      0.00
    4    6   49      0.29      0.00
    5    6   49     -0.18      0.00
    0    7   49     -1.46      0.00
    1    7   49     -0.09      0.00
    2    7   49     -0.10      0.00
    3    7   49     -0.06      0.00
    4    7   49     -1.01      0.00
    5    7   49      0.85      0.00
    1    8   49      2.13      0.00
    2    8   49      0.87      0.00
    3    8   49     -1.09      0.00
    4    8   49     -1.01      0.00
    0    9   49     -0.13      0.00
    1    9   49     -1.74      0.00
    2    9   49      0.57      0.00
    0    0   50      6.95      0.00
    2    0   50     -0.77      0.00
    4    0   50      0.42      0.00
    6    0   50      1.07      0.00
    1    1   50     -3.08      0.00
    2    1   50      1.50      0.00
    3    1   50      0.46      0.00
    4    1   50     -1.17      0.00
    5    1   50     -0.56      0.00
    6    1   50     -0.02      0.00
    0    2   50     -2.16      0.00
    1    2   50     -1.35      0.00
    2    2   50     -1.27      0.00
    3    2   50      0.72      0.00
    4    2   50     -0.52      0.00
    5    2   50     -1.32      0.00
    6    2   50     -0.05      0.00
    1    3   50      0.75      0.00
    2    3   50      0.74      0.00
    3    3   50     -1.01      0.00
    4    3   50      0.61      0.00
    5    3   50      0.44      0.00
    6    3   50     -0.73      0.00
    0    4   50      0.42      0.00
    1    4   50      1.31      0.00
    2    4   50     -1.18      0.00
    3    4   50      0.91      0.00
    4    4   50     -0.26      0.00
    5    4   50     -1.23      0.00
    1    5   50     -1.03      0.00
    2    5   50      1.45      0.00
    3    5   50      1.39      0.00
    4    5   50      0.42      0.00
    5    5   50     -0.88      0.00
    0    6   50      2.94      0.00
    1    6   50     -1.06      0.00
    2    6   50     -1.59      0.00
    3    6   50      0.01      0.00
    4    6   50     -1.39      0.00
    1    7   50     -1.27      0.00
    2    7   50      2.41      0.00
    3    7   50      0.78      0.00
    0    8   50      2.87      0.00
    1    8   50      0.25      0.00
    1    0   51     -0.26      0.00
    3    0   51     -1.88      0.00
    5    0   51     -0.53      0.00
    0    1   51     -4.14      0.00
    1    1   51      0.05      0.00
    2    1   51      0.35      0.00
    3    1   51      1.15      0.00
    4    1   51      0.24      0.00
    5    1   51      0.93      0.00
    1    2   51      0.04      0.00
    2    2   51     -0.13      0.00
    3    2   51     -0.25      0.00
    4    2   51     -1.45      0.00
    5    2   51      1.58      0.00
    0    3   51     -0.35      0.00
    1    3   51      0.62      0.00
    2    3   51      0.66      0.00
    3    3   51     -0.09      0.00
    4    3   51     -1.82      0.00
    1    4   51     -1.17      0.00
    2    4   51      2.19      0.00
    3    4   51      0.26      0.00
    4    4   51      0.38      0.00
    0    5   51     -2.52      0.00
    1    5   51     -0.41      0.00
    2    5   51     -1.20      0.00
    3    5   51      0.41      0.00
    1    6   51      2.34      0.00
    2    6   51     -0.65      0.00
    0    0   52     -3.51      0.00
    2    0   52     -2.64      0.00
    1    1   52     -1.95      0.00
    2    1   52     -0.57      0.00
    3    1   52      2.29      0.00
    0    2   52      4.24      0.00
    1    2   52      1.23      0.00
    2    2   52     -1.26      0.00
    3    2   52     -0.57      0.00
    1    3   52     -2.43      0.00
    2    3   52      0.47      0.00
    1    4   52     -0.43      0.00
   20    0    0     -3.52      0.00
   19    8    0      1.65      0.00
   18   11    0      1.66      0.00
   17   13    0     -4.10      0.00
   16   15    0     -8.24      0.00
   15   16    0      4.43      0.00
   14   18    0      1.17      0.00
   13   19    0     -0.14      0.00
   10   22    0      2.56      0.00
    6   24    0      1.46      0.00
    1   25    0     -6.61      0.00
    2   25    0      1.12      0.00
    3   25    0     -2.38      0.00
    1    0    1    217.99      0.00
    0    1    1   -327.18      0.00
   18   11    1     -0.58      0.00
   17   13    1     -0.59      0.00
   16   15    1      1.20      0.00
   15   16    1     -0.67      0.00
   14   18    1     -3.54      0.00
   13   19    1      0.80      0.00
   10   22    1      1.81      0.00
    6   24    1      0.98      0.00
    0   25    1     -3.54      0.00
    1   25    1     -0.92      0.00
    2   25    1     -1.92      0.00
    3   25    1      0.76      0.00
    0    0    2     50.38      0.00
   20    0    2      0.68      0.00
   18   11    2      1.46      0.00
   17   13    2      1.14      0.00
   16   15    2     -2.36      0.00
   15   16    2      1.82      0.00
   14   18    2     -1.23      0.00
   13   19    2      3.27      0.00
   10   22    2      3.82      0.00
    6   24    2     -2.32      0.00
    1   25    2      3.10      0.00
    2   25    2      0.48      0.00
    3   25    2      3.11      0.00
   18   11    3     -2.65      0.00
   17   13    3      0.75      0.00
   16   15    3      4.13      0.00
   15   16    3     -0.91      0.00
   14   18    3      5.36      0.00
   13   19    3     -2.65      0.00
   11   21    3      2.01      0.00
   10   22    3     -1.92      0.00
    6   24    3     -1.44      0.00
    0   25    3      6.70      0.00
    1   25    3     -0.63      0.00
    2   25    3      7.30      0.00
    3   25    3      0.95      0.00
   17   13    4      3.86      0.00
   16   15    4      2.95      0.00
   15   16    4     -1.91      0.00
   14   18    4      0.12      0.00
   13   19    4     -0.58      0.00
   11   21    4     -2.71      0.00
    6   24    4     -2.19      0.00
    1   25    4      4.69      0.00
    2   25    4      0.92      0.00
    3   25    4      3.68      0.00
   19    7    5      0.95      0.00
   17   13    5      1.99      0.00
   16   15    5     -0.72      0.00
   15   16    5      1.34      0.00
   14   18    5     -6.65      0.00
   13   19    5     -3.35      0.00
   12   20    5      1.54      0.00
   11   21    5      1.15      0.00
    6   24    5     -0.22      0.00
    0   25    5     -1.08      0.00
    1   25    5     -0.88      0.00
    2   25    5     -3.17      0.00
    3   25    5      0.99      0.00
   19    7    6      1.69      0.00
   17   13    6     -2.45      0.00
   16   15    6     -4.35      0.00
   15   16    6     -3.21      0.00
   13   19    6     -3.12      0.00
   12   20    6      0.96      0.00
   11   21    6      1.24      0.00
    8   23    6      1.95      0.00
    6   24    6      3.12      0.00
    1   25    6     -5.82      0.00
    2   25    6     -1.94      0.00
    3   25    6     -6.07      0.00
   19    7    7     -0.26      0.00
   17   13    7      1.31      0.00
   15   16    7      0.96      0.00
   13   19    7      2.55      0.00
   12   20    7      1.27      0.00
   11   21    7     -1.89      0.00
    8   23    7      0.13      0.00
    6   24    7      1.85      0.00
    0   25    7     -3.90      0.00
    1   25    7     -0.91      0.00
    2   25    7     -6.64      0.00
   19    7    8      0.80      0.00
   18   10    8      0.03      0.00
   15   16    8      2.32      0.00
   14   17    8      2.03      0.00
   12   20    8      1.84      0.00
    8   23    8      1.92      0.00
    1   25    8      0.69      0.00
    2   25    8     -2.24      0.00
   19    6    9     -1.71      0.00
   18   10    9      0.51      0.00
   15   16    9     -0.62      0.00
   14   17    9      2.12      0.00
    0   25    9      1.72      0.00
    1   25    9      2.18      0.00
   19    6   10     -1.15      0.00
   18   10   10     -0.82      0.00
   15   16   10      2.53      0.00
   14   17   10     -4.26      0.00
    9   22   10      0.86      0.00
    5   24   10     -0.29      0.00
   19    6   11     -0.27      0.00
   18    9   11      1.00      0.00
   17   12   11     -0.61      0.00
   16   14   11     -1.64      0.00
   15   16   11     -1.74      0.00
   14   17   11     -1.47      0.00
   13   18   11     -0.12      0.00
   10   21   11      2.01      0.00
    9   22   11     -0.77      0.00
    5   24   11      0.15      0.00
   19    5   12      0.83      0.00
   18    9   12      0.62      0.00
   17   12   12      0.40      0.00
   16   14   12      1.52      0.00
   14   17   12      1.12      0.00
   13   18   12      0.54      0.00
   10   21   12     -1.00      0.00
    9   22   12     -0.12      0.00
    7   23   12     -0.33      0.00
   19    4   13     -1.45      0.00
   19    5   13      1.42      0.00
   18    9   13     -0.26      0.00
   14   17   13     -2.29      0.00
   13   18   13      1.35      0.00
   12   19   13     -1.85      0.00
   11   20   13      0.24      0.00
   10   21   13      0.52      0.00
    7   23   13     -0.34      0.00
    4   24   13      0.83      0.00
   19    4   14      0.91      0.00
   17   11   14     -2.55      0.00
   15   15   14      0.15      0.00
   13   18   14      3.45      0.00
   12   19   14      2.27      0.00
   11   20   14     -0.19      0.00
   10   21   14     -2.64      0.00
    8   22   14      0.58      0.00
    4   24   14     -2.39      0.00
   19    0   15      0.60      0.00
   19    2   15     -1.25      0.00
   19    3   15     -0.15      0.00
   18    8   15     -0.89      0.00
   17   11   15      2.07      0.00
   15   15   15      0.69      0.00
   12   19   15      0.50      0.00
   11   20   15     -1.23      0.00
    8   22   15     -1.18      0.00
    6   23   15     -0.82      0.00
    3   24   15     -2.57      0.00
   19    1   16     -1.91      0.00
   19    2   16     -0.33      0.00
   18    8   16      1.28      0.00
   17   11   16      1.20      0.00
   16   13   16     -0.36      0.00
   15   15   16      0.63      0.00
   14   16   16      0.26      0.00
    8   22   16     -2.40      0.00
    6   23   16      2.32      0.00
    2   24   16      0.36      0.00
   18    7   17      0.61      0.00
   17   10   17     -1.72      0.00
   14   16   17     -0.47      0.00
    9   21   17      0.70      0.00
    1   24   17      1.82      0.00
    2   24   17      1.98      0.00
   18    7   18     -1.84      0.00
   17   10   18      0.01      0.00
   14   16   18     -0.19      0.00
   13   17   18     -0.58      0.00
    9   21   18      0.06      0.00
    5   23   18     -0.93      0.00
   18    6   19      0.00      0.00
   16   12   19      0.27      0.00
   15   14   19      2.81      0.00
   13   17   19     -1.85      0.00
   12   18   19      1.49      0.00
   11   19   19     -0.32      0.00
   10   20   19     -1.38      0.00
    7   22   19      0.54      0.00
   18    5   20      0.33      0.00
   17    9   20      1.88      0.00
   12   18   20      0.99      0.00
   11   19   20     -0.33      0.00
    4   23   20      0.28      0.00
   18    4   21     -0.44      0.00
   16   11   21      0.23      0.00
   14   15   21      1.56      0.00
    8   21   21      0.17      0.00
    6   22   21     -1.14      0.00
    3   23   21     -2.18      0.00
   18    2   22     -1.53      0.00
   18    3   22      1.07      0.00
   17    8   22     -1.06      0.00
   16   11   22      1.66      0.00
   15   13   22      0.27      0.00
   13   16   22     -0.81      0.00
    9   20   22      0.06      0.00
    1   23   22      0.23      0.00
    2   23   22     -0.88      0.00
   18    1   23      0.06      0.00
   16   10   23      0.11      0.00
   12   17   23     -0.40      0.00
   11   18   23      0.28      0.00
   10   19   23      0.42      0.00
    7   21   23      0.93      0.00
    5   22   23     -0.34      0.00
   17    7   24      1.24      0.00
   16   10   24     -0.19      0.00
   15   12   24     -0.57      0.00
   14   14   24      0.19      0.00
    4   22   24     -2.31      0.00
   17    6   25      0.84      0.00
   16    9   25     -0.49      0.00
   13   15   25      0.67      0.00
    8   20   25      0.94      0.00
    6   21   25     -1.14      0.00
    3   22   25     -0.98      0.00
   17    4   26     -0.72      0.00
   17    5   26     -0.10      0.00
   15   11   26      1.32      0.00
   14   13   26      0.93      0.00
   12   16   26      1.00      0.00
   11   17   26      0.94      0.00
   10   18   26     -2.01      0.00
    9   19   26     -1.29      0.00
    5   21   26     -0.51      0.00
    0   22   26     -1.14      0.00
    1   22   26      0.87      0.00
    2   22   26      1.27      0.00
   17    3   27      0.43      0.00
   16    8   27      0.66      0.00
   15   10   27     -0.57      0.00
    7   20   27     -1.31      0.00
    5   21   27     -0.63      0.00
   17    1   28      0.12      0.00
   16    7   28      2.28      0.00
   15   10   28     -1.07      0.00
   14   12   28      1.86      0.00
   13   14   28      2.03      0.00
   12   15   28     -1.07      0.00
    8   19   28     -0.38      0.00
    6   20   28     -1.97      0.00
    4   21   28      0.50      0.00
   16    6   29     -0.16      0.00
   15    9   29      1.67      0.00
   11   16   29      0.31      0.00
   10   17   29      0.38      0.00
    9   18   29      0.38      0.00
    0   21   29     -0.85      0.00
    2   21   29      0.01      0.00
    3   21   29     -0.20      0.00
   16    5   30      0.84      0.00
   15    8   30      0.03      0.00
   14   11   30      0.01      0.00
   13   13   30     -0.62      0.00
    7   19   30      1.74      0.00
    5   20   30      1.11      0.00
    1   21   30     -0.83      0.00
   16    3   31      0.67      0.00
   16    4   31      0.03      0.00
   15    8   31      0.33      0.00
   14   10   31      1.14      0.00
   13   12   31     -1.30      0.00
   12   14   31     -1.20      0.00
   11   15   31      0.11      0.00
   10   16   31     -0.33      0.00
    9   17   31     -1.00      0.00
    8   18   31      1.42      0.00
    6   19   31      0.05      0.00
    4   20   31      1.25      0.00
   16    0   32     -0.86      0.00
   16    1   32     -0.49      0.00
   15    7   32      1.53      0.00
   14    9   32     -1.04      0.00
    0   20   32      0.84      0.00
    2   20   32      2.29      0.00
    3   20   32     -0.06      0.00
   15    6   33     -0.73      0.00
   14    9   33      0.39      0.00
   13   11   33      1.55      0.00
   11   14   33     -1.56      0.00
   10   15   33      0.15      0.00
    8   17   33     -0.39      0.00
    4   19   33      0.77      0.00
    5   19   33      0.65      0.00
   15    4   34      2.12      0.00
   14    8   34     -0.59      0.00
   13   10   34     -1.83      0.00
   12   12   34      1.17      0.00
    6   18   34     -0.12      0.00
    3   19   34      3.40      0.00
   15    0   35     -0.67      0.00
   15    1   35      0.03      0.00
   15    2   35      0.98      0.00
   14    7   35      0.39      0.00
   13    9   35      1.40      0.00
   11   13   35      0.47      0.00
    7   17   35     -0.38      0.00
    5   18   35     -0.21      0.00
    0   19   35      1.82      0.00
    1   19   35      1.54      0.00
    2   19   35      2.63      0.00
   14    6   36     -0.92      0.00
   12   10   36      2.04      0.00
   12   11   36      0.63      0.00
    6   17   36     -1.11      0.00
    4   18   36      0.12      0.00
   14    1   37     -0.83      0.00
   14    2   37     -0.11      0.00
   14    3   37     -2.80      0.00
   14    4   37     -0.27      0.00
   13    8   37      0.69      0.00
   12   10   37      0.11      0.00
   10   13   37      0.74      0.00
    9   14   37      0.63      0.00
    8   15   37     -0.91      0.00
    7   16   37     -0.01      0.00
    5   17   37      0.21      0.00
    2   18   37     -0.71      0.00
   14    0   38      0.22      0.00
   14    1   38      1.18      0.00
   13    6   38      0.17      0.00
   12    9   38     -0.51      0.00
   11   11   38      1.08      0.00
    6   16   38      0.29      0.00
    4   17   38     -0.61      0.00
   13    5   39     -0.29      0.00
   12    8   39      1.34      0.00
   11   10   39     -2.75      0.00
    9   13   39      0.59      0.00
    8   14   39     -0.80      0.00
    5   16   39      0.32      0.00
    0   17   39     -0.50      0.00
    2   17   39     -1.66      0.00
   13    1   40      1.93      0.00
   13    2   40     -0.14      0.00
   13    3   40     -0.14      0.00
   12    7   40     -0.76      0.00
   11    9   40     -1.00      0.00
   10   11   40     -0.08      0.00
    9   12   40      0.00      0.00
    6   15   40      0.57      0.00
    4   16   40     -0.63      0.00
   12    5   41     -0.28      0.00
   11    8   41      0.45      0.00
   10   10   41      0.33      0.00
    5   15   41      0.61      0.00
    1   16   41      0.60      0.00
    2   16   41     -0.78      0.00
   12    0   42      0.64      0.00
   12    1   42     -0.52      0.00
   12    2   42      2.35      0.00
   12    3   42     -1.66      0.00
   11    7   42     -0.03      0.00
   10    9   42      1.40      0.00
    8   12   42      0.60      0.00
    7   13   42     -0.83      0.00
    3   15   42     -0.58      0.00
   11    5   43      0.13      0.00
   10    8   43     -1.43      0.00
    8   11   43     -0.76      0.00
    7   12   43      0.42      0.00
    6   13   43      0.17      0.00
    4   14   43      1.17      0.00
    0   15   43      0.74      0.00
    1   15   43      0.36      0.00
   11    1   44     -0.86      0.00
   11    2   44     -1.96      0.00
   11    3   44      0.27      0.00
   10    6   44      0.17      0.00
    8   10   44     -0.77      0.00
    7   11   44     -0.92      0.00
    6   12   44     -0.83      0.00
    0   14   44     -1.23      0.00
    1   14   44      1.30      0.00
    2   14   44     -0.10      0.00
   10    5   45     -1.89      0.00
    9    7   45     -1.13      0.00
    8    9   45     -1.12      0.00
    7   10   45     -0.78      0.00
    6   11   45     -0.65      0.00
    5   12   45      0.01      0.00
    0   13   45     -0.53      0.00
    3   13   45      0.81      0.00
   10    0   46     -0.87      0.00
   10    1   46     -0.41      0.00
   10    2   46     -1.16      0.00
    9    5   46      0.73      0.00
    9    6   46     -1.18      0.00
    8    8   46     -0.94      0.00
    7    9   46      0.48      0.00
    6   10   46      0.39      0.00
    5   11   46      0.08      0.00
    3   12   46     -1.28      0.00
    9    0   47      2.45      0.00
    9    3   47     -1.71      0.00
    9    4   47     -0.28      0.00
    8    6   47      1.25      0.00
    7    8   47      0.46      0.00
    6    9   47     -0.84      0.00
    5   10   47     -0.32      0.00
    4   11   47      0.82      0.00
    1   12   47      1.23      0.00
    8    4   48      0.45      0.00
    7    6   48     -0.24      0.00
    6    8   48      0.37      0.00
    5    9   48     -0.65      0.00
    4   10   48     -0.67      0.00
    1   11   48      0.52      0.00
    7    4   49     -0.64      0.00
    6    6   49     -1.88      0.00
    3    9   49     -0.44      0.00
    1   10   49      0.72      0.00
    7    1   50     -0.56      0.00
    6    4   50     -0.28      0.00
    5    6   50     -0.72      0.00
    4    7   50     -0.61      0.00
    2    8   50     -0.14      0.00
    3    8   50      0.35      0.00
    5    3   51      0.85      0.00
    5    4   51      0.36      0.00
    4    5   51     -0.85      0.00
    3    6   51     -0.80      0.00
    0    7   51     -1.28      0.00
    1    7   51      1.52      0.00
    2    7   51      0.24      0.00
    4    0   52     -2.13      0.00
    4    1   52      2.39      0.00
    4    2   52      1.10      0.00
    3    3   52      1.37      0.00
    4    3   52     -0.56      0.00
    0    4   52     -0.63      0.00
    2    4   52     -0.94      0.00
    3    4   52      1.38      0.00
    1    5   52     -1.72      0.00
    2    5   52      0.57      0.00
    1    0   53     -3.18      0.00
    0    1   53      0.71      0.00
    1    1   53     -1.67      0.00
    2    1   53     -0.53      0.00
    1    2   53      0.52      0.00
    2    2   53      1.96      0.00
    0    3   53     -4.18      0.00
    1    3   53     -0.60      0.00
    0    0    0      0.00      0.00
# SQUEEZE RESULTS (Version = 200618)
# Note: Data are Listed for all Voids in the P1 Unit Cell
# i.e. Centre of Gravity, Solvent Accessible Volume,
# Recovered number of Electrons in the Void and
# Details about the Squeezed Material
loop_
  _platon_squeeze_void_nr
  _platon_squeeze_void_average_x
  _platon_squeeze_void_average_y
  _platon_squeeze_void_average_z
  _platon_squeeze_void_volume
  _platon_squeeze_void_count_electrons
  _platon_squeeze_void_content
   1  0.000  0.000  0.053         8         1 ' '
   2  0.000  0.500  0.000      1197       343 ' '
   3  0.000  0.000  0.130        60         8 ' '
   4  0.000  0.000  0.870        61         8 ' '
   5  0.000  0.000  0.949         7         1 ' '
   6  0.125  0.534  0.500        15         6 ' '
   7  0.500  0.000  0.500      1198       343 ' '
   8  0.215  0.434  0.500         8        -1 ' '
   9  0.292  0.942  0.000        10         0 ' '
  10  0.382  0.041  0.000        13         5 ' '
  11  0.500  0.500  0.370        61         8 ' '
  12  0.500  0.500  0.630        61         8 ' '
  13  0.500  0.500  0.449         7         1 ' '
  14  0.500  0.500  0.551         7         1 ' '
  15  0.625  0.966  0.000        15         6 ' '
  16  0.715  0.066  0.000         9        -1 ' '
  17  0.792  0.558  0.500        10         0 ' '
  18  0.882  0.459  0.500        14         5 ' '
# Missing Reflections Below sin(th)/lambda = 0.25
loop_
  _platon_missing_refln_index_h
  _platon_missing_refln_index_k
  _platon_missing_refln_index_l
  _platon_missing_refln_theta
    1    0    1     2.995
    0    1    1     2.441
    0    0    2     2.099
_platon_squeeze_void_probe_radius                  1.20
_platon_squeeze_details
)
TITL shelx            P n n m      R = 0.10
CELL   15.7544   20.0444   42.0915     90.00     90.00     90.00
SPGR Pnnm
# Solvent Accessible Volume =      2773
# Electrons Found in S.A.V. =       743
# Note: Atoms in Void are Labelled as Cxxx and Qxxx for all Others
Q101 0.340 0.031 0.001 !       3.18 eA-3
Q102 0.824 0.639 0.548 !       2.75 eA-3
C103 0.328 0.162 0.657 !       2.34 eA-3
C104 0.294 0.891 0.592 !       1.90 eA-3
C105 0.185 0.969 0.504 !       1.79 eA-3
C106 0.885 0.360 0.156 !       1.77 eA-3
C107 0.232 0.986 0.434 !       1.69 eA-3
Q108 0.656 0.163 0.388 !       1.69 eA-3
C109 0.336 0.058 0.352 !       1.68 eA-3
Q110 0.276 0.892 0.259 !       1.57 eA-3
Q111 1.000 0.490 0.438 !       1.53 eA-3
C112 0.282 0.942 0.418 !       1.52 eA-3
Q113 0.622 0.811 0.891 !       1.51 eA-3
C114 0.289 1.000 0.429 !       1.46 eA-3
Q115 0.171 0.892 0.441 !       1.39 eA-3
C116 0.968 0.387 0.842 !       1.37 eA-3
C117 0.032 0.613 0.158 !       1.37 eA-3
C118 0.532 0.887 0.342 !       1.36 eA-3
Q119 0.970 0.738 0.181 !       1.34 eA-3
Q120 0.799 0.456 0.462 !       1.27 eA-3
Q121 0.872 0.953 0.901 !       1.24 eA-3
Q122 0.735 0.946 0.073 !       1.22 eA-3
Q123 0.641 0.249 0.664 !       1.06 eA-3
C124 0.287 0.501 0.022 !       1.06 eA-3
Q125 0.469 0.977 0.047 !       1.04 eA-3
Q126 0.531 0.023 0.953 !       1.04 eA-3
Q127 0.469 0.692 0.881 !       1.03 eA-3
Q128 0.531 0.308 0.119 !       1.03 eA-3
Q129 0.558 0.333 0.893 !       1.01 eA-3
C130 0.355 0.916 0.595 !       0.97 eA-3
C131 0.096 0.394 0.820 !       0.96 eA-3
Q132 0.438 0.015 0.050 !       0.95 eA-3
Q133 0.081 0.433 0.929 !       0.95 eA-3
C134 0.035 0.411 0.824 !       0.94 eA-3
Q135 0.597 0.388 0.639 !       0.93 eA-3
Q136 0.947 0.691 0.524 !       0.93 eA-3
C137 0.019 0.605 0.098 !       0.93 eA-3
Q138 0.859 0.858 0.156 !       0.92 eA-3
C139 0.599 0.933 0.656 !       0.92 eA-3
C140 0.973 0.433 0.099 !       0.90 eA-3
Q141 0.172 0.389 0.164 !       0.89 eA-3
C142 0.978 0.700 0.832 !       0.88 eA-3
C143 0.985 0.419 0.172 !       0.88 eA-3
Q144 0.125 0.333 0.822 !       0.87 eA-3
Q145 0.566 0.819 0.134 !       0.87 eA-3
C146 0.203 0.529 0.120 !       0.87 eA-3
Q147 0.110 0.173 0.415 !       0.87 eA-3
C148 0.926 0.977 0.876 !       0.85 eA-3
C149 0.936 0.273 0.177 !       0.83 eA-3
Q150 0.595 0.453-0.002 !       0.83 eA-3
Q151 0.829 0.829 0.391 !       0.81 eA-3
C152 0.486 0.205 0.329 !       0.81 eA-3
Q153 0.575 0.812 0.915 !       0.79 eA-3
Q154 0.860 0.777 0.099 !       0.78 eA-3
Q155 0.213 0.425 0.213 !       0.78 eA-3
Q156 0.364 0.488 0.400 !       0.78 eA-3
C157 0.847 0.469 0.087 !       0.78 eA-3
Q158 0.122 0.985 0.444 !       0.77 eA-3
Q159 0.640 0.254 0.396 !       0.77 eA-3
C160 0.058 0.387 0.905 !       0.76 eA-3
C161 0.098 0.442 0.902 !       0.76 eA-3
Q162 0.702 0.261 0.327 !       0.75 eA-3
C163 0.516 0.948 0.342 !       0.75 eA-3
Q164 0.668 0.193 0.347 !       0.73 eA-3
Q165 0.832 0.713 0.144 !       0.72 eA-3
Q166 0.107 0.854 0.090 !       0.72 eA-3
C167 0.904 0.408 0.103 !       0.68 eA-3
Q168 0.390 0.529 0.426 !       0.67 eA-3
Q169 0.870 0.904 0.955 !       0.65 eA-3
Q170 0.298 0.811 0.676 !       0.64 eA-3
C171 0.476 0.918 0.350 !       0.64 eA-3
C172 0.153 0.402 0.117 !       0.64 eA-3
Q173 0.751 0.967 0.888 !       0.63 eA-3
C174 0.014 0.993 0.126 !       0.63 eA-3
Q175 0.269 0.954 0.232 !       0.63 eA-3
Q176 0.407 0.500 0.003 !       0.63 eA-3
Q177 0.937 0.357 0.875 !       0.62 eA-3
C178 0.094 0.456 0.149 !       0.61 eA-3
C179 0.345 0.975 0.341 !       0.61 eA-3
Q180 0.280 0.202 0.703 !       0.61 eA-3
Q181 0.577 0.856 0.115 !       0.61 eA-3
C182 0.796 0.513 0.117 !       0.60 eA-3
Q183 0.867 0.561 0.814 !       0.59 eA-3
Q184 0.873 0.800 0.836 !       0.59 eA-3
Q185 0.378 0.661 0.143 !       0.59 eA-3
Q186 0.029 0.675 0.115 !       0.58 eA-3
C187 0.944 0.640 0.833 !       0.58 eA-3
Q188 0.162 0.470 0.768 !       0.56 eA-3
Q189 0.932 0.996 0.057 !       0.56 eA-3
Q190 0.068 1.004 0.943 !       0.56 eA-3
Q191 0.955 1.002 0.974 !       0.55 eA-3
Q192 0.517 0.872 0.516 !       0.55 eA-3
Q193 0.403 0.725 0.106 !       0.54 eA-3
C194 0.956 0.531 0.084 !       0.54 eA-3
Q195 0.073 0.983 0.955 !       0.54 eA-3
Q196 0.223 0.939 0.365 !       0.54 eA-3
Q197 0.059 0.420 0.210 !       0.53 eA-3
Q198 0.399 0.987 0.709 !       0.52 eA-3
Q199 0.813 0.972 0.078 !       0.52 eA-3
)
;
_shelx_fab_checksum              7832
loop_
_space_group_symop_operation_xyz
'x, y, z'
'-x, -y, z'
'-x+1/2, y+1/2, -z+1/2'
'x+1/2, -y+1/2, -z+1/2'
'-x, -y, -z'
'x, y, -z'
'x-1/2, -y-1/2, z-1/2'
'-x-1/2, y-1/2, z-1/2'
loop_
_atom_site_label
_atom_site_type_symbol
_atom_site_fract_x
_atom_site_fract_y
_atom_site_fract_z
_atom_site_U_iso_or_equiv
_atom_site_adp_type
_atom_site_occupancy
_atom_site_site_symmetry_order
_atom_site_calc_flag
_atom_site_refinement_flags_posn
_atom_site_refinement_flags_adp
_atom_site_refinement_flags_occupancy
_atom_site_disorder_assembly
_atom_site_disorder_group
Cd1 Cd 0.42854(3) 0.18121(2) 0.11506(2) 0.04078(16) Uani 1 1 d . . . . .
Cd2 Cd 0.11049(4) 0.17715(2) 0.38688(2) 0.04389(17) Uani 1 1 d . . . . .
P40A P 0.22843(12) 0.44459(11) 0.24191(4) 0.0506(4) Uani 1 1 d . . . . .
O10A O 0.4663(4) 0.3144(2) 0.11341(10) 0.0485(12) Uani 1 1 d . . . . .
O11A O 0.4033(4) 0.2583(2) 0.15222(12) 0.0559(13) Uani 1 1 d . . . . .
O12A O 0.3950(3) 0.5599(2) 0.11326(10) 0.0485(12) Uani 1 1 d . . . . .
O13A O 0.3765(3) 0.6112(2) 0.15870(10) 0.0450(11) Uani 1 1 d . . . . .
O30A O 0.0712(3) 0.3202(2) 0.38893(11) 0.0501(12) Uani 1 1 d . . . . .
O31A O 0.1663(4) 0.2622(2) 0.36141(11) 0.0565(14) Uani 1 1 d . . . . .
O32A O 0.0798(3) 0.5678(2) 0.38387(13) 0.0552(13) Uani 1 1 d . . . . .
O33A O 0.1651(4) 0.6174(2) 0.35037(12) 0.0597(15) Uani 1 1 d . . . . .
C10A C 0.3973(4) 0.4302(3) 0.20895(15) 0.0367(13) Uani 1 1 d . . . . .
C11A C 0.4109(4) 0.3725(3) 0.19117(15) 0.0384(14) Uani 1 1 d . . . . .
H11A H 0.417388 0.330982 0.201779 0.046 Uiso 1 1 calc R U . . .
C12A C 0.4149(4) 0.3746(3) 0.15857(15) 0.0385(14) Uani 1 1 d . . . . .
C13A C 0.4071(4) 0.4349(3) 0.14255(15) 0.0347(13) Uani 1 1 d . . . . .
H13A H 0.411203 0.436465 0.120043 0.042 Uiso 1 1 calc R U . . .
C14A C 0.3931(4) 0.4934(3) 0.16010(14) 0.0362(13) Uani 1 1 d . . . . .
C15A C 0.3882(4) 0.4904(3) 0.19302(14) 0.0372(13) Uani 1 1 d . . . . .
H15A H 0.378468 0.530119 0.204787 0.045 Uiso 1 1 calc R U . . .
C16A C 0.4303(5) 0.3114(3) 0.14004(16) 0.0451(16) Uani 1 1 d . . . . .
C17A C 0.3878(4) 0.5594(3) 0.14323(15) 0.0394(14) Uani 1 1 d . . . . .
C20A C 0.3278(4) 0.4338(3) 0.26381(15) 0.0365(13) Uani 1 1 d . . . . .
C21A C 0.4009(4) 0.4254(3) 0.24428(15) 0.0390(14) Uani 1 1 d . . . . .
C22A C 0.4799(5) 0.4105(4) 0.25769(17) 0.0511(17) Uani 1 1 d . . . . .
H22A H 0.527881 0.403892 0.244406 0.061 Uiso 1 1 calc R U . . .
C23A C 0.4880(5) 0.4054(5) 0.29045(18) 0.061(2) Uani 1 1 d . . . . .
H23A H 0.541653 0.395916 0.299705 0.073 Uiso 1 1 calc R U . . .
C24A C 0.4169(5) 0.4143(4) 0.30960(17) 0.0535(18) Uani 1 1 d . . . . .
H24A H 0.423079 0.410919 0.331994 0.064 Uiso 1 1 calc R U . . .
C25A C 0.3381(4) 0.4279(3) 0.29718(15) 0.0372(13) Uani 1 1 d . . . . .
C30A C 0.2664(4) 0.4340(3) 0.32046(14) 0.0383(14) Uani 1 1 d . . . . .
C31A C 0.2347(4) 0.3766(3) 0.33415(14) 0.0398(14) Uani 1 1 d . . . . .
H31A H 0.258204 0.334657 0.328407 0.048 Uiso 1 1 calc R U . . .
C32A C 0.1688(4) 0.3791(3) 0.35627(14) 0.0381(14) Uani 1 1 d . . . . .
C33A C 0.1353(4) 0.4405(3) 0.36501(14) 0.0353(13) Uani 1 1 d . . . . .
H33A H 0.089143 0.442783 0.379508 0.042 Uiso 1 1 calc R U . . .
C34A C 0.1701(4) 0.4994(3) 0.35225(14) 0.0398(14) Uani 1 1 d . . . . .
C35A C 0.2351(4) 0.4956(3) 0.32975(14) 0.0413(14) Uani 1 1 d . . . . .
H35A H 0.257813 0.535311 0.320799 0.050 Uiso 1 1 calc R U . . .
C36A C 0.1321(5) 0.3162(3) 0.36942(15) 0.0445(16) Uani 1 1 d . . . . .
C37A C 0.1370(5) 0.5661(3) 0.36253(15) 0.0434(15) Uani 1 1 d . . . . .
C40A C 0.2033(5) 0.5339(5) 0.24649(18) 0.059(2) Uani 1 1 d . . . . .
C41A C 0.2657(6) 0.5793(4) 0.2568(2) 0.067(2) Uani 1 1 d . . . . .
H41A H 0.319359 0.563662 0.263922 0.081 Uiso 1 1 calc R U . . .
C42A C 0.2479(9) 0.6481(5) 0.2565(3) 0.104(4) Uani 1 1 d . . . . .
H42A H 0.290199 0.679005 0.262998 0.124 Uiso 1 1 calc R U . . .
C43A C 0.1703(11) 0.6710(6) 0.2469(4) 0.117(5) Uani 1 1 d . . . . .
H43A H 0.157729 0.717320 0.247558 0.140 Uiso 1 1 calc R U . . .
C44A C 0.1093(9) 0.6253(7) 0.2361(3) 0.111(5) Uani 1 1 d . . . . .
H44A H 0.055779 0.640746 0.228728 0.133 Uiso 1 1 calc R U . . .
C45A C 0.1271(6) 0.5578(6) 0.2361(2) 0.085(3) Uani 1 1 d . . . . .
H45A H 0.085337 0.527340 0.228669 0.102 Uiso 1 1 calc R U . . .
C46A C 0.1495(5) 0.3989(4) 0.26552(16) 0.0555(19) Uani 1 1 d . . . . .
C47A C 0.0832(5) 0.4284(5) 0.28220(17) 0.063(2) Uani 1 1 d . . . . .
H47A H 0.078662 0.475665 0.283091 0.075 Uiso 1 1 calc R U . . .
C48A C 0.0226(6) 0.3882(6) 0.29779(19) 0.076(3) Uani 1 1 d . . . . .
H48A H -0.023109 0.408250 0.308993 0.091 Uiso 1 1 calc R U . . .
C49A C 0.0300(7) 0.3199(6) 0.2967(2) 0.080(3) Uani 1 1 d . . . . .
H49A H -0.010119 0.292575 0.307396 0.097 Uiso 1 1 calc R U . . .
C50A C 0.0958(8) 0.2912(6) 0.2800(2) 0.091(4) Uani 1 1 d . . . . .
H50A H 0.101064 0.243983 0.279202 0.110 Uiso 1 1 calc R U . . .
C51A C 0.1546(7) 0.3311(5) 0.2644(2) 0.072(3) Uani 1 1 d . . . . .
H51A H 0.199101 0.310715 0.252652 0.087 Uiso 1 1 calc R U . . .
P40B P 0.51863(18) 0.28631(15) 0.500000 0.0552(7) Uani 1 2 d S T P . .
O10B O 0.1239(3) 0.1912(2) 0.44086(10) 0.0465(11) Uani 1 1 d . . . . .
O11B O 0.2408(4) 0.1620(3) 0.41547(12) 0.0652(15) Uani 1 1 d . . . . .
O30B O 0.8081(4) 0.2862(3) 0.58480(11) 0.0600(14) Uani 1 1 d . . . . .
O31B O 0.9219(3) 0.3182(3) 0.55951(11) 0.0581(14) Uani 1 1 d . . . . .
C10B C 0.3803(8) 0.1591(6) 0.500000 0.062(3) Uani 1 2 d S T P . .
C11B C 0.3359(5) 0.1625(4) 0.4718(2) 0.0539(18) Uani 1 1 d . . . . .
H11B H 0.365684 0.158671 0.452263 0.065 Uiso 1 1 calc R U . . .
C12B C 0.2492(5) 0.1715(3) 0.47148(16) 0.0461(16) Uani 1 1 d . . . . .
C13B C 0.2051(6) 0.1780(5) 0.500000 0.043(2) Uani 1 2 d S T P . .
H13B H 0.145823 0.186620 0.499999 0.052 Uiso 1 2 calc R U P . .
C14B C 0.2019(5) 0.1753(3) 0.44062(16) 0.0476(17) Uani 1 1 d . . . . .
C20B C 0.5361(5) 0.1947(3) 0.500000 0.050(2) Uani 1 2 d GS T P A .
C21B C 0.4734(4) 0.1473(4) 0.4944(3) 0.064(5) Uani 0.5 1 d G . P A -1
C22B C 0.4958(6) 0.0833(4) 0.4849(4) 0.075(5) Uani 0.5 1 d G . P A -1
H22B H 0.452992 0.050882 0.481087 0.090 Uiso 0.5 1 calc R U P A -1
C23B C 0.5808(7) 0.0665(4) 0.4811(3) 0.099(8) Uani 0.5 1 d G . P A -1
H23B H 0.596121 0.022736 0.474685 0.118 Uiso 0.5 1 calc R U P A -1
C24B C 0.6435(5) 0.1139(5) 0.4868(4) 0.082(6) Uani 0.5 1 d G . P A -1
H24B H 0.701599 0.102481 0.484165 0.098 Uiso 0.5 1 calc R U P A -1
C25B C 0.6211(4) 0.1780(4) 0.4962(3) 0.069(4) Uani 0.5 1 d G . P A -1
C30B C 0.6940(7) 0.2254(6) 0.500000 0.055(3) Uani 1 2 d S T P . .
C31B C 0.7313(5) 0.2442(4) 0.52822(18) 0.0554(19) Uani 1 1 d . . . . .
H31B H 0.705620 0.231729 0.547752 0.066 Uiso 1 1 calc R U . . .
C32B C 0.8059(5) 0.2812(4) 0.52856(16) 0.0460(16) Uani 1 1 d . . . . .
C33B C 0.8427(6) 0.2992(5) 0.500000 0.044(2) Uani 1 2 d S T P . .
H33B H 0.893884 0.324290 0.500000 0.053 Uiso 1 2 calc R U P . .
C34B C 0.8472(5) 0.2974(4) 0.55950(16) 0.0507(17) Uani 1 1 d . . . . .
C40B C 0.4725(9) 0.2999(7) 0.5403(3) 0.081(3) Uani 0.5 1 d G . P B -1
C41B C 0.4853(10) 0.2531(6) 0.5642(4) 0.088(3) Uani 0.5 1 d G . P B -1
H41B H 0.514496 0.212720 0.559701 0.106 Uiso 0.5 1 calc R U P B -1
C42B C 0.4554(11) 0.2653(8) 0.5947(3) 0.121(4) Uani 0.5 1 d G . P B -1
H42B H 0.464096 0.233322 0.611067 0.145 Uiso 0.5 1 calc R U P B -1
C43B C 0.4126(11) 0.3244(10) 0.6014(3) 0.126(6) Uani 0.5 1 d G . P B -1
H43B H 0.392181 0.332743 0.622223 0.151 Uiso 0.5 1 calc R U P B -1
C44B C 0.3999(10) 0.3712(8) 0.5775(4) 0.121(4) Uani 0.5 1 d G . P B -1
H44B H 0.370665 0.411563 0.582013 0.145 Uiso 0.5 1 calc R U P B -1
C45B C 0.4298(10) 0.3590(7) 0.5470(3) 0.088(3) Uani 0.5 1 d G . P B -1
H45B H 0.421064 0.390962 0.530647 0.106 Uiso 0.5 1 calc R U P B -1
C46B C 0.4321(9) 0.3007(7) 0.4729(3) 0.081(3) Uani 0.5 1 d G . P B -1
C47B C 0.3494(9) 0.3195(8) 0.4802(3) 0.088(3) Uani 0.5 1 d G . P B -1
H47B H 0.332583 0.324340 0.501741 0.106 Uiso 0.5 1 calc R U P B -1
C48B C 0.2913(8) 0.3312(9) 0.4560(4) 0.121(4) Uani 0.5 1 d G . P B -1
H48B H 0.234851 0.344000 0.460939 0.145 Uiso 0.5 1 calc R U P B -1
C49B C 0.3160(10) 0.3241(10) 0.4244(3) 0.126(6) Uani 0.5 1 d G . P B -1
H49B H 0.276283 0.332048 0.407857 0.151 Uiso 0.5 1 calc R U P B -1
C50B C 0.3986(11) 0.3053(10) 0.4171(3) 0.121(4) Uani 0.5 1 d G . P B -1
H50B H 0.415448 0.300434 0.395577 0.145 Uiso 0.5 1 calc R U P B -1
C51B C 0.4567(8) 0.2936(8) 0.4414(4) 0.088(3) Uani 0.5 1 d G . P B -1
H51B H 0.513181 0.280774 0.436379 0.106 Uiso 0.5 1 calc R U P B -1
N100 N -0.0044(15) 0.1119(12) 0.4715(5) 0.125(8) Uani 0.5 1 d D U P C -1
H10A H 0.036511 0.143257 0.468275 0.150 Uiso 0.5 1 calc R U P C -1
H10B H 0.009661 0.075794 0.459471 0.150 Uiso 0.5 1 calc R U P C -1
C100 C -0.085(2) 0.1386(18) 0.4594(8) 0.185(18) Uani 0.5 1 d D U P C -1
H10C H -0.078133 0.149963 0.436850 0.277 Uiso 0.5 1 calc R U P C -1
H10D H -0.129255 0.104965 0.461755 0.277 Uiso 0.5 1 calc R U P C -1
H10E H -0.099916 0.178683 0.471376 0.277 Uiso 0.5 1 calc R U P C -1
C101 C -0.001(2) 0.0912(18) 0.5059(7) 0.23(2) Uani 0.5 1 d D U P C -1
H10F H 0.056122 0.074341 0.510897 0.350 Uiso 0.5 1 calc R U P C -1
H10G H -0.013365 0.129729 0.519463 0.350 Uiso 0.5 1 calc R U P C -1
H10H H -0.042704 0.056011 0.509842 0.350 Uiso 0.5 1 calc R U P C -1
N200 N 0.0879(7) 0.3503(5) 0.4594(2) 0.046(2) Uani 0.5 1 d D . P D -1
H20A H 0.087098 0.334303 0.439151 0.055 Uiso 0.5 1 calc R U P D -1
H20B H 0.143322 0.357735 0.464263 0.055 Uiso 0.5 1 calc R U P D -1
C200 C 0.0453(9) 0.4195(7) 0.4581(4) 0.055(3) Uani 0.5 1 d D . P D -1
H20C H 0.075162 0.447702 0.442752 0.082 Uiso 0.5 1 calc R U P D -1
H20D H -0.014122 0.414456 0.451590 0.082 Uiso 0.5 1 calc R U P D -1
H20E H 0.047638 0.440196 0.479175 0.082 Uiso 0.5 1 calc R U P D -1
C201 C 0.0612(6) 0.2973(5) 0.4790(2) 0.030(2) Uani 0.5 1 d D . P D -1
H20F H 0.098165 0.258615 0.475549 0.044 Uiso 0.5 1 calc R U P D -1
H20G H 0.064315 0.311035 0.501275 0.044 Uiso 0.5 1 calc R U P D -1
H20H H 0.002554 0.285296 0.473690 0.044 Uiso 0.5 1 calc R U P D -1
N300 N 0.736(2) 0.451(2) 0.5647(9) 0.247(18) Uani 0.5 1 d D U P E -1
H30A H 0.754710 0.492368 0.570469 0.296 Uiso 0.5 1 calc R U P E -1
H30B H 0.774939 0.420519 0.570995 0.296 Uiso 0.5 1 calc R U P E -1
C300 C 0.652(3) 0.437(3) 0.5806(10) 0.25(2) Uani 0.5 1 d D U P E -1
H30C H 0.658700 0.439052 0.603723 0.376 Uiso 0.5 1 calc R U P E -1
H30D H 0.609986 0.470506 0.573912 0.376 Uiso 0.5 1 calc R U P E -1
H30E H 0.631931 0.392561 0.574483 0.376 Uiso 0.5 1 calc R U P E -1
C301 C 0.725(3) 0.4481(11) 0.5301(8) 0.210(16) Uani 0.5 1 d D U P E -1
H30F H 0.778925 0.457244 0.519635 0.315 Uiso 0.5 1 calc R U P E -1
H30G H 0.704655 0.403580 0.524075 0.315 Uiso 0.5 1 calc R U P E -1
H30H H 0.682710 0.481524 0.523503 0.315 Uiso 0.5 1 calc R U P E -1
N400 N 0.7046(15) 0.2592(13) 0.6438(5) 0.136(8) Uani 0.5 1 d D U P . .
H40A H 0.690712 0.226204 0.629870 0.163 Uiso 0.5 1 calc R U P . .
H40B H 0.757221 0.273975 0.638311 0.163 Uiso 0.5 1 calc R U P . .
C400 C 0.7109(14) 0.2293(16) 0.6752(5) 0.134(10) Uani 0.5 1 d D U P . .
H40C H 0.753019 0.193373 0.674815 0.201 Uiso 0.5 1 calc R U P . .
H40D H 0.728279 0.263355 0.690600 0.201 Uiso 0.5 1 calc R U P . .
H40E H 0.655537 0.211108 0.681368 0.201 Uiso 0.5 1 calc R U P . .
C401 C 0.6433(18) 0.3160(16) 0.6386(9) 0.174(15) Uani 0.5 1 d D U P . .
H40F H 0.646270 0.330675 0.616428 0.262 Uiso 0.5 1 calc R U P . .
H40G H 0.585480 0.300945 0.643399 0.262 Uiso 0.5 1 calc R U P . .
H40H H 0.658222 0.353192 0.652630 0.262 Uiso 0.5 1 calc R U P . .
O500 O 0.000000 0.000000 0.4298(3) 0.119(4) Uani 1 2 d DS T P . .
H500 H 0.046(13) 0.028(13) 0.438(5) 0.178 Uiso 0.5 1 d D U P F -1
H501 H 0.012(13) 0.008(8) 0.4072(14) 0.178 Uiso 0.5 1 d D U P G -1
loop_
_atom_site_aniso_label
_atom_site_aniso_U_11
_atom_site_aniso_U_22
_atom_site_aniso_U_33
_atom_site_aniso_U_23
_atom_site_aniso_U_13
_atom_site_aniso_U_12
Cd1 0.0600(3) 0.0283(2) 0.0340(3) -0.00067(16) 0.00135(19) 0.00463(19)
Cd2 0.0713(4) 0.0285(2) 0.0319(2) -0.00425(16) 0.0025(2) -0.0079(2)
P40A 0.0504(11) 0.0613(12) 0.0401(9) 0.0051(8) 0.0043(7) 0.0011(9)
O10A 0.067(3) 0.042(3) 0.036(2) -0.0070(19) 0.003(2) 0.012(2)
O11A 0.093(4) 0.028(2) 0.046(3) -0.004(2) 0.010(3) 0.002(2)
O12A 0.073(3) 0.037(2) 0.036(3) 0.0071(18) 0.000(2) 0.006(2)
O13A 0.071(3) 0.025(2) 0.039(2) 0.0037(18) 0.006(2) 0.008(2)
O30A 0.059(3) 0.049(3) 0.042(3) 0.008(2) 0.006(2) -0.008(2)
O31A 0.091(4) 0.031(2) 0.047(3) -0.002(2) 0.017(3) -0.013(2)
O32A 0.060(3) 0.042(3) 0.064(3) -0.012(2) 0.019(3) -0.005(2)
O33A 0.098(4) 0.029(2) 0.051(3) 0.008(2) 0.021(3) 0.011(3)
C10A 0.042(3) 0.031(3) 0.037(3) 0.000(2) 0.007(3) 0.002(3)
C11A 0.051(4) 0.024(3) 0.040(3) 0.005(2) 0.005(3) 0.004(3)
C12A 0.048(4) 0.028(3) 0.040(3) 0.001(2) 0.007(3) 0.003(3)
C13A 0.035(3) 0.029(3) 0.040(3) 0.002(2) 0.003(2) -0.001(2)
C14A 0.042(3) 0.031(3) 0.035(3) 0.003(2) 0.002(3) 0.000(3)
C15A 0.045(3) 0.030(3) 0.037(3) 0.000(2) 0.004(3) 0.005(3)
C16A 0.061(4) 0.031(3) 0.042(4) -0.001(3) -0.003(3) 0.007(3)
C17A 0.046(4) 0.031(3) 0.040(3) 0.002(3) 0.001(3) 0.005(3)
C20A 0.040(3) 0.028(3) 0.042(3) 0.001(2) 0.006(3) -0.001(2)
C21A 0.046(4) 0.035(3) 0.036(3) 0.005(2) 0.008(3) 0.001(3)
C22A 0.044(4) 0.062(5) 0.047(4) 0.013(3) 0.008(3) 0.009(3)
C23A 0.038(4) 0.090(6) 0.056(4) 0.022(4) 0.000(3) 0.007(4)
C24A 0.049(4) 0.073(5) 0.039(4) 0.014(3) 0.002(3) -0.006(4)
C25A 0.039(3) 0.034(3) 0.039(3) 0.000(2) 0.003(3) -0.001(3)
C30A 0.046(4) 0.038(3) 0.031(3) 0.003(2) 0.003(3) -0.001(3)
C31A 0.056(4) 0.031(3) 0.032(3) -0.003(2) 0.000(3) 0.001(3)
C32A 0.055(4) 0.032(3) 0.028(3) 0.001(2) 0.000(3) 0.001(3)
C33A 0.040(3) 0.036(3) 0.030(3) -0.001(2) 0.003(2) 0.002(3)
C34A 0.055(4) 0.033(3) 0.032(3) -0.001(2) -0.001(3) 0.002(3)
C35A 0.057(4) 0.034(3) 0.034(3) 0.005(3) -0.001(3) -0.006(3)
C36A 0.066(5) 0.038(4) 0.029(3) 0.001(3) -0.001(3) -0.007(3)
C37A 0.057(4) 0.036(3) 0.037(3) -0.002(3) -0.003(3) 0.002(3)
C40A 0.054(4) 0.077(6) 0.048(4) 0.025(4) 0.013(3) 0.018(4)
C41A 0.084(7) 0.053(5) 0.066(5) 0.007(4) 0.019(5) 0.010(4)
C42A 0.150(11) 0.045(5) 0.116(9) 0.024(5) 0.043(8) 0.035(6)
C43A 0.140(13) 0.065(7) 0.145(13) 0.035(8) 0.048(10) 0.035(8)
C44A 0.111(10) 0.118(10) 0.103(9) 0.060(8) 0.048(8) 0.055(9)
C45A 0.064(6) 0.106(8) 0.085(7) 0.049(6) 0.023(5) 0.025(5)
C46A 0.055(4) 0.075(5) 0.036(3) 0.001(3) -0.004(3) -0.012(4)
C47A 0.048(4) 0.102(7) 0.038(4) 0.013(4) 0.000(3) -0.003(4)
C48A 0.056(5) 0.129(9) 0.042(4) 0.012(5) -0.002(4) -0.015(5)
C49A 0.094(7) 0.100(8) 0.048(5) 0.004(5) -0.010(5) -0.043(6)
C50A 0.136(10) 0.081(7) 0.057(5) -0.021(5) 0.006(6) -0.039(7)
C51A 0.099(7) 0.071(6) 0.047(4) -0.010(4) 0.009(5) -0.020(5)
P40B 0.0457(15) 0.0522(16) 0.0676(17) 0.000 0.000 -0.0137(12)
O10B 0.063(3) 0.047(3) 0.029(2) -0.0036(19) 0.001(2) -0.003(2)
O11B 0.080(4) 0.078(4) 0.038(3) -0.011(3) 0.012(3) -0.001(3)
O30B 0.063(3) 0.077(4) 0.040(3) 0.000(2) 0.007(2) -0.007(3)
O31B 0.047(3) 0.094(4) 0.033(2) -0.014(2) 0.001(2) -0.004(3)
C10B 0.057(7) 0.043(6) 0.086(9) 0.000 0.000 -0.014(5)
C11B 0.056(5) 0.041(4) 0.064(5) 0.000(3) 0.014(4) -0.010(3)
C12B 0.060(4) 0.037(4) 0.041(4) -0.003(3) 0.003(3) -0.010(3)
C13B 0.039(5) 0.046(5) 0.044(5) 0.000 0.000 -0.007(4)
C14B 0.062(5) 0.039(4) 0.042(4) -0.002(3) 0.004(3) -0.016(3)
C20B 0.043(4) 0.054(5) 0.053(6) 0.000 0.000 -0.017(4)
C21B 0.044(6) 0.055(6) 0.094(17) -0.004(8) -0.002(8) -0.012(5)
C22B 0.046(7) 0.056(7) 0.124(15) -0.008(8) 0.003(8) -0.011(6)
C23B 0.055(8) 0.061(9) 0.18(2) -0.022(11) 0.010(10) -0.004(6)
C24B 0.056(8) 0.071(8) 0.119(17) -0.011(9) 0.006(9) -0.008(6)
C25B 0.046(5) 0.067(7) 0.093(13) -0.006(11) 0.008(10) -0.019(5)
C30B 0.048(6) 0.052(6) 0.066(7) 0.000 0.000 -0.001(5)
C31B 0.045(4) 0.072(5) 0.050(4) 0.007(4) 0.008(3) -0.006(4)
C32B 0.048(4) 0.049(4) 0.041(4) 0.001(3) 0.001(3) -0.001(3)
C33B 0.040(5) 0.052(6) 0.039(5) 0.000 0.000 0.002(4)
C34B 0.054(4) 0.062(5) 0.036(3) -0.005(3) 0.004(3) 0.004(4)
C40B 0.079(8) 0.075(6) 0.087(7) 0.003(5) -0.014(6) -0.021(6)
C41B 0.089(6) 0.086(7) 0.090(5) -0.003(4) -0.014(5) -0.020(5)
C42B 0.111(8) 0.161(12) 0.092(6) -0.015(6) -0.021(5) 0.002(8)
C43B 0.112(10) 0.169(15) 0.097(8) -0.012(8) -0.021(8) 0.005(10)
C44B 0.111(8) 0.161(12) 0.092(6) -0.015(6) -0.021(5) 0.002(8)
C45B 0.089(6) 0.086(7) 0.090(5) -0.003(4) -0.014(5) -0.020(5)
C46B 0.079(8) 0.075(6) 0.087(7) 0.003(5) -0.014(6) -0.021(6)
C47B 0.089(6) 0.086(7) 0.090(5) -0.003(4) -0.014(5) -0.020(5)
C48B 0.111(8) 0.161(12) 0.092(6) -0.015(6) -0.021(5) 0.002(8)
C49B 0.112(10) 0.169(15) 0.097(8) -0.012(8) -0.021(8) 0.005(10)
C50B 0.111(8) 0.161(12) 0.092(6) -0.015(6) -0.021(5) 0.002(8)
C51B 0.089(6) 0.086(7) 0.090(5) -0.003(4) -0.014(5) -0.020(5)
N100 0.160(19) 0.126(16) 0.090(13) 0.014(12) 0.045(14) -0.046(14)
C100 0.18(3) 0.17(3) 0.21(3) 0.10(3) 0.06(3) 0.11(2)
C101 0.31(4) 0.19(3) 0.20(4) 0.05(3) -0.17(4) -0.12(3)
N200 0.048(6) 0.054(6) 0.036(5) -0.009(4) 0.000(5) -0.001(5)
C200 0.043(8) 0.066(7) 0.055(8) -0.024(6) -0.010(6) 0.012(6)
C201 0.021(5) 0.049(6) 0.019(5) -0.011(4) -0.007(4) 0.012(4)
N300 0.27(3) 0.20(3) 0.27(3) 0.02(2) 0.03(2) 0.06(2)
C300 0.22(3) 0.25(4) 0.28(4) 0.09(3) -0.07(3) -0.07(3)
C301 0.32(4) 0.029(11) 0.28(3) -0.042(17) 0.00(3) 0.042(19)
N400 0.102(14) 0.19(2) 0.116(12) 0.013(14) 0.029(12) -0.022(13)
C400 0.054(11) 0.28(3) 0.071(11) -0.007(15) 0.008(10) 0.018(16)
C401 0.089(18) 0.24(3) 0.20(3) 0.06(3) 0.02(2) -0.015(17)
O500 0.151(13) 0.127(11) 0.079(7) 0.000 0.000 -0.018(9)
loop_
_atom_type_symbol
_atom_type_description
_atom_type_scat_dispersion_real
_atom_type_scat_dispersion_imag
_atom_type_scat_source
C C 0.0181 0.0091 'International Tables Vol C Tables 4.2.6.8 and 6.1.1.4'
H H 0.0000 0.0000 'International Tables Vol C Tables 4.2.6.8 and 6.1.1.4'
O O 0.0492 0.0322 'International Tables Vol C Tables 4.2.6.8 and 6.1.1.4'
P P 0.2955 0.4335 'International Tables Vol C Tables 4.2.6.8 and 6.1.1.4'
Cd Cd 0.1185 4.6533 'International Tables Vol C Tables 4.2.6.8 and 6.1.1.4'
N N 0.0311 0.0180 'International Tables Vol C Tables 4.2.6.8 and 6.1.1.4'
loop_
_geom_angle_atom_site_label_1
_geom_angle_atom_site_label_2
_geom_angle_atom_site_label_3
_geom_angle
_geom_angle_site_symmetry_1
_geom_angle_site_symmetry_3
O11A Cd1 O30A 103.8(2) . 4
O11A Cd1 O32A 131.77(18) . 3_545
O30A Cd1 O32A 92.65(18) 4 3_545
O11A Cd1 O31B 133.48(19) . 7_565
O30A Cd1 O31B 88.29(17) 4 7_565
O32A Cd1 O31B 91.3(2) 3_545 7_565
O11A Cd1 O30B 92.4(2) . 7_565
O30A Cd1 O30B 139.45(17) 4 7_565
O32A Cd1 O30B 103.8(2) 3_545 7_565
O31B Cd1 O30B 55.11(17) 7_565 7_565
O11A Cd1 O33A 80.62(17) . 3_545
O30A Cd1 O33A 129.94(19) 4 3_545
O32A Cd1 O33A 55.18(17) 3_545 3_545
O31B Cd1 O33A 124.91(19) 7_565 3_545
O30B Cd1 O33A 88.9(2) 7_565 3_545
O11A Cd1 C37A 106.17(19) . 3_545
O30A Cd1 C37A 113.4(2) 4 3_545
O32A Cd1 C37A 28.06(19) 3_545 3_545
O31B Cd1 C37A 109.6(2) 7_565 3_545
O30B Cd1 C37A 96.7(2) 7_565 3_545
O33A Cd1 C37A 27.13(18) 3_545 3_545
O11A Cd1 C34B 114.3(2) . 7_565
O30A Cd1 C34B 114.2(2) 4 7_565
O32A Cd1 C34B 98.5(2) 3_545 7_565
O31B Cd1 C34B 27.5(2) 7_565 7_565
O30B Cd1 C34B 27.6(2) 7_565 7_565
O33A Cd1 C34B 108.3(2) 3_545 7_565
C37A Cd1 C34B 104.9(2) 3_545 7_565
O31A Cd2 O10A 109.8(2) . 4_455
O31A Cd2 O10B 110.54(18) . .
O10A Cd2 O10B 95.03(17) 4_455 .
O31A Cd2 O13A 90.19(16) . 3_545
O10A Cd2 O13A 97.21(17) 4_455 3_545
O10B Cd2 O13A 150.63(17) . 3_545
O31A Cd2 O12A 142.07(17) . 3_545
O10A Cd2 O12A 92.17(18) 4_455 3_545
O10B Cd2 O12A 97.35(16) . 3_545
O13A Cd2 O12A 55.67(15) 3_545 3_545
O31A Cd2 O11B 90.0(2) . .
O10A Cd2 O11B 149.95(17) 4_455 .
O10B Cd2 O11B 56.02(18) . .
O13A Cd2 O11B 105.35(18) 3_545 .
O12A Cd2 O11B 84.6(2) 3_545 .
O31A Cd2 C17A 116.64(18) . 3_545
O10A Cd2 C17A 94.22(18) 4_455 3_545
O10B Cd2 C17A 125.05(19) . 3_545
O13A Cd2 C17A 27.49(17) 3_545 3_545
O12A Cd2 C17A 28.22(17) 3_545 3_545
O11B Cd2 C17A 96.7(2) . 3_545
O31A Cd2 C14B 102.0(2) . .
O10A Cd2 C14B 122.8(2) 4_455 .
O10B Cd2 C14B 28.2(2) . .
O13A Cd2 C14B 129.6(2) 3_545 .
O12A Cd2 C14B 90.49(19) 3_545 .
O11B Cd2 C14B 27.8(2) . .
C17A Cd2 C14B 112.4(2) 3_545 .
C20A P40A C46A 104.3(3) . .
C20A P40A C40A 104.2(3) . .
C46A P40A C40A 106.4(4) . .
C16A O10A Cd2 117.3(5) . 4
C16A O11A Cd1 103.9(4) . .
C17A O12A Cd2 90.4(4) . 3
C17A O13A Cd2 91.7(4) . 3
C36A O30A Cd1 135.0(5) . 4_455
C36A O31A Cd2 111.5(4) . .
C37A O32A Cd1 94.6(4) . 3
C37A O33A Cd1 88.4(4) . 3
C15A C10A C11A 118.5(6) . .
C15A C10A C21A 122.8(5) . .
C11A C10A C21A 118.4(5) . .
C12A C11A C10A 121.1(6) . .
C11A C12A C13A 120.5(6) . .
C11A C12A C16A 119.8(6) . .
C13A C12A C16A 119.6(6) . .
C12A C13A C14A 119.0(6) . .
C15A C14A C13A 119.9(6) . .
C15A C14A C17A 120.3(6) . .
C13A C14A C17A 119.7(5) . .
C10A C15A C14A 120.9(6) . .
O11A C16A O10A 123.9(6) . .
O11A C16A C12A 116.5(6) . .
O10A C16A C12A 119.6(6) . .
O13A C17A O12A 122.0(6) . .
O13A C17A C14A 119.8(6) . .
O12A C17A C14A 118.2(6) . .
O13A C17A Cd2 60.8(3) . 3
O12A C17A Cd2 61.4(3) . 3
C14A C17A Cd2 176.2(5) . 3
C25A C20A C21A 118.0(6) . .
C25A C20A P40A 127.3(5) . .
C21A C20A P40A 114.5(5) . .
C22A C21A C20A 120.8(6) . .
C22A C21A C10A 116.8(6) . .
C20A C21A C10A 122.5(6) . .
C23A C22A C21A 119.9(6) . .
C22A C23A C24A 119.4(7) . .
C25A C24A C23A 122.2(7) . .
C24A C25A C20A 119.7(6) . .
C24A C25A C30A 116.6(6) . .
C20A C25A C30A 123.6(6) . .
C31A C30A C35A 119.8(6) . .
C31A C30A C25A 118.5(6) . .
C35A C30A C25A 121.6(6) . .
C30A C31A C32A 121.2(6) . .
C33A C32A C31A 119.4(6) . .
C33A C32A C36A 120.1(6) . .
C31A C32A C36A 120.4(6) . .
C32A C33A C34A 119.5(6) . .
C35A C34A C33A 120.0(6) . .
C35A C34A C37A 119.9(6) . .
C33A C34A C37A 120.1(6) . .
C30A C35A C34A 120.0(6) . .
O31A C36A O30A 123.6(6) . .
O31A C36A C32A 117.5(6) . .
O30A C36A C32A 118.8(6) . .
O33A C37A O32A 121.8(6) . .
O33A C37A C34A 120.0(6) . .
O32A C37A C34A 118.2(6) . .
O33A C37A Cd1 64.5(4) . 3
O32A C37A Cd1 57.3(3) . 3
C34A C37A Cd1 175.4(5) . 3
C45A C40A C41A 119.1(9) . .
C45A C40A P40A 119.7(9) . .
C41A C40A P40A 120.7(6) . .
C42A C41A C40A 119.4(11) . .
C43A C42A C41A 120.7(14) . .
C42A C43A C44A 119.3(11) . .
C45A C44A C43A 120.0(12) . .
C40A C45A C44A 121.4(13) . .
C51A C46A C47A 119.1(8) . .
C51A C46A P40A 116.1(7) . .
C47A C46A P40A 124.7(7) . .
C46A C47A C48A 120.0(10) . .
C49A C48A C47A 119.7(10) . .
C48A C49A C50A 119.8(9) . .
C49A C50A C51A 120.1(10) . .
C46A C51A C50A 121.3(10) . .
C46B P40B C20B 105.7(5) . .
C46B P40B C40B 105.0(8) . .
C20B P40B C40B 101.7(5) . .
C14B O10B Cd2 92.9(4) . .
C14B O11B Cd2 88.8(5) . .
C34B O30B Cd1 90.7(5) . 7_666
C34B O31B Cd1 92.5(4) . 7_666
C11B C10B C11B 118.8(11) 6_556 .
C11B C10B C21B 129.6(8) 6_556 .
C11B C10B C21B 111.5(7) . .
C12B C11B C10B 121.1(8) . .
C11B C12B C13B 119.9(7) . .
C11B C12B C14B 120.5(7) . .
C13B C12B C14B 119.6(7) . .
C12B C13B C12B 119.1(10) . 6_556
O11B C14B O10B 122.3(7) . .
O11B C14B C12B 118.6(7) . .
O10B C14B C12B 119.1(6) . .
O11B C14B Cd2 63.4(4) . .
O10B C14B Cd2 58.9(4) . .
C12B C14B Cd2 176.6(5) . .
C21B C20B C25B 120.0 . .
C21B C20B P40B 124.8(5) . .
C25B C20B P40B 112.4(5) . .
C20B C21B C22B 120.0 . .
C20B C21B C10B 124.0(7) . .
C22B C21B C10B 115.9(7) . .
C23B C22B C21B 120.0 . .
C24B C23B C22B 120.0 . .
C23B C24B C25B 120.0 . .
C24B C25B C20B 120.0 . .
C24B C25B C30B 115.0(7) . .
C20B C25B C30B 125.0(7) . .
C31B C30B C31B 119.0(10) . 6_556
C31B C30B C25B 126.4(7) . .
C31B C30B C25B 114.1(7) 6_556 .
C30B C31B C32B 121.1(7) . .
C33B C32B C31B 119.0(7) . .
C33B C32B C34B 121.2(7) . .
C31B C32B C34B 119.7(6) . .
C32B C33B C32B 120.7(10) 6_556 .
O31B C34B O30B 121.7(7) . .
O31B C34B C32B 119.0(6) . .
O30B C34B C32B 119.2(7) . .
O31B C34B Cd1 60.0(4) . 7_666
O30B C34B Cd1 61.7(4) . 7_666
C32B C34B Cd1 175.9(6) . 7_666
C41B C40B C45B 120.0 . .
C41B C40B P40B 120.2(9) . .
C45B C40B P40B 119.7(9) . .
C42B C41B C40B 120.0 . .
C43B C42B C41B 120.0 . .
C42B C43B C44B 120.0 . .
C45B C44B C43B 120.0 . .
C44B C45B C40B 120.0 . .
C47B C46B C51B 120.0 . .
C47B C46B P40B 127.8(9) . .
C51B C46B P40B 112.2(9) . .
C46B C47B C48B 120.0 . .
C49B C48B C47B 120.0 . .
C48B C49B C50B 120.0 . .
C51B C50B C49B 120.0 . .
C50B C51B C46B 120.0 . .
C100 N100 C101 118(2) . .
C201 N200 C200 124.7(11) . .
C301 N300 C300 109(3) . .
C400 N400 C401 119(2) . .
loop_
_geom_bond_atom_site_label_1
_geom_bond_atom_site_label_2
_geom_bond_distance
_geom_bond_site_symmetry_2
Cd1 O11A 2.235(5) .
Cd1 O30A 2.253(5) 4
Cd1 O32A 2.278(5) 3_545
Cd1 O31B 2.340(5) 7_565
Cd1 O30B 2.377(6) 7_565
Cd1 O33A 2.436(5) 3_545
Cd1 C37A 2.698(7) 3_545
Cd1 C34B 2.700(7) 7_565
Cd2 O31A 2.197(5) .
Cd2 O10A 2.278(6) 4_455
Cd2 O10B 2.299(4) .
Cd2 O13A 2.339(4) 3_545
Cd2 O12A 2.351(5) 3_545
Cd2 O11B 2.399(6) .
Cd2 C17A 2.679(6) 3_545
Cd2 C14B 2.682(7) .
P40A C20A 1.829(7) .
P40A C46A 1.836(8) .
P40A C40A 1.844(9) .
O10A C16A 1.258(8) .
O11A C16A 1.255(8) .
O12A C17A 1.267(8) .
O13A C17A 1.237(8) .
O30A C36A 1.266(9) .
O31A C36A 1.256(8) .
O32A C37A 1.273(8) .
O33A C37A 1.231(8) .
C10A C15A 1.387(8) .
C10A C11A 1.395(8) .
C10A C21A 1.491(9) .
C11A C12A 1.374(9) .
C12A C13A 1.388(8) .
C12A C16A 1.508(9) .
C13A C14A 1.403(8) .
C14A C15A 1.389(8) .
C14A C17A 1.505(8) .
C20A C25A 1.419(9) .
C20A C21A 1.425(9) .
C21A C22A 1.398(10) .
C22A C23A 1.389(10) .
C23A C24A 1.391(10) .
C24A C25A 1.375(10) .
C25A C30A 1.500(9) .
C30A C31A 1.380(9) .
C30A C35A 1.387(9) .
C31A C32A 1.395(9) .
C32A C33A 1.390(8) .
C32A C36A 1.493(9) .
C33A C34A 1.408(9) .
C34A C35A 1.396(9) .
C34A C37A 1.499(9) .
C40A C45A 1.366(12) .
C40A C41A 1.408(13) .
C41A C42A 1.408(13) .
C42A C43A 1.366(19) .
C43A C44A 1.40(2) .
C44A C45A 1.381(16) .
C46A C51A 1.362(12) .
C46A C47A 1.392(12) .
C47A C48A 1.411(12) .
C48A C49A 1.375(14) .
C49A C50A 1.379(16) .
C50A C51A 1.389(13) .
P40B C46B 1.801(11) .
P40B C20B 1.856(7) .
P40B C40B 1.867(12) .
O10B C14B 1.270(9) .
O11B C14B 1.252(9) .
O30B C34B 1.251(8) .
O31B C34B 1.249(9) .
C10B C11B 1.379(10) 6_556
C10B C11B 1.379(10) .
C10B C21B 1.506(13) .
C11B C12B 1.379(11) .
C12B C13B 1.393(9) .
C12B C14B 1.499(10) .
C20B C21B 1.3900 .
C20B C25B 1.3900 .
C21B C22B 1.3900 .
C22B C23B 1.3900 .
C23B C24B 1.3900 .
C24B C25B 1.3900 .
C25B C30B 1.498(12) .
C30B C31B 1.378(10) .
C30B C31B 1.378(10) 6_556
C31B C32B 1.389(10) .
C32B C33B 1.383(8) .
C32B C34B 1.492(10) .
C40B C41B 1.3900 .
C40B C45B 1.3900 .
C41B C42B 1.3900 .
C42B C43B 1.3900 .
C43B C44B 1.3900 .
C44B C45B 1.3900 .
C46B C47B 1.3900 .
C46B C51B 1.3900 .
C47B C48B 1.3900 .
C48B C49B 1.3900 .
C49B C50B 1.3900 .
C50B C51B 1.3900 .
N100 C100 1.464(18) .
N100 C101 1.510(19) .
N200 C201 1.409(13) .
N200 C200 1.541(13) .
N300 C301 1.470(19) .
N300 C300 1.510(19) .
N400 C400 1.456(17) .
N400 C401 1.508(18) .
