#------------------------------------------------------------------------------
#$Date: 2019-11-05 11:18:54 +0200 (Tue, 05 Nov 2019) $
#$Revision: 223300 $
#$URL: file:///home/coder/svn-repositories/cod/cif/7/70/15/7701559.cif $
#------------------------------------------------------------------------------
#
# This file is available in the Crystallography Open Database (COD),
# http://www.crystallography.net/
#
# All data on this site have been placed in the public domain by the
# contributors.
#
data_7701559
loop_
_publ_author_name
'Gharib, Maniya'
'Esrafili, Leili'
'Morsali, Ali'
'Retailleau, Pascal'
_publ_section_title
;
 Solvent-assisted ligand exchange (SALE) for the enhancement of epoxide
 ring-opening reaction catalysis based on three amide-functionalized
 metal-organic frameworks.
;
_journal_issue                   24
_journal_name_full
'Dalton transactions (Cambridge, England : 2003)'
_journal_page_first              8803
_journal_page_last               8814
_journal_paper_doi               10.1039/c9dt00941h
_journal_volume                  48
_journal_year                    2019
_chemical_formula_moiety         'C32 H22 Co N4 O7, 1.688(C3 H7 N O)'
_chemical_formula_sum            'C37.06 H33.82 Co N5.69 O8.69'
_chemical_formula_weight         756.87
_space_group_crystal_system      triclinic
_space_group_IT_number           2
_space_group_name_Hall           '-P 1'
_space_group_name_H-M_alt        'P -1'
_atom_sites_solution_hydrogens   difmap
_atom_sites_solution_primary     dual
_atom_sites_solution_secondary   difmap
_audit_creation_method           SHELXL-2018/3
_audit_update_record
;
2019-04-18 deposited with the CCDC.	2019-04-24 downloaded from the CCDC.
;
_cell_angle_alpha                112.459(14)
_cell_angle_beta                 99.528(13)
_cell_angle_gamma                105.874(10)
_cell_formula_units_Z            2
_cell_length_a                   9.9159(7)
_cell_length_b                   14.941(2)
_cell_length_c                   15.0690(11)
_cell_measurement_reflns_used    946
_cell_measurement_temperature    293(2)
_cell_measurement_theta_max      25.4
_cell_measurement_theta_min      3.1
_cell_volume                     1890.7(5)
_computing_cell_refinement
;
CrystalClear-SM Expert 2.1 b45 (Rigaku, 2015)
;
_computing_data_collection
;
CrystalClear-SM Expert 2.1 b45 (Rigaku, 2015)
;
_computing_data_reduction
;
CrystalClear-SM Expert 2.1 b45 (Rigaku, 2015)
;
_computing_structure_refinement  'SHELXL-2018/3 (Sheldrick, 2018)'
_computing_structure_solution    'SHELXT 2014/4 (Sheldrick, 2014)'
_diffrn_ambient_temperature      293(2)
_diffrn_detector
;
Dectris Pilatus3R 200K
;
_diffrn_measured_fraction_theta_full 0.969
_diffrn_measured_fraction_theta_max 0.969
_diffrn_measurement_device_type  'Rigaku XtaLabPro MicroMax003'
_diffrn_measurement_method       'profile data from \w-scans'
_diffrn_radiation_monochromator  'Rigaku MaxFlux double bounce layer mirrors'
_diffrn_radiation_type           MoK\a
_diffrn_radiation_wavelength     0.71075
_diffrn_reflns_av_R_equivalents  0.1316
_diffrn_reflns_av_unetI/netI     0.1126
_diffrn_reflns_Laue_measured_fraction_full 0.969
_diffrn_reflns_Laue_measured_fraction_max 0.969
_diffrn_reflns_limit_h_max       11
_diffrn_reflns_limit_h_min       -11
_diffrn_reflns_limit_k_max       17
_diffrn_reflns_limit_k_min       -17
_diffrn_reflns_limit_l_max       18
_diffrn_reflns_limit_l_min       -18
_diffrn_reflns_number            20302
_diffrn_reflns_point_group_measured_fraction_full 0.969
_diffrn_reflns_point_group_measured_fraction_max 0.969
_diffrn_reflns_theta_full        25.242
_diffrn_reflns_theta_max         25.349
_diffrn_reflns_theta_min         3.832
_diffrn_source                   'microsource Mo'
_diffrn_source_current           0.6
_diffrn_source_power             0.03
_diffrn_source_voltage           50.0
_exptl_absorpt_coefficient_mu    0.513
_exptl_absorpt_correction_T_max  1.000
_exptl_absorpt_correction_T_min  0.577
_exptl_absorpt_correction_type   multi-scan
_exptl_absorpt_process_details   'Refqab (Higashi-Rigaku)'
_exptl_crystal_colour            'pale red'
_exptl_crystal_density_diffrn    1.329
_exptl_crystal_description       prism
_exptl_crystal_F_000             785
_exptl_crystal_size_max          0.150
_exptl_crystal_size_mid          0.06
_exptl_crystal_size_min          0.04
_refine_ls_extinction_method     none
_refine_ls_goodness_of_fit_ref   1.055
_refine_ls_hydrogen_treatment    mixed
_refine_ls_matrix_type           full
_refine_ls_number_parameters     498
_refine_ls_number_reflns         6693
_refine_ls_number_restraints     34
_refine_ls_restrained_S_all      1.056
_refine_ls_R_factor_all          0.1313
_refine_ls_R_factor_gt           0.0694
_refine_ls_shift/su_max          0.001
_refine_ls_shift/su_mean         0.000
_refine_ls_structure_factor_coef Fsqd
_refine_ls_weighting_details
'w=1/[\s^2^(Fo^2^)+(0.0625P)^2^+2.0304P] where P=(Fo^2^+2Fc^2^)/3'
_refine_ls_weighting_scheme      calc
_refine_ls_wR_factor_gt          0.1468
_refine_ls_wR_factor_ref         0.1846
_reflns_Friedel_coverage         0.000
_reflns_number_gt                4030
_reflns_number_total             6710
_reflns_threshold_expression     'I > 2\s(I)'
_cod_data_source_file            c9dt00941h2.cif
_cod_data_source_block           TMU-49
_cod_depositor_comments
;
The following automatic conversions were performed:

data item '_exptl_absorpt_correction_type' value 'Multi-scan' was
changed to 'multi-scan' in accordance with the
/home/data/users/saulius/crontab/automatic-downloads/current/RSC/lib/dictionaries/cif_core.dic
dictionary named 'cif_core.dic' version 2.4.2 last updated on
2011-04-26.

Automatic conversion script
Id: cif_fix_values 6909 2019-04-08 15:41:33Z antanas 
;
_cod_original_cell_volume        1890.7(4)
_cod_database_code               7701559
_shelx_shelxl_version_number     2018/3
_shelx_space_group_comment
;
The symmetry employed for this shelxl refinement is uniquely defined
by the following loop, which should always be used as a source of
symmetry information in preference to the above space-group names.
They are only intended as comments.
;
_smtbx_masks_special_details
;
A solvent mask was calculated and 75 electrons were 
found in a volume of 360\%A^3 in 1 void. 
This is consistent with the presence of 
1[C3H7NO] per formula unit 
which account for 80.0 electrons.
;
_smtbx_masks_void_probe_radius   1.2
_smtbx_masks_void_truncation_radius 1.2
_shelx_res_file
;
TITL shelx_a.res in P-1
    shelx.res
    created by SHELXL-2018/3 at 21:12:22 on 18-Mar-2019
REM Old TITL shelx in P-1 #2
REM SHELXT solution in P-1
REM R1 0.224, Rweak 0.018, Alpha 0.078, Orientation as input
REM Formula found by SHELXT: C34 Co N5 O9
CELL 0.71075 9.9159 14.941 15.069 112.459 99.528 105.874
ZERR 2 0.0007 0.002 0.0011 0.014 0.013 0.01
LATT 1
SFAC C Co H N O
UNIT 76 2 72 12 18

L.S. 5
PLAN  -8
BOND $H
LIST 6
MORE -1
CONF
fmap 2
acta
ABIN
OMIT -1 0 2
OMIT 1 1 0
OMIT -1 2 0
OMIT 0 2 1
OMIT 1 -2 1
OMIT 0 2 0
OMIT 1 0 1
OMIT -1 -1 2
OMIT 0 0 2
OMIT 2 -3 2
OMIT -3 1 1
OMIT 0 -2 2
OMIT 0 -1 3
OMIT -2 -1 3
OMIT -2 2 0
OMIT 1 1 2
OMIT 0 3 0
REM <olex2.extras>
REM <HklSrc "%.\\shelx.hkl">
REM </olex2.extras>

WGHT    0.108500    1.093100
FVAR       0.72931
CO1   2    0.142395    1.036908    0.917061    11.00000    0.03526    0.04006 =
         0.03670    0.02417    0.01422    0.02253
O2    5   -0.249751    0.907665    0.933649    11.00000    0.04231    0.05380 =
         0.03574    0.02814    0.01735    0.02554
O1    5   -0.052650    0.924974    0.880358    11.00000    0.03546    0.04611 =
         0.05116    0.02615    0.01642    0.01964
O5    5   -0.335697    0.864798    0.109491    11.00000    0.04694    0.04580 =
         0.03512    0.01946    0.01301    0.01978
O4    5   -0.135799    0.981088    0.230442    11.00000    0.03939    0.05076 =
         0.04308    0.02615    0.01426    0.01824
N1    4    0.230568    0.914139    0.886921    11.00000    0.03702    0.04702 =
         0.04252    0.02694    0.01358    0.02336
N4    4    1.044713    0.155414    0.938958    11.00000    0.04203    0.03872 =
         0.04685    0.02390    0.01412    0.02236
O3    5   -0.514204    0.855368    0.493932    11.00000    0.04772    0.12873 =
         0.04433    0.05691    0.01618    0.02574
C1    1   -0.187940    0.908780    0.867438    11.00000    0.04018    0.03837 =
         0.03741    0.02083    0.01204    0.02395
C2    1   -0.277231    0.889934    0.767512    11.00000    0.03426    0.04759 =
         0.04132    0.02581    0.01402    0.01891
N2    4    0.509667    0.678928    0.901798    11.00000    0.05029    0.04487 =
         0.06752    0.02513    0.01561    0.03257
AFIX  43
H2    3    0.536980    0.734034    0.958121    11.00000   -1.20000
AFIX   0

O8    5    0.891195    0.348545    0.728992    11.00000    0.07360    0.12794 =
         0.09554    0.05655    0.03744    0.05282
O7    5    0.802830    0.408919    1.062783    11.00000    0.12015    0.08554 =
         0.09846    0.06523    0.07199    0.08279
C29   1    0.996109    0.301368    1.045710    11.00000    0.05376    0.04023 =
         0.06508    0.03166    0.02205    0.02619
AFIX  43
H29   3    1.010550    0.350397    1.110731    11.00000   -1.20000
AFIX   0
C30   1    1.063361    0.230120    1.030083    11.00000    0.05090    0.04560 =
         0.04325    0.02349    0.01143    0.02838
AFIX  43
H30   3    1.125496    0.233858    1.085946    11.00000   -1.20000
AFIX   0
O6    5    0.363402    0.599745    0.743699    11.00000    0.12343    0.08549 =
         0.07588    0.00142   -0.00976    0.08107
N3    4    0.801037    0.407332    0.911685    11.00000    0.05206    0.04576 =
         0.06216    0.02661    0.02255    0.03280
AFIX  43
H3    3    0.830138    0.382683    0.859965    11.00000   -1.20000
AFIX   0
C3    1   -0.407916    0.908314    0.755715    11.00000    0.05066    0.09523 =
         0.03942    0.03864    0.02416    0.04196
AFIX  43
H3A   3   -0.444629    0.927984    0.810148    11.00000   -1.20000
AFIX   0
C28   1    0.905793    0.299437    0.962940    11.00000    0.04184    0.03712 =
         0.06243    0.02753    0.01589    0.02098
C32   1    0.887875    0.223801    0.869132    11.00000    0.05955    0.05302 =
         0.05614    0.02628    0.00553    0.03773
AFIX  43
H32   3    0.829496    0.219762    0.811609    11.00000   -1.20000
AFIX   0
C10   1   -0.469210    0.823575    0.251859    11.00000    0.04396    0.05290 =
         0.03492    0.01900    0.00460    0.01245
AFIX  43
H10   3   -0.523255    0.781634    0.184283    11.00000   -1.20000
AFIX   0
C22   1    0.632867    0.606948    0.991252    11.00000    0.07272    0.05223 =
         0.06079    0.02920    0.02953    0.04562
AFIX  43
H22   3    0.620360    0.651601    1.049506    11.00000   -1.20000
AFIX   0
C4    1   -0.483703    0.897818    0.664661    11.00000    0.05089    0.09381 =
         0.05248    0.04230    0.01802    0.03936
AFIX  43
H4    3   -0.569920    0.911445    0.657940    11.00000   -1.20000
AFIX   0
C24   1    0.725426    0.474581    0.911163    11.00000    0.04085    0.04025 =
         0.06574    0.02881    0.01583    0.02676
C31   1    0.958004    0.153463    0.861267    11.00000    0.05893    0.04897 =
         0.05021    0.02129    0.00596    0.03361
AFIX  43
H31   3    0.942815    0.101948    0.797351    11.00000   -1.20000
AFIX   0
C23   1    0.704573    0.542043    0.996546    11.00000    0.06598    0.05407 =
         0.06250    0.03143    0.01953    0.03796
AFIX  43
H23   3    0.739867    0.543131    1.058250    11.00000   -1.20000
AFIX   0
C7    1   -0.229768    0.855273    0.683815    11.00000    0.04965    0.07711 =
         0.03913    0.02231    0.01942    0.03495
AFIX  43
H7    3   -0.145301    0.839426    0.689280    11.00000   -1.20000
AFIX   0
C14   1   -0.263437    0.914885    0.201416    11.00000    0.04062    0.04305 =
         0.03965    0.02591    0.01981    0.02737
C9    1   -0.526124    0.811734    0.326291    11.00000    0.03701    0.06428 =
         0.04364    0.03365    0.01127    0.01189
AFIX  43
H9    3   -0.618762    0.761752    0.308749    11.00000   -1.20000
AFIX   0
C21   1    0.578705    0.607364    0.900959    11.00000    0.04153    0.03991 =
         0.06643    0.02516    0.01399    0.02384

N5    4    1.074851    0.310625    0.673246    11.00000    0.07424    0.07807 =
         0.11601    0.01784    0.04354    0.01787
C17   1    0.347297    0.755841    0.850226    11.00000    0.04182    0.04411 =
         0.05688    0.02615    0.01305    0.02376
C25   1    0.673741    0.476091    0.820162    11.00000    0.06226    0.05351 =
         0.05666    0.01911    0.01369    0.03556
AFIX  43
H25   3    0.689382    0.433026    0.762511    11.00000   -1.20000
AFIX   0
C11   1   -0.330345    0.898770    0.278803    11.00000    0.04379    0.05035 =
         0.04188    0.02998    0.01666    0.02419
C6    1   -0.304706    0.843975    0.593549    11.00000    0.05359    0.10502 =
         0.03575    0.02720    0.02201    0.03576
AFIX  43
H6    3   -0.270994    0.820625    0.538111    11.00000   -1.20000
AFIX   0
C19   1    0.193450    0.834508    0.796220    11.00000    0.08693    0.07254 =
         0.04923    0.01665    0.00223    0.06172
AFIX  43
H19   3    0.126116    0.831336    0.743133    11.00000   -1.20000
AFIX   0
C5    1   -0.430232    0.866913    0.583754    11.00000    0.04495    0.07512 =
         0.04017    0.03491    0.01503    0.01795
C16   1    0.383337    0.835266    0.942796    11.00000    0.07727    0.06968 =
         0.05166    0.02115   -0.00377    0.04811
AFIX  43
H16   3    0.449508    0.838867    0.996740    11.00000   -1.20000
AFIX   0
C8    1   -0.447139    0.872820    0.424670    11.00000    0.04862    0.07822 =
         0.04422    0.03937    0.02121    0.02739

C33   1    1.018489    0.371166    0.730419    11.00000    0.08957    0.07229 =
         0.08306    0.02712    0.02632    0.04179
AFIX  43
H33   3    1.082727    0.438172    0.776682    11.00000   -1.20000
AFIX   0

C27   1    0.833367    0.376866    0.983890    11.00000    0.05012    0.04361 =
         0.07215    0.03336    0.02811    0.02889
C15   1    0.323410    0.911487    0.958779    11.00000    0.08070    0.06937 =
         0.04815    0.01768    0.00182    0.05015
AFIX  43
H15   3    0.350155    0.964037    1.024102    11.00000   -1.20000
AFIX   0
C26   1    0.599829    0.540402    0.814294    11.00000    0.07189    0.06136 =
         0.06558    0.02851    0.01577    0.04985
AFIX  43
H26   3    0.563939    0.539313    0.752678    11.00000   -1.20000
AFIX   0
C12   1   -0.254469    0.959552    0.379654    11.00000    0.05688    0.05772 =
         0.03830    0.02190    0.00958    0.00506
AFIX  43
H12   3   -0.161336    1.009428    0.398271    11.00000   -1.20000
AFIX   0
C20   1    0.408592    0.672597    0.827566    11.00000    0.06082    0.05415 =
         0.05791    0.01770    0.00894    0.03303
C13   1   -0.311588    0.949082    0.453791    11.00000    0.05381    0.08767 =
         0.03627    0.02566    0.01560    0.00665
AFIX  43
H13   3   -0.259979    0.992336    0.521592    11.00000   -1.20000
AFIX   0
C18   1    0.248863    0.757224    0.776884    11.00000    0.09136    0.07434 =
         0.04883    0.00382   -0.00560    0.05721
AFIX  43
H18   3    0.218336    0.703939    0.711575    11.00000   -1.20000
AFIX   0

C34   1    1.225966    0.340096    0.681839    11.00000    0.11032    0.13038 =
         0.20498    0.05512    0.08355    0.04038
AFIX 137
H34A  3    1.278519    0.408698    0.736533    11.00000   -1.50000
H34B  3    1.239719    0.340094    0.620258    11.00000   -1.50000
H34C  3    1.262570    0.291566    0.694578    11.00000   -1.50000
AFIX   0
C35   1    0.974343    0.214770    0.592441    11.00000    0.16520    0.11629 =
         0.25880   -0.08787    0.10716   -0.01598
AFIX 137
H35A  3    0.877378    0.203305    0.599379    11.00000   -1.50000
H35B  3    1.003528    0.158927    0.593587    11.00000   -1.50000
H35C  3    0.974101    0.217203    0.529671    11.00000   -1.50000
AFIX   0
HKLF 4





REM  shelx_a.res in P-1
REM wR2 = 0.1846, GooF = S = 1.055, Restrained GooF = 1.056 for all data
REM R1 = 0.0694 for 4030 Fo > 4sig(Fo) and 0.1313 for all 6693 data
REM 498 parameters refined using 34 restraints

END

WGHT      0.1084      1.1083

REM Highest difference peak  0.440,  deepest hole -0.410,  1-sigma level  0.080
Q1    1   0.1171  1.0069  0.8432  11.00000  0.05    0.44
Q2    1   0.1807  1.0706  0.9909  11.00000  0.05    0.43
Q3    1   0.6991  0.5142  0.7537  11.00000  0.05    0.36
Q4    1   0.4229  0.9830  0.9988  11.00000  0.05    0.34
Q5    1   1.1851  0.3680  1.1573  11.00000  0.05    0.34
Q6    1   1.0094  0.3435  0.6162  11.00000  0.05    0.33
Q7    1   1.1019  0.3663  1.1487  11.00000  0.05    0.33
Q8    1  -0.0821  1.0226  0.2802  11.00000  0.05    0.31
;
_shelx_res_checksum              26686
_shelx_fab_file
;
-11 -2 5 -1.5787 -0.0565
-11 -2 6 0.4750 0.0046
-11 -2 7 0.3473 0.0168
-11 -1 2 -0.6529 0.0145
-11 -1 3 1.7366 0.0165
-11 -1 4 -2.3275 -0.0587
-11 -1 5 1.2742 0.0339
-11 -1 6 0.3267 0.0140
-11 -1 7 -0.9412 -0.0285
-11 -1 8 1.0427 0.0377
-11 0 1 -0.5671 -0.0349
-11 0 2 0.9471 -0.0006
-11 0 3 -1.2865 -0.0198
-11 0 4 1.0622 0.0302
-11 0 5 -0.0697 -0.0014
-11 0 6 -0.5811 -0.0157
-11 0 7 0.5373 0.0220
-11 0 8 -0.7930 -0.0394
-11 0 9 1.3674 0.0449
-11 1 1 0.9035 0.0396
-11 1 2 0.0085 0.0009
-11 1 3 -0.1590 -0.0001
-11 1 4 -0.1156 0.0081
-11 1 5 0.1251 -0.0084
-11 1 6 -0.2683 -0.0060
-11 1 7 0.4279 0.0024
-11 1 8 0.0541 0.0186
-11 1 9 -0.8276 -0.0295
-11 2 1 0.0496 0.0007
-11 2 2 -0.9985 -0.0117
-11 2 3 -0.1120 0.0154
-11 2 4 1.1163 -0.0127
-11 2 5 -0.9613 -0.0078
-11 2 6 0.7712 0.0191
-11 2 7 -0.8503 -0.0079
-11 2 8 0.5655 -0.0091
-11 2 9 0.1534 0.0116
-11 3 1 -1.2519 -0.0116
-11 3 2 0.0516 0.0024
-11 3 3 2.1301 -0.0016
-11 3 4 -1.9752 -0.0069
-11 3 5 0.4949 0.0092
-11 3 6 -0.0063 0.0005
-11 3 7 0.3927 -0.0035
-11 3 8 -0.4407 -0.0090
-11 3 9 -0.1678 0.0287
-11 4 1 0.9684 -0.0077
-11 4 2 1.8277 0.0095
-11 4 3 -2.5524 -0.0107
-11 4 4 0.5022 0.0062
-11 4 5 1.0114 0.0108
-11 4 6 -0.7564 -0.0143
-11 4 7 0.1139 -0.0133
-11 4 8 -0.1746 0.0518
-11 4 9 0.6645 -0.0634
-11 5 1 0.4048 0.0041
-11 5 2 -1.8995 0.0018
-11 5 3 0.3224 -0.0027
-11 5 4 1.3120 0.0084
-11 5 5 -0.8755 -0.0132
-11 5 6 -0.1568 -0.0005
-11 5 7 0.2874 0.0296
-11 5 8 0.2776 -0.0378
-11 6 1 -1.4278 0.0141
-11 6 2 0.2851 -0.0198
-11 6 3 1.4842 0.0122
-11 6 4 -0.7557 0.0008
-11 6 5 -1.0889 -0.0022
-11 6 6 1.5599 -0.0037
-11 6 7 -0.7560 0.0225
-11 6 8 -0.0099 -0.0706
-11 7 1 1.2231 -0.0130
-11 7 2 1.0745 0.0114
-11 7 3 -1.2789 0.0127
-11 7 4 -0.7343 -0.0216
-11 7 5 1.8317 -0.0043
-11 7 6 -1.0669 0.0390
-11 7 7 0.1594 -0.0915
-11 8 1 0.1510 -0.0074
-11 8 2 -1.4664 0.0190
-11 8 3 0.3083 -0.0269
-11 8 4 1.1805 -0.0035
-11 8 5 -0.7600 0.0324
-11 8 6 -0.4170 -0.0410
-11 9 1 -0.9960 0.0191
-11 9 2 0.6482 -0.0090
-11 9 3 1.0042 -0.0363
-11 9 4 -1.4738 0.0686
-11 9 5 0.1941 -0.0324
-11 10 1 0.2201 0.0006
-11 10 2 0.7950 -0.0605
-11 10 3 -2.0881 0.1130
-11 11 1 0.3567 -0.0303
-10 -5 5 -2.6197 -0.0636
-10 -5 6 3.5341 0.0327
-10 -5 7 -3.4429 -0.0059
-10 -5 8 2.3511 -0.0129
-10 -5 9 -1.1292 0.0546
-10 -4 2 0.1506 0.0159
-10 -4 3 0.5001 0.0153
-10 -4 4 -2.0379 -0.0426
-10 -4 5 3.1509 0.0219
-10 -4 6 -3.3970 0.0083
-10 -4 7 2.9842 -0.0083
-10 -4 8 -1.9577 0.0253
-10 -4 9 0.9843 -0.0726
-10 -4 10 -0.7059 0.0978
-10 -3 1 0.7201 0.0120
-10 -3 2 -1.4023 0.0105
-10 -3 3 0.6026 -0.0331
-10 -3 4 0.3500 0.0225
-10 -3 5 -0.6286 0.0189
-10 -3 6 1.0549 -0.0240
-10 -3 7 -1.3642 0.0031
-10 -3 8 0.7188 -0.0150
-10 -3 9 -0.0059 0.0388
-10 -3 10 0.0964 -0.0525
-10 -3 11 -0.1900 0.0839
-10 -2 1 -1.5123 0.0117
-10 -2 2 2.0927 -0.0272
-10 -2 3 -1.8324 0.0390
-10 -2 4 2.0317 -0.0105
-10 -2 5 -1.7106 -0.0202
-10 -2 6 0.2345 0.0055
-10 -2 7 0.4155 0.0105
-10 -2 8 0.4439 -0.0072
-10 -2 9 -0.7703 0.0106
-10 -2 10 -0.0401 0.0088
-10 -2 11 0.5123 -0.0645
-10 -2 12 -0.3611 0.0892
-10 -1 1 1.0616 0.0108
-10 -1 2 -1.3385 0.0064
-10 -1 3 1.8096 -0.0203
-10 -1 4 -2.2071 0.0001
-10 -1 5 0.9412 0.0037
-10 -1 6 0.8043 0.0131
-10 -1 7 -0.5582 -0.0127
-10 -1 8 -0.5982 0.0136
-10 -1 9 0.2294 -0.0204
-10 -1 10 0.9898 -0.0034
-10 -1 11 -1.4173 0.0400
-10 -1 12 1.2279 -0.0419
-10 0 1 -0.0357 -0.0429
-10 0 2 0.1933 0.0121
-10 0 3 -0.6429 -0.0030
-10 0 4 0.3350 0.0086
-10 0 5 1.2094 0.0075
-10 0 6 -1.8932 -0.0140
-10 0 7 0.7394 -0.0010
-10 0 8 0.0838 0.0062
-10 0 9 0.5213 -0.0021
-10 0 10 -1.2191 0.0022
-10 0 11 1.4141 0.0026
-10 0 12 -1.2558 -0.0178
-10 1 1 -0.1205 0.0150
-10 1 2 0.1297 0.0026
-10 1 3 0.0127 0.0096
-10 1 4 0.2215 -0.0083
-10 1 5 -0.8709 -0.0069
-10 1 6 0.7580 0.0010
-10 1 7 -0.0404 0.0159
-10 1 8 -0.1597 -0.0171
-10 1 9 0.0226 0.0008
-10 1 10 0.2193 0.0178
-10 1 11 -0.7667 -0.0293
-10 1 12 0.7535 0.0371
-10 2 1 -0.8079 0.0286
-10 2 2 0.5469 -0.0141
-10 2 3 -1.1632 -0.0068
-10 2 4 1.7368 0.0064
-10 2 5 -1.4064 -0.0031
-10 2 6 0.8179 0.0070
-10 2 7 -0.4659 -0.0053
-10 2 8 0.5705 -0.0083
-10 2 9 -0.7835 0.0175
-10 2 10 0.0995 -0.0050
-10 2 11 0.8079 -0.0137
-10 2 12 -0.4424 0.0198
-10 3 1 1.1606 -0.0212
-10 3 2 -0.8937 0.0044
-10 3 3 2.0438 0.0043
-10 3 4 -2.2885 -0.0080
-10 3 5 1.1251 0.0073
-10 3 6 -0.0425 0.0047
-10 3 7 0.0535 -0.0231
-10 3 8 -0.8701 0.0269
-10 3 9 0.8918 0.0033
-10 3 10 0.3102 -0.0505
-10 3 11 -0.7569 0.0802
-10 4 1 0.4781 -0.0020
-10 4 2 -0.2304 -0.0002
-10 4 3 -0.3744 -0.0008
-10 4 4 -0.5559 0.0055
-10 4 5 1.5807 -0.0004
-10 4 6 -1.1727 -0.0150
-10 4 7 -0.4453 0.0213
-10 4 8 1.6877 -0.0002
-10 4 9 -1.2010 -0.0325
-10 4 10 0.1315 0.0529
-10 4 11 -0.1555 -0.0700
-10 5 1 -1.8947 -0.0003
-10 5 2 1.0360 0.0053
-10 5 3 -1.5561 -0.0047
-10 5 4 2.6222 -0.0000
-10 5 5 -2.1268 0.0029
-10 5 6 0.3023 -0.0051
-10 5 7 1.4074 0.0176
-10 5 8 -1.8579 -0.0211
-10 5 9 1.2656 -0.0107
-10 5 10 -0.8342 0.0318
-10 6 1 0.5269 -0.0012
-10 6 2 -0.1704 -0.0041
-10 6 3 1.3759 0.0078
-10 6 4 -1.5176 0.0043
-10 6 5 0.3304 -0.0181
-10 6 6 0.4248 0.0303
-10 6 7 -0.2432 -0.0321
-10 6 8 0.0580 -0.0211
-10 6 9 -0.4469 0.0997
-10 6 10 0.6917 -0.1030
-10 7 1 0.8309 0.0170
-10 7 2 0.1966 0.0046
-10 7 3 -0.8793 -0.0079
-10 7 4 -0.2385 -0.0044
-10 7 5 0.8970 0.0071
-10 7 6 0.4483 -0.0129
-10 7 7 -1.8551 -0.0070
-10 7 8 1.2718 0.0829
-10 7 9 0.0479 -0.1310
-10 8 1 0.8340 -0.0074
-10 8 2 -2.0478 -0.0126
-10 8 3 0.8414 0.0091
-10 8 4 1.6052 -0.0187
-10 8 5 -1.6130 0.0263
-10 8 6 -0.6857 -0.0105
-10 8 7 1.5140 0.0262
-10 8 8 -0.2218 -0.0735
-10 9 1 -2.5031 -0.0089
-10 9 2 2.5799 -0.0053
-10 9 3 0.2012 -0.0011
-10 9 4 -2.6913 0.0245
-10 9 5 1.6904 -0.0017
-10 9 6 0.2499 -0.0423
-10 9 7 0.1585 0.0375
-10 10 1 1.4449 -0.0317
-10 10 2 -1.1085 0.0434
-10 10 3 -1.1461 -0.0085
-10 10 4 1.5740 0.0149
-10 10 5 0.4463 -0.0854
-10 10 6 -0.8879 0.1327
-10 11 1 0.0004 0.0560
-10 11 2 0.0247 0.0011
-10 11 3 0.4620 -0.0295
-10 11 4 1.2677 -0.0382
-10 11 5 -2.7542 0.1221
-10 12 1 -0.1518 0.0630
-10 12 2 0.4173 -0.1399
-10 12 3 0.2336 0.0896
-10 13 1 0.1991 -0.2041
-9 -7 4 1.4643 -0.0385
-9 -7 5 -0.6492 0.0082
-9 -7 6 -0.2840 0.0176
-9 -7 7 0.2705 -0.0075
-9 -7 8 0.2743 -0.0001
-9 -7 9 -0.5911 -0.0264
-9 -7 10 0.5752 0.0500
-9 -6 2 0.3753 0.0743
-9 -6 3 1.3381 -0.0464
-9 -6 4 -1.7325 0.0180
-9 -6 5 0.9755 0.0176
-9 -6 6 -0.3746 -0.0204
-9 -6 7 0.2383 0.0039
-9 -6 8 -0.0717 -0.0244
-9 -6 9 -0.2808 0.0614
-9 -6 10 0.4382 -0.0474
-9 -6 11 -0.2857 -0.0257
-9 -6 12 0.2367 0.1047
-9 -5 1 1.7347 0.0751
-9 -5 2 -0.5385 -0.0334
-9 -5 3 -0.2945 0.0171
-9 -5 4 0.1790 0.0028
-9 -5 5 0.1177 -0.0099
-9 -5 6 -0.1029 -0.0156
-9 -5 7 -0.1064 0.0189
-9 -5 8 0.2019 0.0252
-9 -5 9 -0.0978 -0.0509
-9 -5 10 0.0347 0.0145
-9 -5 11 0.1332 0.0545
-9 -5 12 -0.7389 -0.1010
-9 -5 13 1.0604 0.0778
-9 -4 1 -0.7699 -0.0065
-9 -4 2 0.7891 -0.0042
-9 -4 3 -1.2298 0.0027
-9 -4 4 1.5020 -0.0091
-9 -4 5 -1.4469 -0.0089
-9 -4 6 0.9296 0.0397
-9 -4 7 0.1637 -0.0276
-9 -4 8 -1.0791 -0.0091
-9 -4 9 1.1300 0.0207
-9 -4 10 -0.5639 -0.0126
-9 -4 11 -0.5050 -0.0028
-9 -4 12 1.8822 0.0187
-9 -4 13 -2.2964 -0.0160
-9 -3 1 -0.6746 -0.0229
-9 -3 2 -0.1834 0.0128
-9 -3 3 0.7908 -0.0121
-9 -3 4 -1.3050 0.0170
-9 -3 5 1.9468 0.0044
-9 -3 6 -1.5528 -0.0219
-9 -3 7 0.0067 0.0131
-9 -3 8 0.8618 -0.0072
-9 -3 9 -0.3952 -0.0033
-9 -3 10 -0.4274 0.0322
-9 -3 11 1.3965 -0.0384
-9 -3 12 -2.4021 0.0056
-9 -3 13 2.3259 0.0381
-9 -2 1 1.4127 0.0138
-9 -2 2 -1.0407 -0.0015
-9 -2 3 0.7089 0.0099
-9 -2 4 0.8109 -0.0145
-9 -2 5 -2.4381 0.0035
-9 -2 6 1.9795 -0.0032
-9 -2 7 -0.5009 -0.0022
-9 -2 8 0.3475 0.0186
-9 -2 9 -0.9106 -0.0058
-9 -2 10 0.8856 -0.0205
-9 -2 11 -0.9971 0.0084
-9 -2 12 1.4735 0.0323
-9 -2 13 -1.2823 -0.0615
-9 -2 14 0.6120 0.0546
-9 -1 1 -0.4110 0.0075
-9 -1 2 0.9886 -0.0122
-9 -1 3 -0.6675 0.0023
-9 -1 4 -1.2623 -0.0037
-9 -1 5 2.2547 -0.0001
-9 -1 6 -1.0338 0.0118
-9 -1 7 0.1043 0.0002
-9 -1 8 -0.6109 -0.0168
-9 -1 9 0.6473 0.0088
-9 -1 10 -0.0369 -0.0032
-9 -1 11 0.3280 0.0164
-9 -1 12 -1.0287 -0.0205
-9 -1 13 1.0439 -0.0110
-9 -1 14 -0.8727 0.0660
-9 0 1 -1.1152 -0.0127
-9 0 2 -0.0967 0.0059
-9 0 3 0.0341 -0.0047
-9 0 4 0.9190 0.0107
-9 0 5 -0.5700 0.0026
-9 0 6 -0.4763 -0.0148
-9 0 7 0.1253 0.0057
-9 0 8 0.5723 0.0014
-9 0 9 -0.1181 0.0020
-9 0 10 -0.0216 -0.0016
-9 0 11 -0.8791 0.0009
-9 0 12 1.3371 -0.0235
-9 0 13 -1.1576 0.0756
-9 1 1 1.0905 -0.0036
-9 1 2 0.1362 0.0106
-9 1 3 -0.3422 -0.0012
-9 1 4 0.1167 -0.0024
-9 1 5 -0.3914 -0.0089
-9 1 6 0.0492 0.0129
-9 1 7 0.9886 -0.0071
-9 1 8 -0.9221 0.0047
-9 1 9 0.2539 -0.0059
-9 1 10 -0.5516 0.0012
-9 1 11 0.8225 0.0043
-9 1 12 -0.3380 0.0129
-9 1 13 0.2865 -0.0366
-9 2 1 -0.2418 0.0125
-9 2 2 -0.5036 -0.0052
-9 2 3 0.4737 -0.0046
-9 2 4 -0.1454 0.0030
-9 2 5 -0.2061 0.0019
-9 2 6 1.0239 -0.0008
-9 2 7 -1.2390 -0.0050
-9 2 8 0.5037 0.0088
-9 2 9 -0.3941 -0.0105
-9 2 10 0.5102 0.0164
-9 2 11 0.4790 -0.0140
-9 2 12 -1.1233 -0.0003
-9 2 13 0.3450 -0.0052
-9 3 1 0.0159 0.0012
-9 3 2 0.2548 -0.0128
-9 3 3 0.0663 0.0131
-9 3 4 -0.2608 -0.0088
-9 3 5 0.4517 0.0038
-9 3 6 -0.6039 -0.0031
-9 3 7 0.1750 0.0092
-9 3 8 -0.2991 -0.0135
-9 3 9 1.1624 0.0104
-9 3 10 -0.6535 0.0060
-9 3 11 -0.7889 -0.0295
-9 3 12 0.7205 0.0263
-9 3 13 0.2475 -0.0053
-9 4 1 0.0139 -0.0100
-9 4 2 0.2001 0.0063
-9 4 3 -0.5580 -0.0021
-9 4 4 0.5232 -0.0016
-9 4 5 -0.5852 0.0078
-9 4 6 0.3612 -0.0082
-9 4 7 -0.2312 0.0027
-9 4 8 1.2443 0.0002
-9 4 9 -1.8425 0.0136
-9 4 10 0.7413 -0.0396
-9 4 11 0.0035 0.0300
-9 4 12 0.5373 0.0192
-9 5 1 -0.0848 -0.0036
-9 5 2 -0.4762 0.0120
-9 5 3 0.6947 -0.0110
-9 5 4 -0.9919 0.0105
-9 5 5 1.3638 -0.0092
-9 5 6 -0.9430 0.0070
-9 5 7 0.5482 -0.0024
-9 5 8 -0.6087 0.0015
-9 5 9 0.0629 -0.0138
-9 5 10 0.4864 -0.0026
-9 5 11 0.0635 0.0797
-9 5 12 -0.6269 -0.1283
-9 6 1 0.0428 0.0036
-9 6 2 0.0339 -0.0008
-9 6 3 -0.0098 0.0015
-9 6 4 0.8460 0.0025
-9 6 5 -1.3743 -0.0075
-9 6 6 0.4939 0.0063
-9 6 7 0.9931 -0.0082
-9 6 8 -2.2524 0.0035
-9 6 9 2.6112 -0.0062
-9 6 10 -1.7152 0.0673
-9 6 11 0.5773 -0.1417
-9 7 1 -0.0454 0.0215
-9 7 2 0.7869 -0.0152
-9 7 3 -0.8516 0.0039
-9 7 4 -0.3115 -0.0064
-9 7 5 0.8495 0.0033
-9 7 6 0.4671 0.0002
-9 7 7 -2.5970 0.0013
-9 7 8 3.4327 0.0056
-9 7 9 -2.4690 0.0095
-9 7 10 1.4355 -0.0550
-9 8 1 -0.5989 -0.0178
-9 8 2 -0.3740 -0.0029
-9 8 3 0.2952 0.0069
-9 8 4 1.0188 -0.0071
-9 8 5 -1.2910 0.0160
-9 8 6 -0.6480 -0.0124
-9 8 7 2.2931 0.0041
-9 8 8 -1.4146 0.0030
-9 8 9 0.2260 -0.0182
-9 8 10 -0.8240 0.0121
-9 9 1 1.4904 -0.0099
-9 9 2 -0.4324 0.0068
-9 9 3 0.8581 0.0064
-9 9 4 -2.2914 0.0016
-9 9 5 1.4925 -0.0140
-9 9 6 1.0718 0.0114
-9 9 7 -1.1261 0.0058
-9 9 8 -0.9768 -0.0337
-9 9 9 0.9155 0.0400
-9 10 1 -0.2283 0.0021
-9 10 2 -0.6946 0.0228
-9 10 3 -0.9760 -0.0251
-9 10 4 2.2998 0.0045
-9 10 5 -0.0626 0.0208
-9 10 6 -1.9644 -0.0336
-9 10 7 0.1844 0.0100
-9 10 8 1.6397 0.0260
-9 11 1 -2.9675 0.0100
-9 11 2 2.3916 -0.0115
-9 11 3 0.8187 -0.0003
-9 11 4 -1.1852 0.0182
-9 11 5 -1.5687 -0.0537
-9 11 6 1.8889 0.0700
-9 12 1 4.5454 0.0057
-9 12 2 -1.9030 -0.0177
-9 12 3 -1.0239 0.0107
-9 12 4 -0.0508 -0.0197
-9 12 5 1.8197 0.0503
-9 13 1 -2.9716 0.0260
-9 13 2 0.1151 -0.0300
-9 13 3 0.6744 0.0375
-9 13 4 0.7701 -0.0137
-9 14 1 0.4627 -0.0957
-8 -9 5 -0.6950 -0.0445
-8 -9 6 0.1405 0.0186
-8 -9 7 0.4453 0.0033
-8 -9 8 -0.3549 -0.0018
-8 -9 9 -0.1016 0.0017
-8 -9 10 0.7388 -0.0307
-8 -9 11 -1.3625 0.0801
-8 -8 2 1.5347 0.0657
-8 -8 3 -1.3072 -0.0122
-8 -8 4 0.0075 -0.0164
-8 -8 5 0.4591 0.0107
-8 -8 6 0.0480 -0.0030
-8 -8 7 -0.2993 0.0089
-8 -8 8 0.1261 -0.0126
-8 -8 9 0.1753 -0.0004
-8 -8 10 -0.6317 0.0353
-8 -8 11 0.7496 -0.0736
-8 -8 12 -0.0040 0.0806
-8 -7 1 0.8498 0.0917
-8 -7 2 -1.8836 -0.0478
-8 -7 3 0.9215 0.0111
-8 -7 4 0.2954 -0.0073
-8 -7 5 -0.1688 0.0059
-8 -7 6 -0.3863 0.0109
-8 -7 7 0.5362 -0.0191
-8 -7 8 -0.5604 0.0118
-8 -7 9 0.4380 -0.0020
-8 -7 10 -0.2476 -0.0123
-8 -7 11 0.5968 0.0299
-8 -7 12 -1.4029 -0.0537
-8 -7 13 1.8216 0.0990
-8 -6 1 -0.7804 -0.0238
-8 -6 2 0.8527 0.0004
-8 -6 3 -0.0459 -0.0006
-8 -6 4 0.2832 0.0104
-8 -6 5 -1.3553 0.0031
-8 -6 6 1.8642 -0.0161
-8 -6 7 -1.6889 0.0020
-8 -6 8 1.1212 0.0121
-8 -6 9 -0.2583 -0.0063
-8 -6 10 -0.2586 -0.0044
-8 -6 11 0.0474 -0.0007
-8 -6 12 0.4580 0.0447
-8 -6 13 -0.8553 -0.1047
-8 -6 14 0.7620 0.0951
-8 -5 1 0.5765 -0.0188
-8 -5 2 -0.4604 0.0199
-8 -5 3 0.8387 -0.0015
-8 -5 4 -2.0338 -0.0040
-8 -5 5 2.8218 -0.0109
-8 -5 6 -2.6279 0.0061
-8 -5 7 1.7135 0.0174
-8 -5 8 -0.2322 -0.0223
-8 -5 9 -1.1486 0.0053
-8 -5 10 1.6509 0.0163
-8 -5 11 -1.4977 -0.0178
-8 -5 12 0.9885 -0.0158
-8 -5 13 -0.2031 0.0260
-8 -5 14 -0.1199 0.0438
-8 -4 1 -0.6639 0.0091
-8 -4 2 0.9646 -0.0114
-8 -4 3 -1.4630 -0.0030
-8 -4 4 1.7024 0.0016
-8 -4 5 -1.5946 0.0084
-8 -4 6 1.4215 -0.0017
-8 -4 7 -0.8182 -0.0049
-8 -4 8 -0.2582 -0.0013
-8 -4 9 0.8901 0.0117
-8 -4 10 -0.9375 -0.0243
-8 -4 11 1.0005 0.0211
-8 -4 12 -0.8756 -0.0079
-8 -4 13 0.5647 0.0424
-8 -4 14 -0.6723 -0.1029
-8 -4 15 0.6470 0.0869
-8 -3 1 0.3998 0.0010
-8 -3 2 -0.5133 0.0041
-8 -3 3 -0.0442 0.0091
-8 -3 4 0.6168 -0.0067
-8 -3 5 -0.0647 -0.0007
-8 -3 6 -1.1051 0.0058
-8 -3 7 1.4276 -0.0156
-8 -3 8 -1.0905 0.0159
-8 -3 9 0.9905 -0.0082
-8 -3 10 -0.6693 0.0025
-8 -3 11 -0.1572 0.0121
-8 -3 12 0.7746 -0.0120
-8 -3 13 -1.2062 -0.0229
-8 -3 14 1.6014 0.0297
-8 -3 15 -1.2388 0.0160
-8 -2 1 -0.2561 0.0100
-8 -2 2 -0.0960 0.0002
-8 -2 3 1.0922 -0.0125
-8 -2 4 -1.0198 0.0090
-8 -2 5 -0.7131 -0.0056
-8 -2 6 2.1459 -0.0019
-8 -2 7 -1.9846 0.0063
-8 -2 8 1.4223 0.0059
-8 -2 9 -1.1082 -0.0169
-8 -2 10 0.2665 0.0221
-8 -2 11 0.7880 -0.0275
-8 -2 12 -1.2486 0.0183
-8 -2 13 1.4503 -0.0127
-8 -2 14 -1.5025 0.0304
-8 -2 15 1.0675 -0.0234
-8 -1 1 1.1934 -0.0130
-8 -1 2 -0.5600 -0.0041
-8 -1 3 -0.2777 0.0030
-8 -1 4 -0.2435 -0.0011
-8 -1 5 1.5296 0.0058
-8 -1 6 -1.5184 -0.0052
-8 -1 7 0.5132 0.0105
-8 -1 8 -0.2089 -0.0184
-8 -1 9 0.1328 0.0115
-8 -1 10 0.6158 0.0037
-8 -1 11 -1.1041 -0.0156
-8 -1 12 0.8737 0.0098
-8 -1 13 -0.6836 0.0165
-8 -1 14 0.6474 -0.0132
-8 -1 15 -0.5442 -0.0347
-8 0 1 -1.9498 -0.0014
-8 0 2 1.0558 -0.0001
-8 0 3 -0.1978 0.0096
-8 0 4 0.4242 -0.0047
-8 0 5 -0.6322 0.0011
-8 0 6 -0.1457 -0.0036
-8 0 7 0.3924 0.0007
-8 0 8 0.4088 -0.0012
-8 0 9 -0.4834 0.0144
-8 0 10 -0.2776 -0.0321
-8 0 11 0.4737 0.0311
-8 0 12 -0.3130 0.0001
-8 0 13 0.4758 -0.0139
-8 0 14 -0.6419 -0.0261
-8 0 15 0.5587 0.0526
-8 1 1 1.3244 0.0060
-8 1 2 -0.3839 0.0059
-8 1 3 -0.2242 -0.0046
-8 1 4 -0.0563 -0.0001
-8 1 5 -0.0526 -0.0075
-8 1 6 0.3419 0.0151
-8 1 7 0.5408 -0.0115
-8 1 8 -1.3468 0.0032
-8 1 9 0.6739 -0.0010
-8 1 10 0.1233 0.0005
-8 1 11 -0.2631 0.0151
-8 1 12 0.6489 -0.0223
-8 1 13 -1.2014 -0.0172
-8 1 14 1.2884 0.0613
-8 2 1 -0.0226 0.0047
-8 2 2 -0.5211 -0.0011
-8 2 3 0.2858 -0.0072
-8 2 4 0.2616 0.0053
-8 2 5 -0.0371 0.0015
-8 2 6 0.2175 -0.0029
-8 2 7 -0.9788 -0.0046
-8 2 8 0.5776 0.0148
-8 2 9 0.3695 -0.0185
-8 2 10 -0.3031 0.0218
-8 2 11 0.1564 -0.0206
-8 2 12 -0.7074 -0.0074
-8 2 13 1.1604 0.0421
-8 2 14 -1.2706 -0.0429
-8 3 1 -1.1338 -0.0040
-8 3 2 0.8403 -0.0024
-8 3 3 0.1031 -0.0003
-8 3 4 -0.2606 -0.0025
-8 3 5 -0.0710 0.0107
-8 3 6 -0.3973 -0.0133
-8 3 7 0.3279 0.0083
-8 3 8 0.7692 0.0024
-8 3 9 -0.8069 -0.0117
-8 3 10 -0.1484 0.0142
-8 3 11 0.3914 -0.0128
-8 3 12 -0.1999 -0.0061
-8 3 13 -0.0121 0.0473
-8 3 14 0.6155 -0.0633
-8 4 1 1.4168 -0.0054
-8 4 2 -0.3797 -0.0102
-8 4 3 -0.0813 0.0168
-8 4 4 -0.5368 -0.0015
-8 4 5 0.2781 -0.0117
-8 4 6 0.4879 0.0076
-8 4 7 0.2203 0.0081
-8 4 8 -1.0221 -0.0230
-8 4 9 0.3904 0.0313
-8 4 10 0.2563 -0.0296
-8 4 11 -0.4776 -0.0098
-8 4 12 0.9940 0.0940
-8 4 13 -0.9034 -0.1499
-8 5 1 -0.5847 0.0034
-8 5 2 -0.0374 0.0147
-8 5 3 -0.8751 -0.0113
-8 5 4 1.3594 0.0005
-8 5 5 -0.0367 0.0027
-8 5 6 -0.5478 -0.0015
-8 5 7 -0.3856 0.0054
-8 5 8 0.7065 -0.0097
-8 5 9 -0.4545 -0.0040
-8 5 10 0.4981 0.0131
-8 5 11 0.0582 0.0257
-8 5 12 -0.9876 -0.0753
-8 6 1 -0.3173 -0.0046
-8 6 2 -0.2278 0.0044
-8 6 3 1.4015 -0.0021
-8 6 4 -0.6299 -0.0058
-8 6 5 -0.8432 0.0072
-8 6 6 0.5388 0.0066
-8 6 7 0.3915 -0.0315
-8 6 8 -0.5918 0.0337
-8 6 9 0.7010 0.0005
-8 6 10 -0.6248 -0.0275
-8 6 11 0.0028 0.0359
-8 6 12 0.4026 -0.0586
-8 7 1 0.7629 0.0109
-8 7 2 -0.0444 -0.0079
-8 7 3 0.0891 -0.0068
-8 7 4 -1.3047 0.0152
-8 7 5 1.3918 -0.0127
-8 7 6 -0.0347 -0.0009
-8 7 7 -0.9694 0.0124
-8 7 9 -0.2073 -0.0125
-8 7 10 -0.3645 0.0237
-8 7 11 0.1416 -0.0566
-8 8 1 -1.0469 0.0001
-8 8 2 1.1021 -0.0094
-8 8 3 -1.5897 0.0094
-8 8 4 1.6179 -0.0031
-8 8 5 -0.3069 0.0032
-8 8 6 -1.6717 -0.0106
-8 8 9 -0.6601 -0.0272
-8 8 10 1.1137 0.0319
-8 9 1 1.2247 -0.0065
-8 9 2 -1.2939 0.0020
-8 9 3 0.8768 0.0111
-8 9 4 -0.2416 -0.0193
-8 9 5 -1.2533 0.0154
-8 9 8 1.5960 -0.0301
-8 9 9 0.9603 0.0550
-8 10 1 -1.6647 -0.0089
-8 10 2 0.6541 0.0071
-8 10 3 -0.1152 -0.0032
-8 10 4 0.3528 0.0153
-8 10 5 1.3131 -0.0203
-8 10 8 -0.9985 0.0422
-8 10 9 -0.4995 -0.0043
-8 11 1 1.8876 0.0040
-8 11 2 -0.4558 0.0265
-8 11 3 1.4050 -0.0283
-8 11 4 -2.1088 -0.0031
-8 11 5 -0.4079 0.0068
-8 11 6 2.7790 -0.0053
-8 11 7 -1.8995 0.0294
-8 12 1 -0.7072 0.0268
-8 12 2 0.8671 -0.0440
-8 12 3 -3.0123 0.0061
-8 12 4 2.6988 0.0148
-8 12 5 -0.1454 0.0142
-8 12 6 -0.7284 -0.0152
-8 13 1 -0.4604 -0.0264
-8 13 2 -1.6049 -0.0138
-8 13 3 2.8501 0.0627
-8 13 4 -1.4431 -0.0302
-8 13 5 0.2567 -0.0282
-8 14 1 -0.2300 -0.0255
-8 14 2 1.8508 0.0888
-8 14 3 -1.1533 -0.0946
-8 15 1 1.1297 0.0776
-7 -11 7 0.6085 -0.0459
-7 -11 8 -0.8753 0.0102
-7 -11 9 0.3736 -0.0051
-7 -11 10 0.4925 0.0268
-7 -10 3 0.7228 0.0443
-7 -10 4 -0.6759 -0.0342
-7 -10 5 0.2297 0.0401
-7 -10 6 0.4429 -0.0422
-7 -10 7 -1.1020 0.0170
-7 -10 8 0.9160 0.0008
-7 -10 9 0.1745 0.0131
-7 -10 10 -1.0693 -0.0175
-7 -10 11 1.1416 -0.0262
-7 -10 12 -0.8565 0.0828
-7 -9 1 -0.1247 -0.0191
-7 -9 2 0.7864 0.0143
-7 -9 3 -0.7945 -0.0011
-7 -9 4 0.5947 0.0019
-7 -9 5 -0.3183 -0.0141
-7 -9 6 -0.3508 0.0094
-7 -9 7 0.6195 0.0078
-7 -9 8 0.1790 -0.0094
-7 -9 9 -1.0685 -0.0030
-7 -9 10 1.0715 -0.0024
-7 -9 11 -0.5011 0.0375
-7 -9 12 -0.0445 -0.0595
-7 -9 13 0.4094 0.0165
-7 -9 14 -0.7019 0.0647
-7 -8 1 0.3515 0.0005
-7 -8 2 -0.7489 0.0193
-7 -8 3 1.1572 -0.0169
-7 -8 4 -1.9170 0.0018
-7 -8 5 1.8223 0.0054
-7 -8 6 -0.9844 0.0016
-7 -8 7 0.9053 -0.0127
-7 -8 8 -1.3544 0.0141
-7 -8 9 1.0591 -0.0001
-7 -8 10 -0.1665 -0.0112
-7 -8 11 -0.6787 0.0042
-7 -8 12 1.3654 -0.0076
-7 -8 13 -1.6337 0.0414
-7 -8 14 1.4568 -0.0625
-7 -8 15 -1.1288 0.0414
-7 -7 1 0.0656 0.0151
-7 -7 2 0.4326 -0.0118
-7 -7 3 -2.0575 -0.0042
-7 -7 4 3.1708 0.0084
-7 -7 5 -2.3245 -0.0050
-7 -7 6 1.1909 -0.0003
-7 -7 7 -1.0803 0.0110
-7 -7 8 0.9021 -0.0111
-7 -7 9 -0.2324 -0.0108
-7 -7 10 -0.3243 0.0259
-7 -7 11 1.0372 -0.0206
-7 -7 12 -1.7391 0.0216
-7 -7 13 1.5255 -0.0222
-7 -7 14 -0.8760 -0.0032
-7 -7 15 0.5530 0.0189
-7 -6 1 -0.9549 -0.0101
-7 -6 2 0.1792 -0.0090
-7 -6 3 1.4683 0.0120
-7 -6 4 -1.4652 -0.0021
-7 -6 5 0.1366 0.0012
-7 -6 6 0.2619 -0.0000
-7 -6 7 0.1069 -0.0085
-7 -6 8 -0.1854 0.0039
-7 -6 9 0.3522 0.0075
-7 -6 10 -0.2168 0.0005
-7 -6 11 -0.9336 -0.0086
-7 -6 12 1.6398 0.0010
-7 -6 13 -0.9308 -0.0108
-7 -6 14 0.1828 0.0222
-7 -6 15 0.0815 0.0248
-7 -5 1 1.5254 -0.0001
-7 -5 2 -0.8037 0.0106
-7 -5 3 0.2605 -0.0031
-7 -5 4 -0.9545 -0.0028
-7 -5 5 1.2577 -0.0010
-7 -5 6 -0.4955 -0.0011
-7 -5 7 -0.0706 0.0044
-7 -5 8 0.4440 -0.0005
-7 -5 9 -0.8682 0.0100
-7 -5 10 0.0404 -0.0247
-7 -5 11 1.6063 0.0109
-7 -5 12 -1.8027 0.0011
-7 -5 13 0.7492 0.0160
-7 -5 14 -0.0127 0.0052
-7 -5 15 -0.4913 -0.0820
-7 -5 16 0.7376 0.1075
-7 -4 1 -0.7117 0.0032
-7 -4 2 0.2523 -0.0070
-7 -4 3 -0.4303 0.0029
-7 -4 4 0.6344 0.0003
-7 -4 5 0.0336 -0.0011
-7 -4 6 -0.5683 0.0024
-7 -4 7 0.4186 0.0031
-7 -4 8 -0.5682 -0.0031
-7 -4 9 0.5129 -0.0108
-7 -4 10 0.7401 0.0037
-7 -4 11 -1.6743 0.0197
-7 -4 12 1.0885 -0.0016
-7 -4 13 -0.1951 -0.0263
-7 -4 14 -0.3778 -0.0095
-7 -4 15 0.8655 0.0510
-7 -4 16 -0.7046 -0.0205
-7 -3 1 -0.4996 -0.0007
-7 -3 2 0.6432 0.0073
-7 -3 3 -0.4684 -0.0012
-7 -3 4 0.8135 -0.0056
-7 -3 5 -1.2917 0.0050
-7 -3 6 0.8885 0.0027
-7 -3 7 -0.3604 -0.0113
-7 -3 8 0.5377 0.0044
-7 -3 9 -0.4048 0.0004
-7 -3 10 -0.2333 0.0205
-7 -3 11 0.2138 -0.0224
-7 -3 12 0.2612 -0.0149
-7 -3 13 -0.5066 0.0238
-7 -3 14 0.8275 0.0003
-7 -3 15 -0.9367 0.0114
-7 -3 16 0.3657 -0.0357
-7 -2 1 0.3555 0.0017
-7 -2 2 -0.4102 -0.0030
-7 -2 3 0.5739 -0.0082
-7 -2 4 -1.1303 0.0085
-7 -2 5 1.2079 0.0000
-7 -2 6 -0.5540 -0.0087
-7 -2 7 0.3424 0.0073
-7 -2 8 -0.6972 0.0054
-7 -2 9 0.6675 -0.0025
-7 -2 10 -0.3946 -0.0113
-7 -2 11 0.2588 0.0031
-7 -2 12 -0.0840 0.0041
-7 -2 13 0.2488 0.0085
-7 -2 14 -0.7700 0.0020
-7 -2 15 0.7005 -0.0247
-7 -2 16 -0.0537 0.0038
-7 -1 1 0.2704 -0.0048
-7 -1 2 -0.1715 -0.0037
-7 -1 3 -0.1935 0.0070
-7 -1 4 0.7398 0.0004
-7 -1 5 -0.5285 -0.0038
-7 -1 6 -0.1182 0.0029
-7 -1 7 0.0847 0.0039
-7 -1 8 0.2503 -0.0108
-7 -1 9 -0.0544 0.0080
-7 -1 10 -0.5420 -0.0070
-7 -1 11 1.1764 0.0033
-7 -1 12 -1.2555 0.0135
-7 -1 13 0.3477 -0.0120
-7 -1 14 0.5934 -0.0059
-7 -1 15 -0.5634 -0.0143
-7 -1 16 -0.0003 0.0497
-7 0 1 -0.3654 0.0024
-7 0 2 0.4416 0.0014
-7 0 3 -0.0151 0.0058
-7 0 4 -0.3249 -0.0054
-7 0 5 -0.3350 -0.0023
-7 0 6 0.9064 0.0041
-7 0 7 -0.4965 -0.0017
-7 0 8 0.1366 0.0005
-7 0 9 -0.5858 -0.0064
-7 0 10 1.4495 0.0128
-7 0 11 -2.0248 -0.0051
-7 0 12 1.5855 0.0015
-7 0 13 -0.3568 -0.0102
-7 0 14 -0.4791 -0.0125
-7 0 15 0.5520 0.0611
-7 1 1 0.4605 -0.0006
-7 1 2 -0.3196 0.0064
-7 1 3 -0.4108 -0.0097
-7 1 4 0.3166 0.0006
-7 1 5 0.6125 0.0058
-7 1 6 -0.5686 -0.0014
-7 1 7 -0.2344 -0.0066
-7 1 8 0.2830 0.0069
-7 1 9 0.4042 0.0007
-7 1 10 -1.0765 -0.0014
-7 1 11 1.2766 -0.0009
-7 1 12 -0.8370 -0.0084
-7 1 13 0.2645 0.0060
-7 1 14 0.1106 0.0225
-7 1 15 -0.5465 -0.0349
-7 2 1 -0.1114 -0.0005
-7 2 2 -0.6632 -0.0013
-7 2 3 1.1682 0.0000
-7 2 4 -0.3294 0.0022
-7 2 5 -0.1828 -0.0018
-7 2 6 -0.5736 -0.0011
-7 2 7 0.8707 0.0045
-7 2 8 -0.1551 -0.0050
-7 2 9 -0.3993 0.0080
-7 2 10 0.3887 -0.0163
-7 2 11 -0.1131 0.0151
-7 2 12 0.0484 0.0012
-7 2 13 -0.4193 -0.0203
-7 2 14 0.3652 0.0386
-7 2 15 0.4321 -0.0539
-7 3 1 -0.6478 0.0110
-7 3 2 1.1934 -0.0125
-7 3 3 -0.5877 0.0056
-7 3 4 -0.2215 0.0008
-7 3 5 -0.4790 -0.0010
-7 3 6 1.1492 0.0003
-7 3 7 -0.2465 -0.0007
-7 3 8 -0.8115 -0.0003
-7 3 9 0.7632 -0.0015
-7 3 10 0.0696 0.0084
-7 3 11 -0.8589 -0.0068
-7 3 12 0.5623 -0.0164
-7 3 13 0.5327 0.0461
-7 3 14 -0.7445 -0.0544
-7 4 1 0.5154 -0.0155
-7 4 2 -0.1769 0.0095
-7 4 3 -0.6200 -0.0008
-7 4 4 -0.1166 -0.0003
-7 4 5 1.5228 -0.0008
-7 4 6 -1.0679 -0.0025
-7 4 7 -0.5294 0.0019
-7 4 9 -0.8630 -0.0178
-7 4 10 -0.4005 0.0105
-7 4 11 1.4211 -0.0055
-7 4 12 -0.7809 0.0008
-7 4 13 -0.6242 0.0366
-7 4 14 1.0252 -0.0822
-7 5 1 0.0736 -0.0004
-7 5 2 -0.6716 0.0060
-7 5 3 0.2427 -0.0009
-7 5 4 1.4683 -0.0072
-7 5 5 -1.8257 0.0055
-7 5 6 0.5225 0.0051
-7 5 9 0.6002 0.0075
-7 5 10 0.5171 -0.0055
-7 5 11 -1.1973 -0.0017
-7 5 12 0.3817 0.0606
-7 5 13 0.6646 -0.1537
-7 6 1 -0.4016 0.0135
-7 6 2 0.6601 -0.0097
-7 6 3 0.4890 -0.0034
-7 6 4 -1.2410 0.0142
-7 6 5 0.5895 -0.0105
-7 6 9 0.1991 0.0102
-7 6 10 -0.5473 0.0206
-7 6 11 0.4794 -0.0121
-7 6 12 0.1239 -0.0686
-7 7 1 0.8111 -0.0062
-7 7 2 -0.6225 0.0045
-7 7 3 -0.0644 0.0037
-7 7 5 0.0675 0.0092
-7 7 8 1.8308 0.0166
-7 7 9 -1.1860 0.0203
-7 7 10 0.5556 -0.0514
-7 7 11 -0.0074 0.0053
-7 7 12 -0.2742 0.0399
-7 8 1 -0.5376 -0.0012
-7 8 2 0.2080 -0.0054
-7 8 3 -0.2311 0.0015
-7 8 8 -1.9170 0.0117
-7 8 9 1.1954 -0.0328
-7 8 10 -0.4218 -0.0233
-7 8 11 0.0321 0.1036
-7 9 1 -0.3738 -0.0078
-7 9 2 0.3207 0.0061
-7 9 3 0.0688 -0.0042
-7 9 4 -0.7729 0.0078
-7 9 7 0.3624 -0.0057
-7 9 8 0.2355 -0.0101
-7 9 9 -0.1966 -0.0415
-7 9 10 0.3348 0.1676
-7 10 1 0.5668 0.0108
-7 10 2 -0.4431 0.0070
-7 10 3 -0.1567 -0.0054
-7 10 4 2.1547 0.0075
-7 10 7 -2.3754 0.0122
-7 10 8 1.4204 -0.0062
-7 10 9 -0.4678 0.1008
-7 11 1 -0.6700 0.0085
-7 11 2 0.7658 -0.0164
-7 11 3 0.5703 0.0159
-7 11 4 -3.2208 -0.0253
-7 11 6 -3.4128 0.0238
-7 11 7 2.3700 0.0209
-7 11 8 -1.4499 -0.0185
-7 12 1 0.6800 -0.0107
-7 12 2 -0.0438 -0.0094
-7 12 3 -1.8924 -0.0004
-7 12 4 3.0767 0.0046
-7 12 5 -2.3301 0.0214
-7 12 6 1.3698 0.0152
-7 12 7 -0.9558 -0.0841
-7 13 1 1.1939 -0.0178
-7 13 2 -2.6270 0.0395
-7 13 3 3.2618 -0.0263
-7 13 4 -1.8524 0.0339
-7 13 5 0.2597 -0.0191
-7 13 6 0.1415 -0.0645
-7 14 1 -3.1653 0.0137
-7 14 2 3.8736 -0.0222
-7 14 3 -2.4020 0.0354
-7 14 4 0.2452 -0.0528
-7 15 1 2.2500 0.0213
-7 15 2 -1.9183 0.0012
-6 -12 5 0.7760 0.0317
-6 -12 6 -0.3418 -0.0075
-6 -12 7 0.3676 -0.0005
-6 -12 8 -0.2483 -0.0038
-6 -12 9 -0.3303 0.0056
-6 -12 10 0.6313 -0.0137
-6 -12 11 -0.3699 0.0218
-6 -11 2 1.1509 0.0327
-6 -11 3 -1.6388 -0.0533
-6 -11 4 1.5569 0.0347
-6 -11 5 -0.5780 -0.0016
-6 -11 6 0.0118 -0.0065
-6 -11 7 -0.2356 -0.0013
-6 -11 8 0.2506 -0.0037
-6 -11 9 0.1169 0.0064
-6 -11 10 -0.1864 0.0125
-6 -11 11 0.1318 -0.0166
-6 -11 12 -0.7245 -0.0274
-6 -11 13 1.6787 0.0816
-6 -10 1 0.4564 0.0032
-6 -10 2 -0.5583 -0.0269
-6 -10 3 0.9039 0.0211
-6 -10 4 -0.2178 0.0094
-6 -10 5 -0.7282 -0.0167
-6 -10 6 0.5835 -0.0001
-6 -10 7 0.1166 -0.0010
-6 -10 8 -0.3601 0.0189
-6 -10 9 0.4332 -0.0115
-6 -10 10 -0.6520 -0.0170
-6 -10 11 0.3357 0.0136
-6 -10 12 0.7270 0.0370
-6 -10 13 -1.3254 -0.0921
-6 -10 14 0.6493 0.1138
-6 -9 1 0.6824 0.0082
-6 -9 2 -0.6017 0.0003
-6 -9 3 0.6535 0.0123
-6 -9 4 -1.0548 -0.0153
-6 -9 5 0.7934 -0.0049
-6 -9 6 0.0192 0.0144
-6 -9 7 -0.4077 0.0036
-6 -9 8 0.5131 -0.0165
-6 -9 9 -0.9718 -0.0008
-6 -9 10 1.3878 0.0262
-6 -9 11 -1.0545 -0.0238
-6 -9 12 0.3695 -0.0118
-6 -9 13 -0.5159 0.0593
-6 -9 14 1.5058 -0.0962
-6 -9 15 -1.6153 0.1096
-6 -8 1 -0.6877 -0.0037
-6 -8 2 0.9246 0.0036
-6 -8 3 -1.0957 -0.0031
-6 -8 4 0.5205 -0.0069
-6 -8 5 0.3780 0.0129
-6 -8 6 -0.4192 -0.0062
-6 -8 7 -0.0429 -0.0031
-6 -8 8 -0.1678 0.0041
-6 -8 9 1.0066 0.0064
-6 -8 10 -1.7312 -0.0224
-6 -8 11 1.8768 0.0275
-6 -8 12 -1.5088 -0.0108
-6 -8 13 1.5352 -0.0189
-6 -8 14 -2.1004 0.0458
-6 -8 15 1.6714 -0.0622
-6 -8 16 -0.2498 0.0636
-6 -7 1 0.2730 -0.0069
-6 -7 2 -0.9941 0.0076
-6 -7 3 0.7973 -0.0080
-6 -7 4 0.2858 -0.0026
-6 -7 5 -0.4583 0.0112
-6 -7 6 -0.3955 -0.0034
-6 -7 7 0.6221 -0.0043
-6 -7 8 -0.0283 -0.0025
-6 -7 9 -0.6853 0.0061
-6 -7 10 1.4682 0.0032
-6 -7 11 -1.5120 -0.0093
-6 -7 12 0.4123 0.0091
-6 -7 13 -0.0056 -0.0128
-6 -7 14 0.8074 0.0107
-6 -7 15 -0.8622 0.0014
-6 -7 16 0.2112 -0.0025
-6 -6 1 -1.0442 0.0032
-6 -6 2 1.2660 -0.0085
-6 -6 3 -0.1704 -0.0030
-6 -6 4 -0.6676 0.0218
-6 -6 5 0.0572 -0.0136
-6 -6 6 0.3737 -0.0090
-6 -6 7 0.0027 0.0073
-6 -6 8 0.1111 0.0097
-6 -6 9 -0.2271 -0.0120
-6 -6 10 -0.1929 0.0092
-6 -6 11 -0.6278 -0.0103
-6 -6 12 2.2036 -0.0050
-6 -6 13 -1.5688 0.0241
-6 -6 14 -0.5576 -0.0144
-6 -6 15 1.2848 0.0015
-6 -6 16 -0.8295 -0.0177
-6 -5 1 1.4531 -0.0018
-6 -5 2 -0.3779 0.0078
-6 -5 3 -1.0242 0.0061
-6 -5 4 0.9100 -0.0101
-6 -5 5 -0.1840 -0.0071
-6 -5 6 0.5096 0.0123
-6 -5 7 -0.4077 0.0015
-6 -5 8 -0.7562 -0.0020
-6 -5 9 0.8790 -0.0050
-6 -5 10 -0.6018 -0.0072
-6 -5 11 1.9520 0.0123
-6 -5 12 -2.5848 0.0062
-6 -5 13 0.2171 -0.0015
-6 -5 14 2.3362 -0.0273
-6 -5 15 -2.3833 0.0206
-6 -5 16 0.9369 0.0092
-6 -4 1 -0.6556 0.0084
-6 -4 2 -0.5484 -0.0083
-6 -4 3 0.9176 0.0010
-6 -4 4 -0.0208 -0.0032
-6 -4 5 0.0068 0.0045
-6 -4 6 -0.7882 0.0056
-6 -4 7 0.2975 -0.0020
-6 -4 8 0.2497 -0.0195
-6 -4 9 0.5938 0.0159
-6 -4 10 -0.4808 0.0086
-6 -4 11 -1.0789 -0.0052
-6 -4 12 0.8042 -0.0051
-6 -4 13 1.5461 -0.0151
-6 -4 14 -2.7004 0.0218
-6 -4 15 1.5571 0.0054
-6 -4 16 0.2565 -0.0090
-6 -3 1 0.7782 -0.0039
-6 -3 2 -0.2519 0.0010
-6 -3 3 0.5613 0.0010
-6 -3 4 -0.8286 -0.0027
-6 -3 5 -0.3699 0.0100
-6 -3 6 1.3904 -0.0120
-6 -3 7 -1.2534 -0.0078
-6 -3 8 1.6834 0.0203
-6 -3 9 -2.2487 0.0007
-6 -3 10 0.9518 -0.0137
-6 -3 11 0.7983 -0.0024
-6 -3 12 -0.7343 0.0083
-6 -3 13 -0.1492 -0.0071
-6 -3 14 0.1408 0.0248
-6 -3 15 0.6042 -0.0251
-6 -3 16 -1.0296 -0.0060
-6 -2 1 -1.1225 -0.0055
-6 -2 2 0.5233 0.0046
-6 -2 3 -0.5594 -0.0024
-6 -2 4 -0.1052 0.0009
-6 -2 5 1.6448 -0.0049
-6 -2 6 -2.2126 0.0047
-6 -2 7 1.8583 0.0040
-6 -2 8 -1.6818 0.0008
-6 -2 9 0.9503 -0.0134
-6 -2 10 0.6915 0.0064
-6 -2 11 -1.9291 0.0055
-6 -2 12 2.2717 -0.0075
-6 -2 13 -2.2129 0.0144
-6 -2 14 1.8072 -0.0106
-6 -2 15 -1.0626 -0.0158
-6 -2 16 0.1491 0.0234
-6 -1 1 -0.1584 0.0027
-6 -1 2 0.5167 -0.0005
-6 -1 3 -0.2331 -0.0063
-6 -1 4 0.9814 0.0116
-6 -1 5 -2.0953 -0.0032
-6 -1 6 1.8537 -0.0061
-6 -1 7 -0.6611 0.0070
-6 -1 8 -0.3650 -0.0069
-6 -1 9 1.0592 0.0023
-6 -1 10 -1.4953 0.0033
-6 -1 11 1.8665 0.0004
-6 -1 12 -2.2599 -0.0051
-6 -1 13 2.0614 0.0125
-6 -1 14 -1.0206 -0.0279
-6 -1 15 -0.1347 0.0212
-6 -1 16 0.8433 0.0137
-6 0 1 0.9623 0.0036
-6 0 2 -0.3080 -0.0025
-6 0 3 -0.0889 0.0100
-6 0 4 -1.1120 -0.0106
-6 0 5 2.0240 -0.0016
-6 0 6 -1.0749 0.0077
-6 0 7 -0.5091 -0.0033
-6 0 8 1.1673 -0.0030
-6 0 9 -0.8916 0.0065
-6 0 10 0.5589 -0.0038
-6 0 11 -0.7307 -0.0003
-6 0 12 0.9120 0.0022
-6 0 13 -0.4289 -0.0053
-6 0 14 -0.2888 -0.0053
-6 0 15 0.6292 0.0345
-6 0 16 -0.7613 -0.0492
-6 1 1 -0.0808 0.0008
-6 1 2 -0.6891 -0.0037
-6 1 3 -0.0171 -0.0011
-6 1 4 1.7646 0.0005
-6 1 5 -1.8640 0.0015
-6 1 6 0.3516 0.0019
-6 1 7 0.5712 -0.0043
-6 1 8 -0.3841 0.0039
-6 1 9 0.1240 -0.0027
-6 1 10 -0.2689 0.0012
-6 1 11 0.3415 -0.0030
-6 1 12 0.1566 0.0101
-6 1 13 -0.7264 -0.0214
-6 1 14 0.5920 0.0313
-6 1 15 -0.2907 -0.0272
-6 2 1 -0.9624 -0.0112
-6 2 2 0.9616 0.0111
-6 2 4 -1.5776 -0.0012
-6 2 5 0.6009 0.0070
-6 2 6 0.1274 -0.0062
-6 2 7 0.4577 0.0010
-6 2 8 -0.7713 -0.0003
-6 2 9 0.0948 -0.0025
-6 2 10 0.3999 0.0124
-6 2 11 0.2808 -0.0146
-6 2 12 -1.4996 0.0046
-6 2 13 1.6643 -0.0006
-6 2 14 -0.7065 0.0069
-6 2 15 0.2986 -0.0067
-6 3 1 1.9663 0.0152
-6 3 2 -1.1454 -0.0099
-6 3 3 -0.4251 0.0012
-6 3 4 0.4282 0.0055
-6 3 5 -0.0018 -0.0043
-6 3 6 1.0940 -0.0035
-6 3 7 -2.2775 0.0017
-6 3 8 1.7622 0.0048
-6 3 9 -0.5429 0.0064
-6 3 10 0.5123 -0.0212
-6 3 11 -1.9187 0.0168
-6 3 12 2.9744 -0.0138
-6 3 13 -2.1561 0.0141
-6 3 14 0.6887 0.0208
-6 3 15 -0.3696 -0.0697
-6 4 1 -2.2503 -0.0082
-6 4 2 0.6284 0.0021
-6 4 3 0.5221 0.0008
-6 4 4 -0.3604 0.0003
-6 4 5 0.8117 -0.0073
-6 4 6 -2.0085 0.0080
-6 4 8 -1.2475 -0.0095
-6 4 9 0.5970 0.0018
-6 4 10 -1.2796 -0.0127
-6 4 11 2.6639 0.0182
-6 4 12 -2.7666 -0.0008
-6 4 13 1.1981 0.0323
-6 4 14 -0.0134 -0.1184
-6 5 1 0.8548 -0.0061
-6 5 2 0.5831 0.0024
-6 5 4 -0.0304 -0.0047
-6 5 5 0.3231 0.0052
-6 5 8 -0.5393 0.0008
-6 5 9 0.2200 -0.0152
-6 5 10 0.7905 0.0335
-6 5 11 -1.6564 -0.0003
-6 5 12 1.0405 -0.0139
-6 5 13 0.2684 -0.0639
-6 6 1 0.4052 0.0145
-6 6 2 -0.6636 0.0007
-6 6 3 -0.2086 -0.0038
-6 6 4 1.4759 -0.0012
-6 6 8 1.3145 0.0183
-6 6 9 -0.8611 0.0013
-6 6 10 -0.0348 0.0205
-6 6 11 0.5443 -0.0595
-6 6 12 -0.0318 0.0043
-6 6 13 -0.5320 0.0674
-6 7 1 -0.6917 -0.0058
-6 7 2 0.5619 -0.0036
-6 7 7 0.5142 0.0234
-6 7 8 -1.1388 -0.0144
-6 7 9 1.1616 0.0152
-6 7 10 -0.3353 -0.0427
-6 7 11 -0.3567 -0.0111
-6 7 12 0.3699 0.1118
-6 8 1 0.7767 -0.0006
-6 8 2 -1.2500 -0.0045
-6 8 7 -0.0264 0.0021
-6 8 8 1.7404 -0.0217
-6 8 9 -1.8282 0.0060
-6 8 10 0.7239 -0.0495
-6 8 11 0.4603 0.1746
-6 9 1 0.2144 -0.0123
-6 9 2 1.0164 0.0091
-6 9 3 -3.3097 0.0043
-6 9 6 1.7475 0.0003
-6 9 7 1.3256 -0.0348
-6 9 8 -2.7367 0.0203
-6 9 9 2.3854 -0.0135
-6 9 10 -0.8930 0.1214
-6 10 1 -1.1831 0.0102
-6 10 2 -0.6868 0.0067
-6 10 3 3.5396 -0.0028
-6 10 6 0.2994 -0.0188
-6 10 7 -2.2295 0.0091
-6 10 8 2.6386 0.0618
-6 10 9 -1.7369 -0.0304
-6 11 1 -0.2843 0.0181
-6 11 2 1.6712 -0.0086
-6 11 3 -2.9081 -0.0181
-6 11 5 -0.1477 -0.0122
-6 11 6 -1.3869 0.0176
-6 11 7 1.9193 0.0737
-6 11 8 -1.4189 -0.1437
-6 12 1 1.8430 -0.0192
-6 12 2 -1.6588 -0.0187
-6 12 3 0.9176 0.0221
-6 12 4 0.1241 -0.0030
-6 12 5 -0.8489 0.0182
-6 12 6 1.3576 0.0273
-6 12 7 -1.2562 -0.1430
-6 13 1 -1.1125 -0.0070
-6 13 2 0.2936 0.0118
-6 13 3 0.2333 0.0254
-6 13 4 -0.0447 -0.0272
-6 13 5 0.3266 0.0148
-6 13 6 -1.0344 -0.0825
-6 14 1 0.6005 0.0092
-6 14 2 -0.2837 0.0318
-6 14 3 0.7961 -0.0605
-6 14 4 -1.0993 0.0411
-6 15 1 -1.3612 -0.0107
-6 15 2 1.0832 -0.0219
-6 15 3 -1.3749 0.0271
-6 16 1 1.1858 0.0407
-5 -13 5 -1.2267 0.0724
-5 -13 6 0.0766 -0.0236
-5 -13 7 0.2321 -0.0046
-5 -13 8 0.3437 0.0002
-5 -13 9 -0.8517 -0.0025
-5 -13 10 0.9132 0.0111
-5 -13 11 -0.3243 -0.0122
-5 -13 12 -0.7136 0.0039
-5 -12 2 -0.2634 -0.0282
-5 -12 3 1.3777 -0.0226
-5 -12 4 -2.0063 0.0449
-5 -12 5 1.0646 -0.0200
-5 -12 6 0.3513 -0.0017
-5 -12 7 -0.6768 -0.0045
-5 -12 8 -0.1152 0.0059
-5 -12 9 1.0345 0.0041
-5 -12 10 -1.1144 -0.0076
-5 -12 11 0.1294 0.0097
-5 -12 12 0.9988 -0.0002
-5 -12 13 -1.2805 -0.0389
-5 -12 14 0.7767 0.0764
-5 -11 1 -0.0739 -0.0435
-5 -11 2 -0.0695 0.0043
-5 -11 3 -0.6675 0.0131
-5 -11 4 0.8948 -0.0018
-5 -11 5 0.3452 -0.0089
-5 -11 6 -1.8189 0.0013
-5 -11 7 1.8289 0.0030
-5 -11 8 -0.5382 0.0022
-5 -11 9 -0.5035 0.0029
-5 -11 10 0.4684 -0.0061
-5 -11 11 0.1909 -0.0063
-5 -11 12 -0.8709 0.0028
-5 -11 13 1.2758 0.0272
-5 -11 14 -0.9463 -0.0551
-5 -11 15 -0.1707 0.0803
-5 -10 1 -0.5349 -0.0009
-5 -10 2 0.6333 0.0109
-5 -10 3 0.3573 0.0019
-5 -10 4 -0.5979 -0.0063
-5 -10 5 -0.7213 -0.0019
-5 -10 6 1.7900 0.0013
-5 -10 7 -1.2168 0.0103
-5 -10 8 0.1923 -0.0067
-5 -10 9 0.0350 -0.0094
-5 -10 10 0.0293 0.0063
-5 -10 11 0.0202 0.0087
-5 -10 12 0.3186 -0.0096
-5 -10 13 -0.7814 0.0035
-5 -10 14 0.2875 0.0124
-5 -10 15 0.8410 -0.0528
-5 -10 16 -0.8342 0.0775
-5 -9 1 0.6571 0.0222
-5 -9 2 0.5807 -0.0009
-5 -9 3 -2.0185 -0.0050
-5 -9 4 1.6381 -0.0077
-5 -9 5 -0.0518 0.0108
-5 -9 6 -0.3715 0.0040
-5 -9 7 -0.3020 -0.0132
-5 -9 8 0.4314 0.0043
-5 -9 9 -0.2450 0.0033
-5 -9 10 0.6969 -0.0014
-5 -9 11 -1.2278 0.0020
-5 -9 12 1.0528 0.0034
-5 -9 13 -0.7424 -0.0162
-5 -9 14 1.0942 0.0070
-5 -9 15 -1.2302 0.0135
-5 -9 16 -0.1749 0.0058
-5 -8 1 0.8748 -0.0016
-5 -8 2 -2.5158 -0.0105
-5 -8 3 2.7191 -0.0001
-5 -8 4 -1.0052 0.0094
-5 -8 5 -0.2629 -0.0053
-5 -8 6 -0.1802 -0.0022
-5 -8 7 0.9055 0.0042
-5 -8 8 -1.1634 -0.0047
-5 -8 9 1.5686 0.0025
-5 -8 10 -2.1555 0.0103
-5 -8 11 2.4791 -0.0189
-5 -8 12 -2.2765 0.0049
-5 -8 13 1.7377 0.0105
-5 -8 14 -1.2815 -0.0110
-5 -8 15 0.2030 0.0284
-5 -8 16 1.9623 -0.0708
-5 -8 17 -2.9515 0.0877
-5 -7 1 -1.5070 -0.0095
-5 -7 2 1.9510 0.0035
-5 -7 3 -0.8079 -0.0007
-5 -7 4 -0.5674 0.0020
-5 -7 5 0.5388 0.0010
-5 -7 6 0.2607 -0.0042
-5 -7 7 -1.0613 -0.0003
-5 -7 8 1.7635 0.0058
-5 -7 9 -1.8207 0.0010
-5 -7 10 1.5893 -0.0133
-5 -7 11 -1.8556 0.0104
-5 -7 12 1.7404 0.0027
-5 -7 13 -0.8209 -0.0073
-5 -7 14 0.0758 0.0102
-5 -7 15 0.8935 -0.0255
-5 -7 16 -2.3832 0.0380
-5 -7 17 2.5232 -0.0279
-5 -6 1 0.3373 -0.0036
-5 -6 2 -0.3137 0.0011
-5 -6 3 -0.0531 0.0092
-5 -6 4 -0.1282 -0.0074
-5 -6 5 0.1520 -0.0019
-5 -6 6 0.0789 0.0034
-5 -6 7 0.3583 0.0014
-5 -6 8 -0.3058 -0.0019
-5 -6 9 -0.9050 -0.0002
-5 -6 10 0.8955 -0.0030
-5 -6 11 0.5507 0.0072
-5 -6 12 -0.6853 -0.0063
-5 -6 13 -0.2291 0.0014
-5 -6 14 0.2240 0.0087
-5 -6 15 -0.1293 -0.0208
-5 -6 16 0.8180 0.0249
-5 -6 17 -1.1562 -0.0235
-5 -5 1 0.3476 0.0062
-5 -5 2 -0.1264 0.0046
-5 -5 3 -0.5741 -0.0076
-5 -5 4 0.6385 0.0013
-5 -5 5 0.7230 -0.0000
-5 -5 6 -1.2168 0.0023
-5 -5 7 0.6955 0.0012
-5 -5 8 -1.8122 -0.0027
-5 -5 9 3.0174 -0.0048
-5 -5 10 -1.1883 0.0060
-5 -5 11 -1.0928 0.0030
-5 -5 12 0.6803 -0.0052
-5 -5 13 0.1807 0.0066
-5 -5 14 0.5340 -0.0195
-5 -5 15 -1.0036 0.0223
-5 -5 16 -0.0103 -0.0067
-5 -5 17 1.2310 -0.0006
-5 -4 1 -0.8216 0.0004
-5 -4 2 0.9111 0.0005
-5 -4 3 -0.4095 -0.0057
-5 -4 4 1.2482 0.0021
-5 -4 5 -1.9432 0.0074
-5 -4 6 0.3793 -0.0048
-5 -4 7 0.4044 -0.0061
-5 -4 8 1.4177 0.0042
-5 -4 9 -1.7751 0.0012
-5 -4 10 -0.6901 0.0088
-5 -4 11 1.7367 -0.0146
-5 -4 12 -0.2584 0.0039
-5 -4 13 -0.4176 0.0011
-5 -4 14 -0.4183 -0.0051
-5 -4 15 0.3554 0.0240
-5 -4 16 1.2555 -0.0317
-5 -4 17 -2.4445 0.0174
-5 -3 1 1.6043 0.0037
-5 -3 2 -1.6925 -0.0118
-5 -3 3 1.7099 0.0112
-5 -3 4 -2.2163 0.0021
-5 -3 5 0.5387 -0.0114
-5 -3 6 2.2968 0.0024
-5 -3 7 -2.0129 0.0065
-5 -3 8 -0.3401 0.0002
-5 -3 9 0.4805 -0.0032
-5 -3 10 0.8476 -0.0022
-5 -3 11 -0.4624 -0.0016
-5 -3 12 -0.8459 0.0075
-5 -3 13 0.7767 -0.0085
-5 -3 14 -0.0505 0.0155
-5 -3 15 0.5802 -0.0134
-5 -3 16 -1.9989 -0.0083
-5 -3 17 2.4136 0.0185
-5 -2 1 -0.9890 -0.0050
-5 -2 2 0.9016 0.0089
-5 -2 3 -1.6057 -0.0071
-5 -2 4 1.5228 -0.0036
-5 -2 5 0.8901 0.0078
-5 -2 6 -2.5855 0.0018
-5 -2 7 1.1810 -0.0036
-5 -2 8 0.7646 -0.0083
-5 -2 9 -0.7787 0.0150
-5 -2 10 0.1570 -0.0131
-5 -2 11 -0.3691 0.0075
-5 -2 12 0.5286 -0.0003
-5 -2 13 0.1468 -0.0030
-5 -2 14 -0.6661 0.0130
-5 -2 15 0.1032 -0.0355
-5 -2 16 0.8729 0.0421
-5 -2 17 -1.1329 -0.0272
-5 -1 1 -0.2896 -0.0056
-5 -1 2 -0.2251 -0.0010
-5 -1 3 1.4459 0.0048
-5 -1 4 -1.1557 0.0026
-5 -1 5 -0.5069 -0.0022
-5 -1 6 1.0344 -0.0087
-5 -1 7 0.0900 0.0076
-5 -1 8 -0.9454 0.0045
-5 -1 9 0.5542 -0.0080
-5 -1 10 0.0905 0.0000
-5 -1 11 -0.2586 0.0068
-5 -1 12 0.4827 -0.0046
-5 -1 13 -1.0888 0.0049
-5 -1 14 1.4489 -0.0149
-5 -1 15 -0.9861 0.0134
-5 -1 16 0.0630 0.0007
-5 0 1 0.6743 0.0075
-5 0 2 0.3164 0.0023
-5 0 3 -1.1877 -0.0014
-5 0 4 0.7347 -0.0063
-5 0 5 0.1773 -0.0020
-5 0 6 -0.1634 0.0157
-5 0 7 -0.5190 -0.0141
-5 0 8 0.5590 0.0076
-5 0 9 0.1058 -0.0090
-5 0 10 -0.3696 0.0087
-5 0 11 0.0616 0.0008
-5 0 12 -0.0277 -0.0079
-5 0 13 0.5714 0.0076
-5 0 14 -0.9853 -0.0153
-5 0 15 0.5474 0.0231
-5 0 16 0.2412 -0.0001
-5 1 1 -0.3101 0.0030
-5 1 2 -0.8951 -0.0045
-5 1 3 1.4500 -0.0055
-5 1 4 -1.0163 0.0097
-5 1 5 0.7443 0.0003
-5 1 6 -1.2300 -0.0055
-5 1 7 1.2787 0.0034
-5 1 8 -0.2509 -0.0049
-5 1 9 -0.4732 0.0020
-5 1 10 0.0040 0.0092
-5 1 11 0.7202 -0.0104
-5 1 12 -0.6757 0.0009
-5 1 13 -0.0114 -0.0029
-5 1 14 0.3276 0.0048
-5 1 15 0.1379 0.0292
-5 1 16 -0.4044 -0.0741
-5 2 1 -1.7014 -0.0064
-5 2 2 3.2058 0.0024
-5 2 3 -3.2449 0.0050
-5 2 4 2.3420 -0.0067
-5 2 5 -2.2533 0.0107
-5 2 6 2.3031 -0.0165
-5 2 7 -0.7694 0.0088
-5 2 8 -1.1515 -0.0004
-5 2 9 1.3823 0.0075
-5 2 10 -0.4040 -0.0081
-5 2 11 -0.2719 -0.0058
-5 2 12 0.1145 0.0065
-5 2 13 0.3527 -0.0031
-5 2 14 -0.2366 0.0334
-5 2 15 -0.1417 -0.0736
-5 3 1 4.0144 0.0004
-5 3 2 -4.6538 -0.0025
-5 3 3 3.1302 0.0057
-5 3 4 -1.7235 -0.0011
-5 3 5 1.8327 -0.0149
-5 3 6 -1.1129 0.0140
-5 3 8 2.4745 -0.0091
-5 3 9 -1.9200 0.0047
-5 3 10 0.8180 -0.0089
-5 3 11 -0.1414 -0.0032
-5 3 12 0.1615 0.0205
-5 3 13 -0.2986 0.0018
-5 3 14 0.0072 -0.0301
-5 3 15 0.0215 0.0089
-5 4 1 -2.9835 0.0084
-5 4 2 2.1441 -0.0005
-5 4 3 -0.0752 -0.0128
-5 4 4 -0.1105 0.0076
-5 4 5 -0.9174 0.0025
-5 4 7 1.1410 -0.0153
-5 4 8 -1.5305 0.0089
-5 4 9 0.8466 -0.0117
-5 4 10 0.2273 -0.0018
-5 4 11 -0.8394 0.0300
-5 4 12 0.5287 -0.0111
-5 4 13 -0.1995 -0.0192
-5 4 14 0.1789 -0.0215
-5 5 1 0.4447 -0.0234
-5 5 2 0.6444 0.0093
-5 5 3 -1.3667 0.0087
-5 5 7 0.1326 -0.0075
-5 5 8 0.3434 0.0025
-5 5 9 0.2438 0.0056
-5 5 10 -1.2930 0.0153
-5 5 11 1.2799 -0.0028
-5 5 12 -0.3119 -0.0361
-5 5 13 -0.2090 -0.0127
-5 5 14 0.3240 0.0940
-5 6 1 0.2600 0.0264
-5 6 7 0.7548 0.0187
-5 6 8 -1.1135 0.0061
-5 6 9 0.1212 -0.0014
-5 6 10 0.6500 -0.0040
-5 6 11 -0.0509 -0.0259
-5 6 12 -0.7675 -0.0202
-5 6 13 0.8344 0.1342
-5 7 1 -0.7642 -0.0007
-5 7 6 1.6124 0.0159
-5 7 7 -2.5707 0.0067
-5 7 8 2.0364 -0.0163
-5 7 9 -0.8431 -0.0033
-5 7 10 0.3832 -0.0082
-5 7 11 -0.5619 -0.0223
-5 7 12 0.5134 0.1438
-5 8 1 1.3094 -0.0168
-5 8 6 -2.4726 0.0018
-5 8 7 2.3629 -0.0182
-5 8 8 -1.4555 0.0003
-5 8 9 0.6689 -0.0076
-5 8 10 -0.0748 0.0147
-5 8 11 -0.4163 0.0760
-5 9 1 -0.1922 0.0031
-5 9 2 -1.1297 -0.0002
-5 9 5 -1.2903 -0.0076
-5 9 6 1.5478 -0.0054
-5 9 7 -0.9072 -0.0101
-5 9 8 0.5593 0.0092
-5 9 9 -0.1548 0.0372
-5 9 10 -0.4724 -0.0013
-5 9 11 0.6973 -0.0729
-5 10 1 -0.5958 0.0020
-5 10 2 1.9213 0.0186
-5 10 5 1.2669 -0.0005
-5 10 6 -0.6680 -0.0061
-5 10 7 0.3672 0.0308
-5 10 8 -0.4110 0.0153
-5 10 9 0.1792 -0.0326
-5 10 10 -0.1126 -0.0563
-5 11 1 -0.0646 0.0119
-5 11 2 -0.6336 -0.0087
-5 11 4 1.3191 0.0068
-5 11 5 -1.1356 0.0230
-5 11 6 0.6443 0.0089
-5 11 7 -0.4114 -0.0015
-5 11 8 0.2370 -0.0497
-5 11 9 -0.3802 -0.0114
-5 12 1 0.0545 -0.0077
-5 12 2 0.0191 -0.0297
-5 12 3 0.5175 0.0294
-5 12 4 -0.8979 0.0289
-5 12 5 0.9280 -0.0287
-5 12 6 -0.4357 0.0008
-5 12 7 -0.2765 -0.0492
-5 13 1 0.5545 -0.0089
-5 13 3 0.3554 0.0125
-5 13 4 0.3741 -0.0356
-5 13 5 -0.5159 -0.0033
-5 13 6 -0.4474 -0.0039
-5 14 2 0.8133 0.0226
-5 14 3 -0.4028 -0.0381
-5 14 4 -0.4926 0.0034
-5 14 5 0.0461 0.0271
-5 15 1 -0.3652 0.0384
-5 15 2 -0.1487 -0.0587
-5 15 3 -0.5394 0.0332
-5 16 1 0.7375 -0.0644
-4 -14 5 -0.0105 0.0609
-4 -14 6 0.2933 -0.0139
-4 -14 7 -0.5117 -0.0029
-4 -14 8 -0.2544 0.0001
-4 -14 9 0.8518 -0.0098
-4 -14 10 -0.8077 0.0152
-4 -14 11 0.8153 0.0039
-4 -14 12 -0.5335 -0.0453
-4 -13 2 -2.0585 -0.0585
-4 -13 3 2.3372 -0.0225
-4 -13 4 -0.8069 0.0431
-4 -13 5 -0.1095 -0.0111
-4 -13 6 0.0007 0.0002
-4 -13 7 -0.2396 -0.0088
-4 -13 8 0.4348 -0.0016
-4 -13 9 -0.0160 0.0132
-4 -13 10 0.1199 -0.0055
-4 -13 11 -0.8563 -0.0159
-4 -13 12 0.9034 0.0482
-4 -13 13 -0.4685 -0.0604
-4 -13 14 0.5328 0.0273
-4 -12 1 -0.4905 -0.0826
-4 -12 2 1.7863 0.0039
-4 -12 3 -1.2127 0.0244
-4 -12 4 -0.1239 0.0046
-4 -12 5 0.5564 -0.0155
-4 -12 6 -0.5934 -0.0078
-4 -12 7 0.4011 0.0130
-4 -12 8 0.4973 -0.0028
-4 -12 9 -1.0097 0.0030
-4 -12 10 0.1270 0.0027
-4 -12 11 1.0943 -0.0072
-4 -12 12 -1.6647 -0.0084
-4 -12 13 1.9385 0.0145
-4 -12 14 -1.9605 -0.0102
-4 -12 15 1.3347 0.0346
-4 -11 1 0.4151 0.0006
-4 -11 2 -0.9280 0.0286
-4 -11 3 0.2544 -0.0023
-4 -11 4 0.5338 -0.0217
-4 -11 5 -0.9679 0.0054
-4 -11 6 0.9096 0.0085
-4 -11 7 -0.1199 -0.0023
-4 -11 8 -0.6185 0.0075
-4 -11 9 0.3840 -0.0075
-4 -11 10 0.4662 -0.0166
-4 -11 11 -1.2543 0.0262
-4 -11 12 1.8708 -0.0149
-4 -11 13 -2.2152 0.0076
-4 -11 14 2.1222 0.0182
-4 -11 15 -1.7553 -0.0569
-4 -11 16 1.2318 0.0464
-4 -10 1 -0.8360 0.0283
-4 -10 2 0.7540 -0.0134
-4 -10 3 -0.0125 -0.0090
-4 -10 4 -0.9092 0.0055
-4 -10 5 1.0233 0.0040
-4 -10 6 -0.0135 0.0064
-4 -10 7 -0.7472 -0.0072
-4 -10 8 0.4170 -0.0081
-4 -10 9 0.1483 0.0031
-4 -10 10 -0.4377 0.0108
-4 -10 11 0.7260 -0.0082
-4 -10 12 -0.9325 0.0079
-4 -10 13 1.0634 -0.0035
-4 -10 14 -1.5576 -0.0205
-4 -10 15 2.2717 0.0158
-4 -10 16 -2.1566 0.0308
-4 -9 1 0.8869 -0.0058
-4 -9 2 -0.6538 -0.0044
-4 -9 3 -0.3880 0.0014
-4 -9 4 0.9495 0.0078
-4 -9 5 0.5061 -0.0006
-4 -9 6 -2.2658 -0.0103
-4 -9 7 2.1135 0.0016
-4 -9 8 -0.9498 0.0070
-4 -9 9 0.1605 -0.0046
-4 -9 10 0.3233 0.0079
-4 -9 11 -0.3778 -0.0064
-4 -9 12 0.0059 -0.0028
-4 -9 13 -0.1744 -0.0056
-4 -9 14 1.3366 0.0041
-4 -9 15 -2.4752 0.0410
-4 -9 16 1.9918 -0.0685
-4 -9 17 0.1184 0.0299
-4 -8 1 -0.8652 -0.0088
-4 -8 2 0.5915 0.0038
-4 -8 3 0.7134 0.0047
-4 -8 4 -0.3228 -0.0076
-4 -8 5 -1.7888 0.0015
-4 -8 6 2.6460 0.0001
-4 -8 7 -1.7931 0.0013
-4 -8 8 0.6483 0.0014
-4 -8 9 0.4721 0.0027
-4 -8 10 -0.9679 -0.0063
-4 -8 11 0.2734 -0.0018
-4 -8 12 0.4166 -0.0033
-4 -8 13 -0.0709 0.0178
-4 -8 14 -0.8434 0.0047
-4 -8 15 1.3331 -0.0437
-4 -8 16 -0.3992 0.0353
-4 -8 17 -1.3545 -0.0004
-4 -7 1 1.2143 0.0013
-4 -7 2 -0.1043 0.0030
-4 -7 3 -1.1475 -0.0053
-4 -7 4 0.4460 0.0050
-4 -7 5 0.5134 -0.0031
-4 -7 6 -0.5870 -0.0016
-4 -7 7 0.3712 0.0104
-4 -7 8 0.5330 -0.0097
-4 -7 9 -1.5257 -0.0002
-4 -7 10 0.8578 -0.0005
-4 -7 11 0.4549 0.0017
-4 -7 12 -0.5435 0.0151
-4 -7 13 0.1661 -0.0223
-4 -7 14 -0.1412 0.0015
-4 -7 15 0.1286 0.0108
-4 -7 16 -0.4642 0.0007
-4 -7 17 0.9955 -0.0027
-4 -6 1 -0.3438 0.0087
-4 -6 2 -0.9177 -0.0073
-4 -6 3 0.9953 0.0035
-4 -6 4 -0.4405 -0.0002
-4 -6 5 0.0940 -0.0027
-4 -6 6 0.6699 0.0096
-4 -6 7 -0.4896 -0.0123
-4 -6 8 -1.3091 0.0013
-4 -6 9 1.6196 0.0075
-4 -6 10 0.2570 -0.0021
-4 -6 11 -0.8871 -0.0009
-4 -6 12 -0.0674 -0.0065
-4 -6 13 0.0550 0.0096
-4 -6 14 0.4567 -0.0056
-4 -6 15 0.1180 0.0068
-4 -6 16 -0.8328 -0.0115
-4 -6 17 0.6359 0.0076
-4 -5 1 -1.1191 -0.0062
-4 -5 2 0.6640 0.0029
-4 -5 3 0.2775 0.0021
-4 -5 4 -0.6421 -0.0018
-4 -5 5 1.8131 0.0002
-4 -5 6 -2.7749 -0.0019
-4 -5 7 0.6047 -0.0008
-4 -5 8 2.1089 0.0083
-4 -5 9 -1.1126 -0.0066
-4 -5 10 -0.9841 -0.0074
-4 -5 11 0.2797 0.0171
-4 -5 12 1.0255 -0.0104
-4 -5 13 -0.5211 -0.0007
-4 -5 14 0.3849 0.0038
-4 -5 15 -1.7748 -0.0089
-4 -5 16 2.3527 0.0165
-4 -5 17 -1.1442 -0.0099
-4 -4 1 1.0520 -0.0067
-4 -4 2 -0.0852 0.0061
-4 -4 3 0.1831 -0.0028
-4 -4 4 0.4679 -0.0055
-4 -4 5 -2.7958 0.0089
-4 -4 6 2.7328 -0.0053
-4 -4 7 0.8519 0.0022
-4 -4 8 -2.4793 -0.0015
-4 -4 9 0.1202 -0.0046
-4 -4 10 1.2675 0.0160
-4 -4 11 0.3971 -0.0155
-4 -4 12 -1.5590 0.0020
-4 -4 13 1.1961 0.0025
-4 -4 14 -1.7739 -0.0011
-4 -4 15 2.8479 0.0074
-4 -4 16 -2.0721 0.0003
-4 -4 17 0.3018 -0.0233
-4 -3 1 -0.1469 0.0110
-4 -3 2 1.1104 -0.0051
-4 -3 3 -2.0808 -0.0027
-4 -3 4 0.2171 0.0068
-4 -3 5 2.1723 -0.0039
-4 -3 6 -0.8648 -0.0016
-4 -3 7 -2.2392 0.0034
-4 -3 8 2.0334 -0.0005
-4 -3 9 0.7083 -0.0008
-4 -3 10 -1.0848 0.0022
-4 -3 11 -1.0641 -0.0075
-4 -3 12 2.2525 0.0048
-4 -3 13 -2.3376 0.0034
-4 -3 14 2.7662 0.0007
-4 -3 15 -2.4350 0.0030
-4 -3 16 0.8700 -0.0300
-4 -3 17 0.0527 0.0340
-4 -2 1 -0.4869 -0.0012
-4 -2 2 -1.2245 -0.0023
-4 -2 3 1.0281 0.0010
-4 -2 4 0.8156 0.0041
-4 -2 5 -1.0813 -0.0046
-4 -2 6 -1.4955 0.0017
-4 -2 7 3.7149 0.0015
-4 -2 8 -2.2679 -0.0064
-4 -2 9 -0.4733 0.0124
-4 -2 10 0.2231 -0.0145
-4 -2 11 2.0131 0.0040
-4 -2 12 -3.0465 0.0103
-4 -2 13 2.9084 -0.0043
-4 -2 14 -2.3375 -0.0060
-4 -2 15 1.1420 -0.0071
-4 -2 16 -0.2143 0.0067
-4 -2 17 0.2315 0.0330
-4 -1 1 -0.1418 -0.0062
-4 -1 2 -0.1599 0.0037
-4 -1 3 1.2043 0.0058
-4 -1 4 -0.8765 -0.0083
-4 -1 5 -1.1495 -0.0004
-4 -1 6 3.9592 0.0040
-4 -1 7 -4.7182 0.0004
-4 -1 8 1.9158 0.0002
-4 -1 9 0.6207 -0.0058
-4 -1 10 0.2996 0.0008
-4 -1 11 -2.2136 0.0123
-4 -1 12 2.5179 -0.0089
-4 -1 13 -1.7285 -0.0056
-4 -1 14 0.7065 0.0041
-4 -1 15 -0.0002 -0.0119
-4 -1 16 -0.0773 0.0558
-4 -1 17 -0.0291 -0.0803
-4 0 1 2.3433 0.0084
-4 0 2 0.5652 -0.0043
-4 0 3 -1.2579 -0.0061
-4 0 4 -0.1785 0.0036
-4 0 5 1.9896 0.0037
-4 0 6 -3.2524 0.0016
-4 0 7 1.9961 -0.0089
-4 0 8 0.9180 0.0045
-4 0 9 -1.5051 0.0003
-4 0 10 -0.3248 0.0030
-4 0 11 1.4030 -0.0018
-4 0 12 -0.9755 -0.0017
-4 0 13 0.1624 -0.0080
-4 0 14 0.3372 0.0052
-4 0 15 -0.4769 0.0353
-4 0 16 0.5849 -0.0591
-4 1 1 -1.6174 -0.0158
-4 1 2 -2.1751 0.0071
-4 1 3 2.4345 0.0048
-4 1 4 -1.4629 -0.0030
-4 1 5 0.7012 0.0009
-4 1 6 -1.0122 -0.0035
-4 1 7 2.5839 0.0002
-4 1 8 -2.8480 0.0043
-4 1 9 0.9085 -0.0044
-4 1 10 0.6766 0.0078
-4 1 11 -0.7679 -0.0061
-4 1 12 0.3523 -0.0140
-4 1 13 -0.0351 0.0227
-4 1 14 -0.2676 0.0082
-4 1 15 0.8771 -0.0277
-4 1 16 -1.1496 -0.0092
-4 2 1 -3.8851 0.0166
-4 2 2 6.0442 -0.0032
-4 2 3 -5.2174 -0.0038
-4 2 4 3.6170 0.0026
-4 2 5 -2.9926 -0.0015
-4 2 6 3.8041 -0.0036
-4 2 7 -3.6708 0.0050
-4 2 8 1.3719 0.0013
-4 2 9 0.5493 0.0019
-4 2 10 -0.8189 -0.0085
-4 2 11 0.7087 -0.0052
-4 2 12 -0.6518 0.0162
-4 2 13 0.2907 0.0038
-4 2 14 0.6597 -0.0124
-4 2 15 -1.7124 -0.0291
-4 3 1 7.4445 -0.0024
-4 3 3 5.1540 -0.0048
-4 3 4 -2.5183 -0.0006
-4 3 6 -3.0410 -0.0002
-4 3 7 1.6037 0.0093
-4 3 8 0.2021 -0.0099
-4 3 9 -0.3756 -0.0051
-4 3 10 0.2756 0.0046
-4 3 11 -0.4541 0.0021
-4 3 12 0.1728 0.0108
-4 3 13 0.5849 -0.0051
-4 3 14 -1.6705 -0.0431
-4 3 15 1.9266 0.0746
-4 4 1 -6.3659 -0.0022
-4 4 3 -2.3274 0.0073
-4 4 6 0.7688 0.0037
-4 4 7 -0.0952 -0.0069
-4 4 8 0.2707 -0.0068
-4 4 9 -0.5028 0.0091
-4 4 10 0.1148 0.0004
-4 4 11 -0.3570 0.0114
-4 4 12 0.9703 -0.0065
-4 4 13 -1.3093 -0.0385
-4 4 14 1.4882 0.0483
-4 5 1 4.8379 -0.0074
-4 5 6 0.9890 0.0060
-4 5 7 0.1201 -0.0112
-4 5 8 -0.7269 0.0089
-4 5 9 0.1331 0.0125
-4 5 10 -0.1447 -0.0033
-4 5 11 1.0602 -0.0131
-4 5 12 -1.1252 -0.0131
-4 5 13 0.6115 -0.0019
-4 5 14 -0.2351 0.0868
-4 6 1 -2.9494 0.0003
-4 6 5 2.9868 0.0106
-4 6 6 -0.8680 -0.0042
-4 6 7 -0.3161 0.0028
-4 6 8 -0.1895 0.0210
-4 6 9 0.6439 -0.0221
-4 6 10 0.3863 -0.0118
-4 6 11 -1.0224 0.0046
-4 6 12 0.3495 -0.0133
-4 6 13 0.1559 0.1189
-4 7 1 0.0059 0.0184
-4 7 5 -1.0736 0.0080
-4 7 6 0.1052 -0.0067
-4 7 7 -0.5773 0.0122
-4 7 8 1.2538 -0.0188
-4 7 9 -0.5784 -0.0129
-4 7 10 -0.4929 0.0131
-4 7 11 0.3871 0.0133
-4 7 12 0.1024 0.0571
-4 8 1 1.2290 -0.0160
-4 8 5 -0.2712 -0.0119
-4 8 6 -0.9647 -0.0034
-4 8 7 1.7557 0.0018
-4 8 8 -1.3898 -0.0224
-4 8 9 0.5943 0.0281
-4 8 10 -0.3053 0.0215
-4 8 11 0.3404 -0.0010
-4 9 1 -1.4935 0.0006
-4 9 4 -1.0371 -0.0102
-4 9 5 -0.7698 -0.0109
-4 9 6 1.9376 0.0078
-4 9 7 -1.6610 -0.0103
-4 9 8 1.4068 0.0257
-4 9 9 -1.5276 0.0155
-4 9 10 1.1997 -0.0256
-4 9 11 -0.4662 -0.0721
-4 10 1 2.4328 0.0043
-4 10 4 0.0262 -0.0137
-4 10 5 1.2502 0.0017
-4 10 6 -1.0775 0.0268
-4 10 7 0.9888 -0.0098
-4 10 8 -1.7902 0.0224
-4 10 9 1.8089 -0.0574
-4 10 10 -0.6744 -0.0200
-4 11 3 0.6555 -0.0146
-4 11 4 0.1302 0.0104
-4 11 5 -0.2500 0.0404
-4 11 6 0.0280 -0.0344
-4 11 7 -0.7823 0.0077
-4 11 8 1.2955 -0.0516
-4 12 2 0.7877 -0.0062
-4 12 3 -0.6431 0.0226
-4 12 4 0.1792 0.0157
-4 12 5 -0.0903 -0.0187
-4 12 6 -0.2302 -0.0449
-4 12 7 0.4718 0.0400
-4 13 1 0.3473 0.0021
-4 13 2 -0.7911 0.0136
-4 13 3 0.5338 0.0012
-4 13 4 0.1773 -0.0048
-4 13 5 -0.8796 -0.0685
-4 13 6 0.7795 0.1215
-4 14 1 -0.4046 0.0004
-4 14 2 0.7935 0.0241
-4 14 3 -0.2217 -0.0349
-4 14 4 -1.1926 -0.0190
-4 14 5 1.6827 0.0886
-4 15 1 0.5004 0.0534
-4 15 2 -0.5572 -0.0921
-4 15 3 -0.4847 0.0570
-4 16 1 -0.0911 -0.1280
-3 -15 5 0.5851 0.0345
-3 -15 6 -0.4084 0.0219
-3 -15 7 1.4553 -0.0161
-3 -15 8 -2.3567 0.0006
-3 -15 9 1.8532 -0.0048
-3 -15 10 -0.4771 -0.0121
-3 -15 11 -0.6797 0.0515
-3 -15 12 1.0551 -0.0687
-3 -14 2 1.1718 -0.0619
-3 -14 3 -1.8845 -0.0253
-3 -14 4 0.9130 0.0372
-3 -14 5 0.5638 0.0048
-3 -14 6 -0.1500 -0.0101
-3 -14 7 -1.3411 -0.0048
-3 -14 8 1.6638 -0.0051
-3 -14 9 -0.9502 0.0112
-3 -14 10 0.2448 0.0126
-3 -14 11 0.3205 -0.0427
-3 -14 12 -0.3927 0.0418
-3 -14 13 -0.1308 -0.0014
-3 -14 14 0.2083 -0.0369
-3 -13 1 -0.7459 -0.0818
-3 -13 2 -0.0604 0.0157
-3 -13 3 0.0245 0.0124
-3 -13 4 1.7507 0.0061
-3 -13 5 -2.3138 -0.0057
-3 -13 6 0.6895 -0.0147
-3 -13 7 0.4146 0.0089
-3 -13 8 -0.1539 0.0109
-3 -13 9 -0.0257 -0.0150
-3 -13 10 -0.0114 0.0015
-3 -13 11 -0.0263 0.0168
-3 -13 12 -0.3050 -0.0094
-3 -13 13 0.4275 -0.0235
-3 -13 14 0.5428 0.0314
-3 -13 15 -1.7400 -0.0149
-3 -12 1 1.9803 0.0093
-3 -12 2 -1.0336 0.0127
-3 -12 3 1.7683 0.0031
-3 -12 4 -2.8947 -0.0089
-3 -12 5 1.8794 -0.0088
-3 -12 6 -0.3734 0.0102
-3 -12 7 0.3539 0.0009
-3 -12 8 -0.7336 -0.0041
-3 -12 9 0.7341 0.0072
-3 -12 10 -0.7929 -0.0008
-3 -12 11 0.5837 -0.0105
-3 -12 12 -0.0442 -0.0074
-3 -12 13 0.1388 0.0268
-3 -12 14 -1.1060 -0.0055
-3 -12 15 2.1050 -0.0113
-3 -12 16 -2.4138 -0.0065
-3 -11 1 -0.4372 0.0222
-3 -11 2 -0.0152 -0.0101
-3 -11 3 -0.9923 -0.0040
-3 -11 4 1.1620 -0.0023
-3 -11 5 -0.3001 0.0003
-3 -11 6 0.0755 0.0090
-3 -11 7 -0.2649 0.0021
-3 -11 8 0.2924 -0.0095
-3 -11 9 -0.6221 0.0027
-3 -11 10 1.0323 -0.0091
-3 -11 11 -0.9222 0.0064
-3 -11 12 0.4565 0.0202
-3 -11 13 -0.0217 -0.0188
-3 -11 14 0.0093 -0.0069
-3 -11 15 -0.6356 0.0009
-3 -11 16 1.3238 0.0121
-3 -11 17 -1.3741 0.0058
-3 -10 1 -2.1555 -0.0033
-3 -10 2 1.8626 -0.0062
-3 -10 3 -1.3174 -0.0004
-3 -10 4 1.0666 0.0026
-3 -10 5 -0.5624 0.0132
-3 -10 6 0.4003 -0.0094
-3 -10 7 -0.8785 -0.0088
-3 -10 8 0.9750 0.0040
-3 -10 9 -0.4780 0.0013
-3 -10 10 -0.0943 0.0071
-3 -10 11 0.4963 0.0026
-3 -10 12 -0.1636 -0.0115
-3 -10 13 -0.8777 -0.0053
-3 -10 14 1.3344 0.0055
-3 -10 15 -0.6465 0.0141
-3 -10 16 -0.3371 -0.0064
-3 -10 17 0.7579 -0.0091
-3 -9 1 2.5589 -0.0161
-3 -9 2 -2.8437 0.0070
-3 -9 3 2.8704 0.0094
-3 -9 4 -1.6823 -0.0026
-3 -9 5 0.6119 -0.0084
-3 -9 6 -0.8600 -0.0013
-3 -9 7 1.3121 0.0018
-3 -9 8 -1.3458 0.0108
-3 -9 9 1.2127 -0.0061
-3 -9 10 -0.4958 -0.0018
-3 -9 11 -0.2766 0.0028
-3 -9 12 -0.0821 -0.0173
-3 -9 13 0.8440 0.0233
-3 -9 14 -0.7554 -0.0028
-3 -9 15 0.0825 -0.0034
-3 -9 16 0.4823 -0.0062
-3 -9 17 -0.4287 -0.0054
-3 -8 1 -1.0747 0.0089
-3 -8 2 2.1827 0.0053
-3 -8 3 -1.6786 -0.0128
-3 -8 4 0.2630 0.0031
-3 -8 5 -0.0858 -0.0026
-3 -8 6 0.5313 0.0065
-3 -8 7 -0.7592 0.0029
-3 -8 8 1.2328 -0.0078
-3 -8 9 -1.1502 0.0035
-3 -8 10 0.0764 -0.0028
-3 -8 11 0.3837 -0.0067
-3 -8 12 -0.0622 0.0193
-3 -8 13 0.3854 -0.0108
-3 -8 14 -1.0347 0.0032
-3 -8 15 1.0920 -0.0118
-3 -8 16 -0.7980 0.0026
-3 -8 17 0.1873 0.0142
-3 -7 1 -0.6189 -0.0043
-3 -7 2 0.3074 -0.0019
-3 -7 3 -1.3128 0.0010
-3 -7 4 1.2489 -0.0009
-3 -7 5 -0.2082 0.0078
-3 -7 6 -0.5135 -0.0069
-3 -7 7 1.4306 0.0020
-3 -7 8 -1.9134 -0.0004
-3 -7 9 0.6978 -0.0077
-3 -7 10 0.3659 0.0140
-3 -7 11 0.1622 -0.0071
-3 -7 12 -0.1269 0.0039
-3 -7 13 -1.2301 -0.0058
-3 -7 14 1.7294 -0.0035
-3 -7 15 -1.0478 0.0072
-3 -7 16 0.5971 0.0054
-3 -7 17 -0.3529 -0.0007
-3 -7 18 0.0362 -0.0250
-3 -6 1 1.3351 0.0100
-3 -6 2 -2.3773 -0.0073
-3 -6 3 2.7625 0.0044
-3 -6 4 -1.6828 0.0027
-3 -6 5 0.5737 -0.0041
-3 -6 6 0.9498 0.0008
-3 -6 7 -2.6177 -0.0029
-3 -6 8 1.9396 0.0007
-3 -6 9 0.1122 0.0107
-3 -6 10 0.1846 -0.0146
-3 -6 11 -1.7277 0.0081
-3 -6 12 0.9192 -0.0048
-3 -6 13 0.8849 0.0043
-3 -6 14 -0.7886 -0.0021
-3 -6 15 0.0962 0.0016
-3 -6 16 -0.4783 0.0014
-3 -6 17 0.7681 -0.0156
-3 -6 18 -0.4446 0.0291
-3 -5 1 -1.2693 0.0017
-3 -5 2 2.6533 -0.0027
-3 -5 3 -2.7291 0.0047
-3 -5 4 2.3740 -0.0015
-3 -5 5 -1.2934 -0.0070
-3 -5 6 -1.3368 0.0046
-3 -5 7 2.7621 0.0065
-3 -5 8 -0.9204 -0.0077
-3 -5 9 -0.4491 0.0003
-3 -5 10 -1.5097 -0.0014
-3 -5 11 2.9834 0.0092
-3 -5 12 -1.2642 -0.0061
-3 -5 13 -0.2172 -0.0056
-3 -5 14 -0.2912 0.0060
-3 -5 15 0.1386 0.0034
-3 -5 16 0.8612 -0.0118
-3 -5 17 -0.6819 0.0290
-3 -5 18 0.0639 -0.0491
-3 -4 1 1.3458 -0.0156
-3 -4 2 -1.9235 0.0104
-3 -4 3 1.7012 -0.0040
-3 -4 4 -1.0123 -0.0078
-3 -4 5 -0.9926 0.0110
-3 -4 6 3.5680 0.0022
-3 -4 7 -3.4574 -0.0150
-3 -4 8 0.5167 0.0115
-3 -4 9 0.5047 -0.0024
-3 -4 10 1.6109 0.0056
-3 -4 11 -2.2659 -0.0087
-3 -4 12 0.5991 -0.0034
-3 -4 13 -0.1532 0.0092
-3 -4 14 0.4111 0.0010
-3 -4 15 0.6897 -0.0041
-3 -4 16 -1.2228 0.0131
-3 -4 17 0.3321 -0.0501
-3 -3 1 -0.1412 0.0022
-3 -3 2 -0.2877 -0.0001
-3 -3 4 -4.2623 0.0093
-3 -3 5 5.7993 -0.0041
-3 -3 6 -6.6953 -0.0060
-3 -3 7 4.5528 0.0072
-3 -3 8 0.0985 0.0026
-3 -3 9 -1.8242 -0.0068
-3 -3 10 0.0567 0.0017
-3 -3 11 0.6655 -0.0044
-3 -3 12 -0.3659 0.0075
-3 -3 13 0.8032 0.0017
-3 -3 14 -0.2184 0.0024
-3 -3 15 -1.1094 -0.0145
-3 -3 16 0.9312 -0.0119
-3 -3 17 -0.4394 0.0477
-3 -2 1 -0.9771 0.0079
-3 -2 2 1.6748 -0.0001
-3 -2 3 -5.0123 0.0004
-3 -2 4 6.0467 -0.0023
-3 -2 5 -6.1259 0.0029
-3 -2 6 6.9205 -0.0036
-3 -2 7 -3.9255 0.0058
-3 -2 8 -1.7306 -0.0053
-3 -2 9 3.1057 -0.0003
-3 -2 10 -0.8939 0.0005
-3 -2 11 -0.4979 0.0013
-3 -2 12 1.4064 0.0079
-3 -2 13 -1.7870 -0.0046
-3 -2 14 0.6096 -0.0207
-3 -2 15 0.2459 0.0174
-3 -2 16 -0.1932 0.0123
-3 -2 17 0.6138 0.0025
-3 -1 1 -3.5209 0.0086
-3 -1 2 1.3693 -0.0108
-3 -1 3 1.4713 0.0044
-3 -1 4 -0.4133 0.0012
-3 -1 5 2.1002 -0.0049
-3 -1 6 -5.1087 0.0053
-3 -1 7 2.1302 -0.0001
-3 -1 8 2.4438 -0.0073
-3 -1 9 -2.1967 0.0066
-3 -1 10 0.1235 -0.0005
-3 -1 11 1.0778 0.0067
-3 -1 12 -2.0623 -0.0120
-3 -1 13 1.9142 -0.0047
-3 -1 14 -0.9284 0.0091
-3 -1 15 0.5592 0.0114
-3 -1 16 -0.2317 0.0050
-3 -1 17 -0.1229 -0.0565
-3 0 1 9.8296 -0.0134
-3 0 2 -4.1505 0.0037
-3 0 3 3.2684 0.0013
-3 0 4 -4.3191 0.0011
-3 0 5 -0.2532 -0.0016
-3 0 6 3.3399 0.0003
-3 0 7 -0.5402 -0.0014
-3 0 8 -1.3513 -0.0002
-3 0 9 0.4068 0.0062
-3 0 10 0.2267 -0.0033
-3 0 11 -0.7604 -0.0057
-3 0 12 1.2193 0.0022
-3 0 13 -0.6815 -0.0019
-3 0 14 0.1417 0.0183
-3 0 15 -0.1120 -0.0050
-3 0 16 0.3073 -0.0482
-3 1 2 1.9824 0.0066
-3 1 3 -3.4541 0.0025
-3 1 4 3.3685 -0.0094
-3 1 5 0.6314 0.0029
-3 1 6 -1.6210 0.0070
-3 1 7 0.6372 -0.0107
-3 1 8 -0.8772 0.0087
-3 1 9 0.6657 -0.0019
-3 1 10 -0.1535 -0.0038
-3 1 11 0.4228 -0.0011
-3 1 12 -0.2197 0.0042
-3 1 13 -0.5600 0.0050
-3 1 14 0.8972 0.0043
-3 1 15 -0.4670 -0.0423
-3 1 16 -0.5275 0.0531
-3 2 3 0.7596 -0.0117
-3 2 4 -0.1612 0.0066
-3 2 5 -1.4273 0.0054
-3 2 6 2.3715 -0.0104
-3 2 7 -3.4189 0.0031
-3 2 8 2.8609 0.0105
-3 2 9 -1.1756 -0.0134
-3 2 10 0.8131 -0.0004
-3 2 11 -0.9493 0.0099
-3 2 12 0.3501 -0.0041
-3 2 13 0.4221 0.0075
-3 2 14 -0.7676 -0.0249
-3 2 15 0.1417 0.0152
-3 3 2 -3.4279 -0.0078
-3 3 4 -2.9566 0.0025
-3 3 5 3.3766 -0.0017
-3 3 6 -5.0094 -0.0030
-3 3 7 4.7931 0.0128
-3 3 8 -2.2178 -0.0134
-3 3 9 0.8908 -0.0050
-3 3 10 -1.1516 0.0143
-3 3 11 1.2040 0.0000
-3 3 12 -0.9869 -0.0087
-3 3 13 0.3956 0.0078
-3 3 14 0.0978 -0.0305
-3 3 15 0.1807 0.0683
-3 4 4 3.2573 0.0024
-3 4 5 -3.3420 -0.0059
-3 4 6 3.6638 0.0045
-3 4 7 -1.4627 -0.0028
-3 4 8 -0.3089 -0.0123
-3 4 9 0.1942 0.0188
-3 4 10 0.0263 0.0032
-3 4 11 -0.5037 -0.0157
-3 4 12 0.9923 0.0113
-3 4 13 -0.3877 -0.0320
-3 4 14 -0.0968 0.0570
-3 5 3 2.0853 0.0005
-3 5 4 0.2210 -0.0030
-3 5 5 0.1344 -0.0068
-3 5 6 0.4955 0.0051
-3 5 7 -1.5321 -0.0050
-3 5 8 1.2672 0.0079
-3 5 9 -1.3900 0.0115
-3 5 10 1.4260 -0.0154
-3 5 11 -0.1014 -0.0156
-3 5 12 -0.4390 0.0142
-3 5 13 -0.2894 0.0091
-3 5 14 0.4317 0.0247
-3 6 3 1.9815 -0.0029
-3 6 4 -1.7082 -0.0160
-3 6 5 0.8391 0.0138
-3 6 6 -0.8946 0.0061
-3 6 7 0.5757 -0.0092
-3 6 8 -1.0313 0.0178
-3 6 9 2.2716 -0.0187
-3 6 10 -1.5268 -0.0264
-3 6 11 -0.1249 0.0430
-3 6 12 -0.0122 -0.0013
-3 6 13 0.6619 0.0180
-3 7 2 0.9597 -0.0103
-3 7 4 -0.8410 0.0163
-3 7 5 1.3659 0.0098
-3 7 6 -1.2186 -0.0152
-3 7 7 0.3465 0.0039
-3 7 8 1.5965 -0.0045
-3 7 9 -2.1251 -0.0223
-3 7 10 0.4686 0.0339
-3 7 11 0.4059 0.0380
-3 7 12 0.2054 -0.0718
-3 8 1 -1.0244 -0.0049
-3 8 3 -1.4569 0.0060
-3 8 4 2.3606 0.0135
-3 8 5 -2.2754 -0.0197
-3 8 6 1.2457 -0.0103
-3 8 7 0.4342 0.0195
-3 8 8 -1.4652 -0.0220
-3 8 9 0.7665 0.0217
-3 8 10 0.2720 0.0627
-3 8 11 -0.2968 -0.1514
-3 9 1 1.0486 -0.0018
-3 9 2 -0.3241 0.0052
-3 9 3 1.0672 0.0080
-3 9 4 -1.8819 -0.0209
-3 9 5 1.3405 -0.0064
-3 9 6 -0.3147 0.0208
-3 9 7 0.0475 -0.0083
-3 9 8 -0.3503 0.0102
-3 9 9 0.4650 0.0427
-3 9 10 -0.3746 -0.1506
-3 10 1 -0.1221 0.0166
-3 10 2 0.2236 -0.0103
-3 10 3 -1.5435 -0.0090
-3 10 4 1.5512 -0.0014
-3 10 5 -0.3962 0.0086
-3 10 6 0.5907 0.0166
-3 10 7 -1.6843 -0.0077
-3 10 8 1.5215 -0.0021
-3 10 9 -0.5915 -0.0732
-3 11 1 0.9207 -0.0147
-3 11 2 -1.8241 -0.0040
-3 11 3 2.2312 0.0032
-3 11 4 -0.5987 0.0032
-3 11 5 -0.2689 0.0261
-3 11 6 -1.0200 -0.0197
-3 11 7 1.6856 -0.0467
-3 11 8 -0.7141 0.0439
-3 12 1 -0.8287 -0.0110
-3 12 2 1.7149 0.0107
-3 12 3 -1.0196 0.0053
-3 12 4 -0.5172 0.0145
-3 12 5 0.3456 -0.0232
-3 12 6 0.5047 -0.0546
-3 12 7 -0.1685 0.1214
-3 13 1 -0.5992 0.0028
-3 13 2 -0.4610 0.0183
-3 13 3 0.3003 -0.0101
-3 13 4 -0.0473 -0.0156
-3 13 5 0.1728 -0.0244
-3 13 6 0.0940 0.1004
-3 14 1 0.6235 0.0234
-3 14 2 0.5766 -0.0147
-3 14 3 -1.1569 -0.0142
-3 14 4 1.0894 0.0020
-3 15 1 0.2991 0.0277
-3 15 2 -1.0816 -0.0634
-3 15 3 1.3366 0.0407
-3 16 1 -0.4658 -0.1204
-2 -16 6 -0.2141 0.0447
-2 -16 7 -0.1315 -0.0147
-2 -16 8 0.6344 0.0054
-2 -16 9 -1.3019 -0.0016
-2 -16 10 1.7621 0.0117
-2 -16 11 -1.4281 -0.0374
-2 -15 2 -0.6538 -0.0527
-2 -15 3 1.3834 -0.0052
-2 -15 4 -1.2103 -0.0125
-2 -15 5 0.3770 0.0243
-2 -15 6 0.2038 0.0019
-2 -15 7 -0.0905 -0.0037
-2 -15 8 -0.4617 -0.0139
-2 -15 9 1.0526 0.0192
-2 -15 10 -1.1508 -0.0239
-2 -15 11 0.3887 0.0154
-2 -15 12 0.4303 0.0260
-2 -15 13 -0.2362 -0.0672
-2 -14 1 1.2834 -0.0625
-2 -14 2 -0.4681 0.0075
-2 -14 3 -0.7699 0.0058
-2 -14 4 0.9318 0.0059
-2 -14 5 0.0538 0.0161
-2 -14 6 -0.5845 -0.0276
-2 -14 7 0.2367 0.0015
-2 -14 8 0.1957 0.0167
-2 -14 9 -0.3575 -0.0145
-2 -14 10 -0.1295 0.0027
-2 -14 11 1.1767 0.0249
-2 -14 12 -1.2908 -0.0537
-2 -14 13 0.1180 0.0545
-2 -14 14 0.4330 -0.0120
-2 -14 15 0.3036 -0.0573
-2 -13 1 -1.6806 -0.0010
-2 -13 2 0.5472 0.0114
-2 -13 3 1.0065 0.0089
-2 -13 4 -0.6166 -0.0037
-2 -13 5 -0.6203 -0.0191
-2 -13 6 0.7978 0.0111
-2 -13 7 -0.4448 0.0077
-2 -13 8 0.1919 -0.0100
-2 -13 9 -0.0968 0.0021
-2 -13 10 0.7442 0.0135
-2 -13 11 -1.5104 -0.0249
-2 -13 12 1.0930 0.0188
-2 -13 13 -0.4034 0.0028
-2 -13 14 0.7702 -0.0463
-2 -13 15 -1.3782 0.0885
-2 -13 16 1.3745 -0.0676
-2 -12 1 0.5230 0.0154
-2 -12 2 0.9311 0.0055
-2 -12 3 -1.5097 -0.0212
-2 -12 4 0.1663 0.0060
-2 -12 5 0.8361 0.0020
-2 -12 6 -0.9853 0.0048
-2 -12 7 0.9920 -0.0067
-2 -12 8 -0.4848 0.0059
-2 -12 9 -0.0962 0.0011
-2 -12 10 -0.0395 -0.0081
-2 -12 11 0.2985 -0.0027
-2 -12 12 -0.6471 0.0126
-2 -12 13 1.6672 -0.0144
-2 -12 14 -2.3766 0.0319
-2 -12 15 1.9117 -0.0321
-2 -12 16 -1.1077 -0.0246
-2 -11 1 -0.3239 -0.0090
-2 -11 2 -0.6919 -0.0087
-2 -11 3 0.4086 0.0064
-2 -11 4 0.2119 0.0017
-2 -11 5 -0.3933 0.0001
-2 -11 6 0.9177 0.0017
-2 -11 7 -1.1151 0.0001
-2 -11 8 0.3030 -0.0036
-2 -11 9 0.6136 -0.0027
-2 -11 10 -1.1376 -0.0023
-2 -11 11 0.8714 0.0132
-2 -11 12 0.7926 0.0040
-2 -11 13 -2.4475 -0.0216
-2 -11 14 2.2540 0.0148
-2 -11 15 -0.9345 -0.0285
-2 -11 16 -0.2098 0.0612
-2 -11 17 1.0301 -0.0534
-2 -10 1 1.9895 0.0103
-2 -10 2 -1.2975 -0.0032
-2 -10 3 0.6413 0.0064
-2 -10 4 0.2200 -0.0023
-2 -10 5 -0.0510 0.0047
-2 -10 6 -0.8089 -0.0101
-2 -10 7 0.8447 0.0028
-2 -10 8 -0.1752 -0.0009
-2 -10 9 -0.7498 0.0011
-2 -10 10 1.5254 0.0132
-2 -10 11 -0.8283 -0.0088
-2 -10 12 -0.9468 -0.0216
-2 -10 13 1.4724 0.0302
-2 -10 14 -0.4718 -0.0199
-2 -10 15 -0.6775 0.0193
-2 -10 16 1.6179 -0.0104
-2 -10 17 -1.9564 -0.0015
-2 -9 1 -2.1474 0.0023
-2 -9 2 1.3137 -0.0027
-2 -9 3 -0.1405 0.0068
-2 -9 4 -0.0121 -0.0085
-2 -9 5 -0.8780 -0.0039
-2 -9 6 1.0973 0.0066
-2 -9 7 -0.5669 -0.0010
-2 -9 8 -0.0496 0.0031
-2 -9 9 0.9321 0.0059
-2 -9 10 -1.2012 -0.0203
-2 -9 11 0.1632 0.0102
-2 -9 12 0.4916 0.0058
-2 -9 13 0.1819 -0.0046
-2 -9 14 -0.9902 -0.0022
-2 -9 15 1.6130 0.0157
-2 -9 16 -2.1790 -0.0205
-2 -9 17 1.7167 -0.0217
-2 -8 1 -0.1558 -0.0114
-2 -8 2 0.6853 0.0072
-2 -8 3 -0.2443 -0.0126
-2 -8 4 -1.2356 0.0068
-2 -8 5 1.7277 0.0014
-2 -8 6 -0.8311 0.0017
-2 -8 7 -0.0941 0.0021
-2 -8 8 0.8577 -0.0090
-2 -8 9 -1.2564 0.0002
-2 -8 10 0.4241 0.0108
-2 -8 11 0.5089 -0.0125
-2 -8 12 0.0173 0.0112
-2 -8 13 -0.9037 -0.0059
-2 -8 14 1.1469 0.0076
-2 -8 15 -1.5988 -0.0150
-2 -8 16 1.8916 -0.0163
-2 -8 17 -0.9260 0.0771
-2 -8 18 -0.2362 -0.0834
-2 -7 1 2.0945 -0.0085
-2 -7 2 -1.6732 0.0058
-2 -7 3 -0.2676 -0.0004
-2 -7 4 1.7120 0.0016
-2 -7 5 -1.5096 0.0033
-2 -7 6 0.6329 -0.0044
-2 -7 7 0.3815 -0.0095
-2 -7 8 -1.3230 0.0200
-2 -7 9 0.9238 -0.0147
-2 -7 10 0.5852 0.0012
-2 -7 11 -0.7816 0.0103
-2 -7 12 -0.4627 -0.0085
-2 -7 13 0.9134 0.0010
-2 -7 14 -0.7346 -0.0043
-2 -7 15 1.2559 -0.0030
-2 -7 16 -1.3504 0.0387
-2 -7 17 0.3003 -0.0553
-2 -7 18 0.2760 0.0203
-2 -6 1 -1.4979 0.0131
-2 -6 2 -0.1554 -0.0035
-2 -6 3 2.0758 0.0015
-2 -6 4 -2.7965 0.0020
-2 -6 5 2.3948 -0.0077
-2 -6 6 -1.0419 0.0031
-2 -6 7 -1.0726 0.0085
-2 -6 8 2.3223 -0.0131
-2 -6 9 -1.1598 0.0073
-2 -6 10 -0.5004 0.0020
-2 -6 11 -0.1225 -0.0048
-2 -6 12 1.4988 0.0006
-2 -6 13 -1.2057 -0.0008
-2 -6 14 0.7473 0.0044
-2 -6 15 -1.1785 0.0002
-2 -6 16 0.7869 -0.0028
-2 -6 17 0.0380 -0.0152
-2 -6 18 0.3238 0.0392
-2 -5 1 -0.7954 0.0125
-2 -5 2 3.2300 -0.0099
-2 -5 3 -4.8712 0.0040
-2 -5 4 4.5582 -0.0035
-2 -5 5 -2.0097 0.0049
-2 -5 6 -1.6438 -0.0056
-2 -5 7 4.7924 0.0069
-2 -5 8 -5.3698 -0.0089
-2 -5 9 2.7706 0.0073
-2 -5 10 -0.7401 0.0005
-2 -5 11 1.8806 -0.0069
-2 -5 12 -2.8988 0.0062
-2 -5 13 1.9163 -0.0033
-2 -5 14 -1.3436 -0.0031
-2 -5 15 1.0667 0.0168
-2 -5 16 0.0955 -0.0302
-2 -5 17 -0.1836 0.0418
-2 -5 18 -0.8853 -0.0556
-2 -4 1 -0.3406 -0.0080
-2 -4 2 -3.2896 -0.0027
-2 -4 3 5.2278 0.0060
-2 -4 4 -2.1179 -0.0049
-2 -4 5 -3.1109 -0.0008
-2 -4 6 6.5122 0.0073
-2 -4 7 -8.2239 -0.0106
-2 -4 8 7.1254 0.0089
-2 -4 9 -3.1804 0.0022
-2 -4 10 1.6353 -0.0128
-2 -4 11 -3.5165 0.0106
-2 -4 12 3.9089 -0.0075
-2 -4 13 -2.5523 0.0068
-2 -4 14 1.6765 0.0057
-2 -4 15 -0.2346 -0.0158
-2 -4 16 -0.8609 0.0118
-2 -4 17 -0.2029 -0.0224
-2 -3 1 4.5665 -0.0247
-2 -3 2 2.6939 0.0185
-2 -3 3 -2.7069 -0.0105
-2 -3 4 -4.1519 0.0034
-2 -3 5 7.0246 0.0013
-2 -3 6 -5.9120 0.0020
-2 -3 7 6.1657 -0.0050
-2 -3 8 -4.7529 0.0062
-2 -3 9 1.6801 -0.0082
-2 -3 10 -2.4448 0.0020
-2 -3 11 4.7065 0.0046
-2 -3 12 -3.9673 0.0005
-2 -3 13 2.2803 -0.0005
-2 -3 14 -0.7481 -0.0024
-2 -3 15 -0.9288 -0.0118
-2 -3 16 0.4460 0.0134
-2 -3 17 1.1637 0.0176
-2 -2 3 -1.0242 -0.0042
-2 -2 4 8.9826 0.0081
-2 -2 5 -4.5062 -0.0007
-2 -2 6 0.2888 -0.0104
-2 -2 7 -1.5823 0.0084
-2 -2 8 1.0697 0.0008
-2 -2 9 -0.6626 -0.0102
-2 -2 10 3.5520 0.0158
-2 -2 11 -4.5471 -0.0080
-2 -2 12 2.5321 -0.0004
-2 -2 13 -0.6092 0.0012
-2 -2 14 -1.1668 -0.0141
-2 -2 15 1.4820 0.0198
-2 -2 16 0.5822 0.0146
-2 -2 17 -1.5939 -0.0407
-2 -1 4 -10.0790 -0.0087
-2 -1 5 -0.7551 -0.0024
-2 -1 6 3.7469 0.0054
-2 -1 7 -1.7887 0.0042
-2 -1 8 1.7194 -0.0124
-2 -1 9 0.5688 0.0123
-2 -1 10 -3.4293 -0.0022
-2 -1 11 2.5179 -0.0066
-2 -1 12 -0.3794 0.0030
-2 -1 13 -1.3344 -0.0066
-2 -1 14 2.5706 0.0139
-2 -1 15 -1.4658 0.0125
-2 -1 16 -0.5635 -0.0450
-2 -1 17 0.9136 0.0284
-2 0 1 28.9969 -0.0071
-2 0 2 -5.2262 0.0010
-2 0 3 -12.6320 -0.0012
-2 0 4 4.3804 -0.0013
-2 0 5 6.2624 0.0046
-2 0 6 -6.2310 -0.0002
-2 0 7 4.7237 -0.0040
-2 0 8 -2.9483 0.0011
-2 0 9 -0.8512 0.0069
-2 0 10 2.0234 -0.0109
-2 0 11 -0.6637 0.0007
-2 0 12 -0.4061 0.0071
-2 0 13 1.7542 0.0013
-2 0 14 -2.3726 0.0013
-2 0 15 1.2312 -0.0132
-2 0 16 -0.1983 -0.0082
-2 1 2 -0.7619 0.0076
-2 1 3 5.1441 -0.0072
-2 1 4 6.1691 0.0076
-2 1 5 -9.7720 -0.0042
-2 1 6 7.1712 0.0012
-2 1 7 -4.7327 -0.0037
-2 1 8 0.9349 0.0075
-2 1 9 1.5867 -0.0069
-2 1 10 -1.1631 -0.0025
-2 1 11 0.8638 0.0131
-2 1 12 -0.5078 -0.0099
-2 1 13 -0.7277 0.0014
-2 1 14 1.1438 0.0067
-2 1 15 -0.7431 -0.0361
-2 1 16 0.2835 0.0719
-2 2 2 -2.0736 -0.0041
-2 2 3 4.8133 0.0077
-2 2 4 -8.5550 -0.0046
-2 2 5 6.1983 -0.0026
-2 2 6 -3.4248 0.0034
-2 2 7 0.4610 0.0001
-2 2 8 1.9307 -0.0002
-2 2 9 -1.6913 -0.0015
-2 2 10 1.4088 0.0016
-2 2 11 -1.8135 -0.0002
-2 2 12 0.9569 0.0003
-2 2 13 0.2054 0.0015
-2 2 14 -0.5355 -0.0167
-2 2 15 0.3474 0.0341
-2 3 2 2.3897 0.0005
-2 3 3 -2.0328 -0.0027
-2 3 4 0.5402 -0.0049
-2 3 5 0.3341 0.0105
-2 3 6 -0.9324 -0.0058
-2 3 7 1.9825 0.0024
-2 3 8 -1.5758 -0.0020
-2 3 9 1.2160 -0.0055
-2 3 10 -1.9108 0.0118
-2 3 11 1.3199 -0.0051
-2 3 12 0.2000 -0.0024
-2 3 13 -0.8942 -0.0005
-2 3 14 0.8768 -0.0052
-2 3 15 -0.1769 0.0349
-2 4 4 3.2670 0.0081
-2 4 5 -1.0731 -0.0022
-2 4 6 0.5885 -0.0049
-2 4 7 -0.1816 -0.0005
-2 4 8 0.2253 0.0018
-2 4 9 -1.6106 0.0043
-2 4 10 1.5320 0.0035
-2 4 11 0.1979 -0.0109
-2 4 12 -0.9886 -0.0030
-2 4 13 1.0318 0.0049
-2 4 14 -0.6812 0.0319
-2 5 3 2.6834 0.0010
-2 5 4 0.3455 0.0042
-2 5 5 -1.1638 -0.0142
-2 5 6 1.0987 0.0067
-2 5 7 -0.8894 0.0068
-2 5 8 -0.8865 -0.0033
-2 5 9 1.6490 0.0070
-2 5 10 -0.1116 -0.0176
-2 5 11 -0.4102 -0.0027
-2 5 12 -0.2456 0.0222
-2 5 13 0.1747 0.0100
-2 6 3 0.8899 0.0053
-2 6 4 -1.2724 -0.0100
-2 6 5 0.4780 0.0058
-2 6 6 -0.5477 0.0102
-2 6 7 -0.3559 -0.0030
-2 6 8 1.3295 -0.0096
-2 6 9 -0.0006 -0.0024
-2 6 10 -0.6727 -0.0040
-2 6 11 -0.9342 0.0245
-2 6 12 1.5655 0.0135
-2 6 13 -0.9282 -0.0729
-2 7 2 -0.5936 0.0009
-2 7 3 0.1692 0.0050
-2 7 4 -1.1626 -0.0060
-2 7 5 1.0857 0.0175
-2 7 6 -0.8225 -0.0083
-2 7 7 1.3907 -0.0211
-2 7 8 -0.4661 0.0144
-2 7 9 -0.8741 0.0020
-2 7 10 -0.2506 0.0107
-2 7 11 1.5907 0.0225
-2 7 12 -0.9655 -0.1064
-2 8 2 0.3730 0.0148
-2 8 3 -1.2266 -0.0108
-2 8 4 1.9158 0.0132
-2 8 5 -1.6581 -0.0091
-2 8 6 1.8489 -0.0211
-2 8 7 -1.7538 0.0196
-2 8 8 0.7986 0.0193
-2 8 9 -0.8737 -0.0199
-2 8 10 1.6124 0.0247
-2 8 11 -0.9175 -0.1019
-2 9 1 -1.4438 0.0082
-2 9 2 0.5467 -0.0011
-2 9 3 1.1116 -0.0050
-2 9 4 -2.0333 0.0025
-2 9 5 2.0545 -0.0194
-2 9 6 -1.9300 0.0225
-2 9 7 2.0146 0.0218
-2 9 8 -2.5257 -0.0331
-2 9 9 2.8517 0.0004
-2 9 10 -1.8988 -0.0372
-2 10 1 1.1165 0.0088
-2 10 2 0.2574 -0.0124
-2 10 3 -1.9498 0.0064
-2 10 4 2.2027 -0.0086
-2 10 5 -0.8701 0.0142
-2 10 6 0.3006 0.0170
-2 10 7 -1.5542 -0.0268
-2 10 8 2.7503 -0.0426
-2 10 9 -2.3444 0.0765
-2 11 1 0.4886 0.0050
-2 11 2 -1.2904 -0.0093
-2 11 3 1.9763 0.0076
-2 11 4 -0.2390 0.0019
-2 11 5 -2.1161 0.0154
-2 11 6 1.7742 -0.0312
-2 11 7 0.1118 -0.0382
-2 11 8 -0.7567 0.1336
-2 12 1 0.0408 -0.0239
-2 12 2 0.5444 0.0117
-2 12 3 0.0979 0.0087
-2 12 4 -2.6937 -0.0060
-2 12 5 3.7565 -0.0199
-2 12 6 -2.2417 -0.0021
-2 12 7 0.9245 0.0811
-2 13 1 -0.9104 -0.0006
-2 13 2 0.6480 0.0198
-2 13 3 -1.9683 -0.0230
-2 13 4 3.2501 0.0041
-2 13 5 -2.4229 -0.0014
-2 14 1 0.2825 0.0154
-2 14 2 -0.7585 -0.0017
-2 14 3 1.5677 -0.0229
-2 14 4 -1.2710 0.0123
-2 15 1 0.5372 0.0212
-2 15 2 0.0110 -0.0639
-1 -16 3 0.1361 -0.0498
-1 -16 4 0.1227 0.0213
-1 -16 5 0.0565 -0.0214
-1 -16 6 0.3516 0.0085
-1 -16 7 -1.2224 0.0079
-1 -16 8 1.0242 -0.0057
-1 -16 9 0.2290 0.0125
-1 -16 10 -0.7168 -0.0122
-1 -16 11 0.1246 -0.0111
-1 -16 12 0.0177 0.0082
-1 -15 1 -0.3920 0.0311
-1 -15 2 1.1025 -0.0428
-1 -15 3 -0.9262 0.0139
-1 -15 4 0.5014 -0.0032
-1 -15 5 0.2085 0.0089
-1 -15 6 -1.4022 -0.0045
-1 -15 7 1.8931 0.0072
-1 -15 8 -0.7191 -0.0013
-1 -15 9 -0.4218 -0.0223
-1 -15 10 -0.1110 0.0228
-1 -15 11 0.6563 -0.0062
-1 -15 12 0.2469 0.0007
-1 -15 13 -0.7788 0.0229
-1 -15 14 -0.1633 -0.0686
-1 -14 1 0.1846 -0.0066
-1 -14 2 -0.9328 -0.0016
-1 -14 3 0.6489 0.0224
-1 -14 4 0.1534 -0.0161
-1 -14 5 -1.0481 0.0024
-1 -14 6 1.5732 0.0118
-1 -14 7 -0.6941 -0.0203
-1 -14 8 -0.8611 -0.0013
-1 -14 9 0.5833 0.0256
-1 -14 10 0.9998 -0.0192
-1 -14 11 -0.9530 0.0032
-1 -14 12 -0.1515 0.0160
-1 -14 13 -0.1208 -0.0500
-1 -14 14 0.8576 0.0827
-1 -14 15 -0.4433 -0.1092
-1 -13 1 0.1475 0.0008
-1 -13 2 0.2935 0.0094
-1 -13 3 0.0464 -0.0192
-1 -13 4 -0.3412 0.0120
-1 -13 5 0.4087 -0.0002
-1 -13 6 0.0756 -0.0158
-1 -13 7 -1.5365 0.0147
-1 -13 8 2.1531 0.0055
-1 -13 9 -0.6863 -0.0089
-1 -13 10 -0.4261 -0.0039
-1 -13 11 -0.0352 0.0106
-1 -13 12 -0.0661 -0.0128
-1 -13 13 0.7999 0.0136
-1 -13 14 -0.3183 -0.0336
-1 -13 15 -0.5177 0.0965
-1 -13 16 0.2494 -0.1492
-1 -12 1 0.8291 -0.0162
-1 -12 2 -1.3251 0.0044
-1 -12 3 1.6590 -0.0006
-1 -12 4 -1.9788 -0.0019
-1 -12 5 1.6676 0.0004
-1 -12 6 -1.5962 0.0040
-1 -12 7 2.0608 0.0027
-1 -12 8 -1.6312 -0.0041
-1 -12 9 0.9031 -0.0093
-1 -12 10 -1.2322 0.0149
-1 -12 11 1.0948 -0.0039
-1 -12 12 0.1361 -0.0241
-1 -12 13 -0.2736 0.0506
-1 -12 14 -0.6279 -0.0183
-1 -12 15 0.5279 -0.0678
-1 -12 16 0.1512 0.1076
-1 -12 17 -0.1725 -0.0646
-1 -11 1 -2.5372 0.0067
-1 -11 2 3.2216 -0.0071
-1 -11 3 -3.9584 0.0084
-1 -11 4 3.5439 0.0012
-1 -11 5 -2.0917 -0.0051
-1 -11 6 1.2804 0.0080
-1 -11 7 -0.9017 -0.0103
-1 -11 8 0.5690 0.0002
-1 -11 9 -1.1946 0.0084
-1 -11 10 1.6931 -0.0062
-1 -11 11 -0.6392 -0.0066
-1 -11 12 -0.1312 0.0393
-1 -11 13 -0.4614 -0.0582
-1 -11 14 0.5146 0.0159
-1 -11 15 0.2770 0.0416
-1 -11 16 -0.5115 -0.0441
-1 -11 17 0.3741 0.0146
-1 -10 1 2.0345 0.0072
-1 -10 2 -2.8138 0.0084
-1 -10 3 3.0320 -0.0045
-1 -10 4 -1.9238 -0.0044
-1 -10 5 1.0714 0.0040
-1 -10 6 -0.9096 -0.0045
-1 -10 7 0.3764 0.0010
-1 -10 8 -0.0932 0.0031
-1 -10 9 0.3347 -0.0000
-1 -10 10 0.2323 0.0039
-1 -10 11 -0.8819 -0.0068
-1 -10 12 0.1582 -0.0074
-1 -10 13 0.4810 0.0107
-1 -10 14 0.0620 0.0072
-1 -10 15 -0.4718 -0.0105
-1 -10 16 0.5353 -0.0019
-1 -10 17 -0.8198 0.0097
-1 -9 1 -0.5620 0.0036
-1 -9 2 0.9124 -0.0070
-1 -9 3 -0.1634 -0.0065
-1 -9 4 -0.2648 0.0067
-1 -9 5 -0.5938 -0.0002
-1 -9 6 0.9788 -0.0050
-1 -9 7 -0.1724 0.0100
-1 -9 8 -0.6214 -0.0040
-1 -9 9 1.3413 -0.0025
-1 -9 10 -1.8914 -0.0087
-1 -9 11 1.0854 0.0202
-1 -9 12 0.2687 -0.0184
-1 -9 13 -0.4028 0.0103
-1 -9 14 0.0526 0.0062
-1 -9 15 -0.0586 -0.0197
-1 -9 16 -0.3926 0.0169
-1 -9 17 0.7505 -0.0284
-1 -8 1 -0.0649 -0.0124
-1 -8 2 1.1055 -0.0011
-1 -8 3 -2.0716 0.0087
-1 -8 4 1.2164 -0.0045
-1 -8 5 0.4123 0.0021
-1 -8 6 -0.8323 0.0038
-1 -8 7 0.2827 -0.0078
-1 -8 8 0.2608 -0.0003
-1 -8 9 -0.6441 0.0054
-1 -8 10 0.3010 0.0014
-1 -8 11 0.8216 -0.0085
-1 -8 12 -1.1732 0.0065
-1 -8 13 0.5138 0.0096
-1 -8 14 -0.3287 -0.0235
-1 -8 15 0.4057 0.0118
-1 -8 16 0.0313 -0.0048
-1 -8 17 0.1250 0.0387
-1 -8 18 -0.9280 -0.0655
-1 -7 1 2.9552 0.0117
-1 -7 2 -3.6659 -0.0069
-1 -7 3 2.8411 0.0072
-1 -7 4 -0.6887 0.0006
-1 -7 5 -1.3595 -0.0094
-1 -7 6 2.1309 0.0053
-1 -7 7 -2.1381 0.0000
-1 -7 8 2.1191 0.0035
-1 -7 9 -2.0362 -0.0083
-1 -7 10 2.2335 0.0071
-1 -7 11 -2.4106 -0.0018
-1 -7 12 1.3682 0.0036
-1 -7 13 0.0056 -0.0111
-1 -7 14 -0.0578 0.0011
-1 -7 15 -0.2781 0.0172
-1 -7 16 0.2420 0.0004
-1 -7 17 -0.7193 -0.0411
-1 -7 18 0.9346 0.0443
-1 -6 1 -6.1356 -0.0127
-1 -6 2 4.2896 0.0179
-1 -6 3 -1.9377 -0.0123
-1 -6 4 -1.0238 -0.0038
-1 -6 5 3.2408 0.0114
-1 -6 6 -3.4820 -0.0044
-1 -6 7 3.2417 -0.0030
-1 -6 8 -2.9690 0.0005
-1 -6 9 2.1639 0.0044
-1 -6 10 -2.0287 -0.0011
-1 -6 11 1.9780 -0.0053
-1 -6 12 -0.3026 0.0051
-1 -6 13 -1.0581 -0.0066
-1 -6 14 0.5641 0.0161
-1 -6 15 -0.1373 -0.0123
-1 -6 16 0.0906 -0.0151
-1 -6 17 0.3674 0.0347
-1 -6 18 -0.0424 -0.0247
-1 -5 1 3.0663 -0.0035
-1 -5 2 -2.1008 0.0017
-1 -5 3 0.3164 -0.0029
-1 -5 4 2.8513 0.0047
-1 -5 5 -3.3073 -0.0012
-1 -5 6 1.9461 -0.0076
-1 -5 7 -1.7941 0.0090
-1 -5 8 0.8587 -0.0013
-1 -5 9 0.5694 -0.0016
-1 -5 10 0.2411 -0.0028
-1 -5 11 -0.6577 0.0051
-1 -5 12 -1.0026 -0.0045
-1 -5 13 1.4099 0.0042
-1 -5 14 -0.6146 -0.0024
-1 -5 15 0.7796 -0.0022
-1 -5 16 -0.6849 0.0094
-1 -5 17 0.2456 -0.0150
-1 -4 1 2.9187 0.0253
-1 -4 2 -1.9951 -0.0170
-1 -4 3 6.1370 0.0020
-1 -4 4 -7.8094 0.0030
-1 -4 5 3.3542 -0.0063
-1 -4 6 -0.9933 0.0091
-1 -4 7 1.1094 -0.0021
-1 -4 8 1.4358 -0.0039
-1 -4 9 -2.6567 0.0021
-1 -4 10 0.5749 -0.0027
-1 -4 11 -0.3816 0.0045
-1 -4 12 1.4839 -0.0038
-1 -4 13 -0.9237 0.0039
-1 -4 14 0.9087 0.0022
-1 -4 15 -1.5462 -0.0124
-1 -4 16 0.9592 0.0059
-1 -4 17 -0.6118 0.0134
-1 -3 1 -4.6561 -0.0122
-1 -3 2 13.1677 -0.0073
-1 -3 3 -22.5177 0.0100
-1 -3 4 16.3990 0.0025
-1 -3 5 -5.5658 -0.0032
-1 -3 6 3.2485 0.0026
-1 -3 7 -1.4705 -0.0051
-1 -3 8 -2.9396 -0.0007
-1 -3 9 2.6362 0.0027
-1 -3 10 -0.3513 0.0045
-1 -3 11 0.9188 -0.0060
-1 -3 12 -1.1488 0.0032
-1 -3 13 0.8798 0.0029
-1 -3 14 -1.9595 -0.0156
-1 -3 15 1.9706 0.0121
-1 -3 16 -0.8943 0.0174
-1 -3 17 0.6485 -0.0393
-1 -2 1 3.5008 -0.0150
-1 -2 2 -30.3910 0.0221
-1 -2 4 -18.3696 -0.0188
-1 -2 5 6.6871 0.0084
-1 -2 6 -5.4381 -0.0039
-1 -2 7 0.9456 -0.0017
-1 -2 8 2.5048 0.0094
-1 -2 9 -0.3929 -0.0027
-1 -2 10 -0.3337 -0.0062
-1 -2 11 -0.7205 0.0052
-1 -2 12 0.6500 -0.0007
-1 -2 13 -1.5988 -0.0072
-1 -2 14 2.5661 0.0061
-1 -2 15 -1.4906 0.0184
-1 -2 16 0.5563 -0.0414
-1 -2 17 -0.1827 0.0416
-1 -1 4 11.7514 0.0083
-1 -1 5 -7.8920 0.0082
-1 -1 6 7.2821 -0.0057
-1 -1 7 -2.3070 0.0056
-1 -1 8 1.6654 -0.0025
-1 -1 9 -2.6911 -0.0066
-1 -1 10 0.9376 0.0074
-1 -1 11 -0.0958 -0.0026
-1 -1 12 -0.3157 -0.0023
-1 -1 13 1.7795 0.0030
-1 -1 14 -1.6279 0.0090
-1 -1 15 0.5206 -0.0172
-1 -1 16 -0.2381 0.0091
-1 0 4 -9.6284 0.0199
-1 0 5 11.8374 -0.0175
-1 0 6 -9.0923 0.0032
-1 0 7 5.6966 0.0021
-1 0 8 -5.6105 -0.0052
-1 0 9 3.3636 0.0032
-1 0 10 -1.0023 0.0033
-1 0 11 0.7404 -0.0060
-1 0 12 0.3242 0.0038
-1 0 13 -1.0358 0.0033
-1 0 14 0.2267 0.0005
-1 0 15 -0.1239 -0.0273
-1 0 16 0.2942 0.0416
-1 1 3 -14.7869 0.0113
-1 1 4 12.3013 -0.0159
-1 1 5 -11.2215 -0.0006
-1 1 6 6.8840 0.0064
-1 1 7 -5.9296 -0.0025
-1 1 8 4.5733 -0.0028
-1 1 9 -1.5194 0.0087
-1 1 10 0.5847 -0.0086
-1 1 11 0.0836 0.0018
-1 1 12 -1.1726 0.0072
-1 1 13 0.4074 -0.0056
-1 1 14 0.4217 -0.0231
-1 1 15 0.0761 0.0550
-1 2 2 -23.0778 -0.0053
-1 2 3 11.2429 -0.0012
-1 2 4 -7.8455 -0.0116
-1 2 5 3.3011 0.0135
-1 2 6 -2.0400 -0.0019
-1 2 7 2.8138 -0.0048
-1 2 8 -1.2277 0.0056
-1 2 9 -0.0426 -0.0019
-1 2 10 0.8504 -0.0062
-1 2 11 -2.5166 0.0123
-1 2 12 2.1639 -0.0095
-1 2 13 -0.0045 -0.0076
-1 2 14 -0.7791 0.0268
-1 2 15 0.3877 -0.0238
-1 3 2 8.8332 -0.0045
-1 3 3 -3.6260 -0.0086
-1 3 4 0.0081 0.0140
-1 3 5 1.4058 -0.0000
-1 3 6 0.3288 -0.0072
-1 3 7 -0.5848 0.0017
-1 3 8 -0.1320 0.0042
-1 3 9 0.8064 -0.0103
-1 3 10 -2.9148 0.0134
-1 3 11 3.7957 -0.0035
-1 3 12 -1.6165 -0.0137
-1 3 13 -0.4988 0.0144
-1 3 14 0.9453 0.0162
-1 4 2 0.0840 0.0140
-1 4 3 -0.5175 0.0020
-1 4 4 0.8336 0.0042
-1 4 5 0.4714 -0.0100
-1 4 6 -0.8451 0.0002
-1 4 7 0.3424 0.0048
-1 4 8 -0.2071 -0.0017
-1 4 9 -1.3892 0.0035
-1 4 10 3.0236 0.0010
-1 4 11 -1.9245 -0.0181
-1 4 12 0.1344 0.0163
-1 4 13 0.4110 0.0307
-1 4 14 -0.3888 -0.0859
-1 5 1 2.4618 0.0220
-1 5 2 -0.6152 -0.0037
-1 5 3 -0.4488 0.0027
-1 5 4 1.6221 -0.0077
-1 5 5 -1.4949 -0.0032
-1 5 6 0.6389 0.0098
-1 5 7 -0.8606 0.0038
-1 5 8 0.1557 -0.0109
-1 5 9 1.3960 0.0056
-1 5 10 -0.8247 -0.0109
-1 5 11 -0.4270 0.0084
-1 5 12 0.1508 0.0388
-1 5 13 0.1839 -0.1028
-1 6 1 0.1928 0.0090
-1 6 2 -0.4943 -0.0056
-1 6 3 1.4738 -0.0033
-1 6 4 -1.4327 -0.0025
-1 6 5 0.3874 0.0128
-1 6 6 -0.6952 -0.0007
-1 6 7 0.5825 -0.0129
-1 6 8 1.1782 0.0043
-1 6 9 -1.1987 -0.0013
-1 6 10 -0.3188 0.0041
-1 6 11 0.0689 0.0336
-1 6 12 0.6963 -0.0989
-1 7 1 -1.1206 -0.0078
-1 7 2 1.5678 -0.0007
-1 7 3 -1.9569 0.0007
-1 7 4 0.8174 0.0067
-1 7 5 -0.6268 -0.0002
-1 7 6 0.8181 -0.0110
-1 7 8 -2.6594 0.0127
-1 7 9 1.6051 0.0033
-1 7 10 -1.1966 0.0087
-1 7 11 1.9349 -0.0650
-1 8 1 1.7863 -0.0007
-1 8 2 -3.0768 -0.0056
-1 8 3 2.3964 0.0084
-1 8 4 -1.2787 -0.0009
-1 8 5 1.1804 -0.0120
-1 8 6 0.1417 0.0003
-1 8 7 -2.2834 0.0179
-1 8 8 2.4972 0.0030
-1 8 9 -2.0984 -0.0173
-1 8 10 2.8278 -0.0292
-1 8 11 -2.6138 0.0634
-1 9 1 -2.2397 -0.0114
-1 9 2 2.8871 0.0120
-1 9 3 -1.7776 -0.0055
-1 9 4 0.9142 -0.0053
-1 9 5 -0.2748 0.0020
-1 9 6 -0.7776 0.0131
-1 9 7 1.1465 0.0091
-1 9 8 -0.9243 -0.0458
-1 9 9 1.4761 0.0083
-1 9 10 -2.0446 0.0642
-1 10 1 1.4246 -0.0027
-1 10 2 -1.3749 0.0100
-1 10 3 0.2634 -0.0059
-1 10 4 0.6818 -0.0033
-1 10 5 -0.7394 0.0169
-1 10 6 0.0792 -0.0018
-1 10 7 0.5110 -0.0516
-1 10 8 -0.4843 0.0523
-1 10 9 0.1372 0.0342
-1 11 1 -0.5246 0.0250
-1 11 2 0.0624 -0.0113
-1 11 3 1.3256 -0.0060
-1 11 4 -1.6631 0.0160
-1 11 5 0.3678 -0.0182
-1 11 6 0.6983 -0.0110
-1 11 7 -0.7498 0.0433
-1 12 1 -0.1687 0.0128
-1 12 2 1.0518 -0.0262
-1 12 3 -1.8842 0.0084
-1 12 4 0.8251 0.0073
-1 12 5 0.5419 0.0026
-1 12 6 -0.3526 -0.0071
-1 13 1 0.7611 -0.0449
-1 13 2 -1.4927 0.0113
-1 13 3 1.0356 0.0475
-1 13 4 0.3217 -0.0516
-1 13 5 -0.3982 -0.0020
-1 14 1 -0.8257 -0.0209
-1 14 2 0.8954 0.0677
-1 14 3 -0.0543 -0.0942
-1 15 1 0.2699 0.1007
0 -17 5 1.0073 -0.0778
0 -17 6 -1.2493 0.0117
0 -17 7 1.2395 0.0100
0 -17 8 -1.5260 0.0071
0 -17 9 1.3143 -0.0364
0 -17 10 -0.1042 0.0744
0 -16 2 -0.8463 0.0697
0 -16 3 0.9682 0.0217
0 -16 4 -0.1926 -0.0809
0 -16 5 -0.3501 0.0449
0 -16 6 0.4405 0.0029
0 -16 7 -0.8710 -0.0101
0 -16 8 0.9985 -0.0022
0 -16 9 0.3979 0.0336
0 -16 10 -1.6695 -0.0477
0 -16 11 0.4971 0.0146
0 -16 12 1.4378 -0.0089
0 -16 13 -1.2651 0.0463
0 -15 1 -1.0715 0.0836
0 -15 2 1.7331 -0.0332
0 -15 3 -1.3668 -0.0225
0 -15 4 0.6280 0.0287
0 -15 5 -0.2374 -0.0015
0 -15 6 -0.3882 -0.0084
0 -15 7 1.0986 0.0087
0 -15 8 0.0474 -0.0003
0 -15 9 -2.3390 -0.0145
0 -15 10 1.8374 -0.0036
0 -15 11 1.4443 0.0230
0 -15 12 -2.9734 0.0138
0 -15 13 1.6615 -0.0430
0 -15 14 -0.4391 0.0075
0 -14 1 1.0094 -0.0049
0 -14 2 -0.7651 0.0030
0 -14 3 0.3526 -0.0089
0 -14 4 -0.1842 0.0162
0 -14 5 -0.1219 -0.0091
0 -14 6 1.1786 -0.0001
0 -14 7 -1.1749 -0.0009
0 -14 8 -1.2906 -0.0046
0 -14 9 2.7383 -0.0002
0 -14 10 -0.4073 0.0248
0 -14 11 -2.1312 -0.0191
0 -14 12 1.8233 -0.0136
0 -14 13 -0.9223 0.0115
0 -14 14 0.9601 0.0141
0 -14 15 -0.6653 -0.0257
0 -13 1 1.0569 -0.0258
0 -13 2 -1.0208 -0.0070
0 -13 3 0.5023 0.0197
0 -13 4 0.1414 -0.0092
0 -13 5 0.2134 -0.0061
0 -13 6 -1.1246 0.0050
0 -13 7 0.0336 -0.0017
0 -13 8 2.2057 0.0069
0 -13 9 -1.8938 0.0007
0 -13 10 0.0200 -0.0111
0 -13 11 0.0211 0.0036
0 -13 12 0.5460 -0.0031
0 -13 13 0.2619 0.0147
0 -13 14 -0.8653 -0.0140
0 -13 15 0.5993 0.0258
0 -13 16 -0.7631 -0.0679
0 -12 1 -1.5127 0.0057
0 -12 2 1.0349 0.0062
0 -12 3 -0.3237 0.0019
0 -12 4 0.0037 -0.0123
0 -12 5 -0.7583 0.0083
0 -12 6 0.7544 0.0059
0 -12 7 1.2003 -0.0065
0 -12 8 -2.3253 -0.0026
0 -12 9 1.4673 0.0054
0 -12 10 -1.2980 -0.0079
0 -12 11 1.8675 0.0037
0 -12 12 -1.0706 0.0112
0 -12 13 0.0326 -0.0094
0 -12 14 -0.0562 0.0003
0 -12 15 -0.3249 -0.0266
0 -12 16 1.2496 0.0628
0 -12 17 -1.2208 -0.0546
0 -11 1 0.1015 0.0116
0 -11 2 -0.5243 0.0007
0 -11 3 0.7812 -0.0102
0 -11 4 -1.6016 0.0108
0 -11 5 2.2107 0.0017
0 -11 6 -0.6632 -0.0142
0 -11 7 -1.5516 0.0110
0 -11 8 1.8373 -0.0011
0 -11 9 -1.3938 -0.0089
0 -11 10 1.5243 0.0154
0 -11 11 -1.0162 -0.0058
0 -11 12 0.3876 -0.0044
0 -11 13 -0.9925 -0.0041
0 -11 14 1.2861 0.0016
0 -11 15 -0.2555 0.0251
0 -11 16 -0.4923 -0.0333
0 -11 17 0.5010 0.0109
0 -10 1 0.3397 -0.0104
0 -10 2 0.3578 0.0030
0 -10 3 -1.2700 0.0033
0 -10 4 2.7225 -0.0078
0 -10 5 -2.5083 0.0002
0 -10 6 0.3562 0.0068
0 -10 7 0.8524 -0.0054
0 -10 8 -0.4417 0.0017
0 -10 9 0.0242 0.0070
0 -10 10 0.3364 -0.0114
0 -10 11 -0.4464 0.0019
0 -10 12 -0.7983 0.0014
0 -10 13 2.0901 0.0062
0 -10 14 -1.7028 -0.0030
0 -10 15 0.9015 -0.0027
0 -10 16 -0.5912 -0.0056
0 -10 17 -0.1336 0.0165
0 -9 1 0.0333 0.0033
0 -9 2 -0.0788 -0.0054
0 -9 3 1.3691 -0.0049
0 -9 4 -2.4321 0.0089
0 -9 5 1.3558 -0.0016
0 -9 6 0.1262 -0.0008
0 -9 7 0.0309 0.0017
0 -9 8 -0.9426 -0.0022
0 -9 9 1.4554 -0.0035
0 -9 10 -1.3424 0.0027
0 -9 11 0.0627 0.0056
0 -9 12 1.6141 -0.0030
0 -9 13 -1.7937 -0.0076
0 -9 14 1.0523 0.0153
0 -9 15 -0.9018 -0.0181
0 -9 16 0.3771 0.0092
0 -9 17 0.8480 0.0007
0 -8 1 -1.1045 -0.0056
0 -8 2 1.6826 0.0034
0 -8 3 -2.7622 0.0024
0 -8 4 2.1205 0.0048
0 -8 5 0.1198 -0.0083
0 -8 6 -1.4992 0.0027
0 -8 7 1.0061 -0.0018
0 -8 8 0.0460 0.0011
0 -8 9 -0.5123 0.0015
0 -8 10 0.1757 0.0034
0 -8 11 0.8117 -0.0085
0 -8 12 -1.3934 0.0040
0 -8 13 0.8931 0.0056
0 -8 14 -0.4149 -0.0126
0 -8 15 0.1651 0.0008
0 -8 16 0.9821 0.0267
0 -8 17 -1.8440 -0.0311
0 -7 1 2.5511 0.0051
0 -7 2 -3.6763 0.0031
0 -7 3 3.7805 0.0020
0 -7 4 -1.7888 -0.0102
0 -7 5 -1.6557 0.0046
0 -7 6 3.7687 0.0023
0 -7 7 -3.4489 -0.0010
0 -7 8 2.5412 -0.0006
0 -7 9 -1.7724 0.0019
0 -7 10 0.9761 -0.0040
0 -7 11 -1.1061 0.0043
0 -7 12 1.6608 -0.0043
0 -7 13 -1.2373 0.0012
0 -7 14 0.3804 -0.0010
0 -7 15 0.6406 0.0188
0 -7 16 -2.0031 -0.0335
0 -7 17 1.9599 0.0138
0 -6 1 -0.5769 0.0160
0 -6 2 1.4923 -0.0160
0 -6 3 -2.7344 0.0071
0 -6 4 0.9303 -0.0055
0 -6 5 3.4715 0.0104
0 -6 6 -5.3924 -0.0092
0 -6 7 4.9482 0.0015
0 -6 8 -4.6133 0.0046
0 -6 9 3.1186 -0.0036
0 -6 10 -1.5414 -0.0035
0 -6 11 2.5151 0.0055
0 -6 12 -3.4094 -0.0013
0 -6 13 1.9897 0.0027
0 -6 14 -0.3373 -0.0038
0 -6 15 -0.9299 -0.0031
0 -6 16 1.8366 -0.0031
0 -6 17 -0.9829 0.0258
0 -5 1 -5.2255 -0.0157
0 -5 2 2.1322 0.0073
0 -5 3 0.9335 -0.0024
0 -5 4 3.1147 0.0028
0 -5 5 -7.4487 -0.0060
0 -5 6 6.3849 0.0045
0 -5 7 -5.4706 0.0023
0 -5 8 5.4244 -0.0053
0 -5 9 -3.1521 -0.0018
0 -5 10 2.6287 0.0100
0 -5 11 -4.6625 -0.0075
0 -5 12 3.9444 0.0024
0 -5 13 -1.2667 -0.0066
0 -5 14 0.0391 0.0115
0 -5 15 0.8003 -0.0127
0 -5 16 -1.1879 0.0189
0 -5 17 0.2381 -0.0211
0 -4 1 8.0235 -0.0166
0 -4 2 -0.8440 0.0148
0 -4 3 2.8815 -0.0196
0 -4 4 -11.6874 0.0181
0 -4 5 10.8706 -0.0077
0 -4 6 -4.8039 0.0021
0 -4 7 4.1011 -0.0012
0 -4 8 -3.8322 -0.0013
0 -4 9 2.0491 0.0035
0 -4 10 -3.5361 -0.0000
0 -4 11 4.4252 -0.0079
0 -4 12 -1.5809 0.0097
0 -4 13 -0.1008 -0.0006
0 -4 14 0.0053 -0.0068
0 -4 15 -0.8217 0.0022
0 -4 16 1.2979 0.0113
0 -4 17 -0.9711 -0.0277
0 -3 1 1.7732 -0.0156
0 -3 2 -7.0011 0.0098
0 -3 4 13.9314 -0.0131
0 -3 5 -3.7658 0.0057
0 -3 6 -2.7111 -0.0014
0 -3 7 0.3999 -0.0054
0 -3 8 0.3238 0.0062
0 -3 9 -1.1094 0.0027
0 -3 10 3.2092 -0.0120
0 -3 11 -1.4565 0.0169
0 -3 12 -0.9577 -0.0110
0 -3 13 0.0403 -0.0046
0 -3 14 0.3567 0.0072
0 -3 15 1.0927 0.0181
0 -3 16 -2.0894 -0.0540
0 -3 17 2.1648 0.0701
0 -2 4 -0.8585 -0.0063
0 -2 5 -11.7777 -0.0019
0 -2 6 10.3195 0.0003
0 -2 7 -3.9495 0.0094
0 -2 8 1.0020 -0.0061
0 -2 9 2.0659 -0.0016
0 -2 10 -2.1521 0.0046
0 -2 11 -0.9411 -0.0055
0 -2 12 0.7738 -0.0044
0 -2 13 1.2048 0.0184
0 -2 14 -0.6000 -0.0080
0 -2 15 -1.2005 -0.0286
0 -2 16 2.3740 0.0597
0 -1 4 -13.8280 0.0041
0 -1 5 18.2018 0.0079
0 -1 6 -9.6666 -0.0010
0 -1 7 3.1387 -0.0064
0 -1 8 1.2616 0.0042
0 -1 9 -3.9223 -0.0067
0 -1 10 1.5132 0.0057
0 -1 11 0.5143 -0.0000
0 -1 12 0.8842 0.0044
0 -1 13 -1.3261 -0.0103
0 -1 14 0.1164 0.0054
0 -1 15 0.9962 0.0020
0 -1 16 -1.5674 -0.0021
0 0 3 -4.1362 -0.0058
0 0 4 14.5570 0.0039
0 0 5 -11.3209 -0.0082
0 0 6 4.9110 0.0011
0 0 7 -0.7700 -0.0015
0 0 8 -3.9645 -0.0015
0 0 9 4.6180 0.0086
0 0 10 -1.8217 -0.0026
0 0 11 0.9809 -0.0090
0 0 12 -0.6117 0.0130
0 0 13 -0.5216 -0.0041
0 0 14 0.5646 -0.0229
0 0 15 -0.2712 0.0526
0 1 3 3.3771 -0.0088
0 1 4 -7.4131 0.0008
0 1 5 4.4614 -0.0008
0 1 6 -2.9200 -0.0013
0 1 7 -1.0072 0.0068
0 1 8 4.6942 -0.0003
0 1 9 -3.7457 -0.0055
0 1 10 2.0027 -0.0002
0 1 11 -0.5225 0.0114
0 1 12 -1.6970 -0.0156
0 1 13 1.8115 -0.0056
0 1 14 0.0223 0.0427
0 1 15 -0.9428 -0.0586
0 2 2 -3.7892 -0.0240
0 2 3 -3.7882 0.0117
0 2 4 2.9996 -0.0052
0 2 5 -2.9863 0.0071
0 2 6 1.7249 0.0021
0 2 7 2.2349 -0.0068
0 2 8 -3.1851 0.0018
0 2 9 2.0362 0.0017
0 2 10 -1.0545 -0.0008
0 2 11 -1.2086 -0.0023
0 2 12 2.3497 -0.0030
0 2 13 -0.3798 0.0153
0 2 14 -1.4287 -0.0083
0 3 1 -6.4779 -0.0293
0 3 2 -1.6974 0.0065
0 3 3 1.9638 0.0041
0 3 4 -1.5456 0.0063
0 3 5 2.0586 -0.0053
0 3 6 0.4024 -0.0027
0 3 7 -1.9476 0.0027
0 3 8 1.2231 -0.0028
0 3 9 -1.0641 0.0052
0 3 10 0.1766 -0.0022
0 3 11 1.1798 -0.0076
0 3 12 -0.1232 0.0100
0 3 13 -1.6436 0.0215
0 3 14 1.4429 -0.0727
0 4 0 -8.2696 -0.0105
0 4 1 2.1317 -0.0112
0 4 2 -0.4828 0.0173
0 4 3 0.5504 -0.0011
0 4 4 1.0241 -0.0042
0 4 5 -0.2666 -0.0025
0 4 6 -1.4720 -0.0024
0 4 7 1.3709 0.0085
0 4 8 -1.4532 0.0007
0 4 9 1.4561 -0.0096
0 4 10 -0.3382 0.0005
0 4 11 0.4408 0.0080
0 4 12 -1.6462 0.0239
0 4 13 1.4280 -0.0879
0 5 0 3.5982 -0.0223
0 5 1 -2.4281 0.0151
0 5 2 2.0525 0.0030
0 5 3 -0.0857 -0.0058
0 5 4 -0.4605 -0.0078
0 5 5 -1.0124 0.0059
0 5 6 1.8304 0.0122
0 5 7 -2.4487 -0.0130
0 5 8 2.7594 -0.0027
0 5 9 -1.4935 0.0010
0 5 10 0.5952 0.0143
0 5 11 -1.0500 0.0062
0 5 12 0.8391 -0.0699
0 6 0 -0.0871 0.0025
0 6 1 0.5531 0.0110
0 6 2 0.1795 -0.0103
0 6 3 -0.4082 -0.0045
0 6 4 -0.5467 0.0123
0 6 5 1.2204 -0.0007
0 6 6 -2.1142 -0.0061
0 6 7 2.9889 -0.0061
0 6 8 -1.9744 0.0054
0 6 9 0.5033 0.0222
0 6 10 -0.4475 -0.0260
0 6 11 0.1812 -0.0265
0 6 12 0.7544 0.0707
0 7 0 -1.7869 0.0084
0 7 1 1.5507 -0.0024
0 7 2 -0.5701 -0.0011
0 7 3 -0.5826 0.0016
0 7 4 0.3489 -0.0006
0 7 5 -0.2003 0.0024
0 7 6 1.1457 -0.0149
0 7 7 -0.9840 0.0190
0 7 8 -0.1509 0.0079
0 7 9 -0.0457 -0.0292
0 7 10 0.4570 -0.0027
0 7 11 0.4538 0.0497
0 8 1 -0.3551 -0.0027
0 8 2 -1.1333 -0.0094
0 8 3 0.5835 0.0082
0 8 4 0.9559 0.0015
0 8 5 -0.9945 -0.0085
0 8 6 0.7281 0.0098
0 8 7 -1.3177 0.0040
0 8 8 0.8629 -0.0117
0 8 9 0.6603 -0.0250
0 8 10 -0.9127 0.0758
0 9 0 0.4858 0.0055
0 9 1 -1.8568 -0.0181
0 9 2 1.6688 0.0115
0 9 3 0.2270 0.0084
0 9 4 -1.3018 -0.0089
0 9 5 1.2459 -0.0058
0 9 6 -1.4715 0.0206
0 9 7 1.3517 -0.0194
0 9 8 0.0268 -0.0296
0 9 9 -1.2886 0.1017
0 10 0 -1.5230 -0.0231
0 10 1 1.7869 0.0146
0 10 2 -0.5790 0.0116
0 10 3 -0.5283 -0.0115
0 10 4 0.6159 -0.0078
0 10 5 -0.3149 0.0133
0 10 6 0.0933 -0.0120
0 10 7 0.2682 -0.0080
0 10 8 -0.7559 0.0639
0 11 0 0.0592 0.0061
0 11 1 0.3227 0.0153
0 11 2 -0.5349 -0.0047
0 11 3 0.2808 -0.0243
0 11 4 0.4244 0.0020
0 11 5 -1.3530 0.0421
0 11 6 1.6393 -0.0390
0 11 7 -1.0250 0.0245
0 12 0 1.6322 0.0334
0 12 1 -1.0376 -0.0219
0 12 2 0.2435 -0.0335
0 12 3 0.3404 0.0220
0 12 4 -1.2127 0.0755
0 12 5 1.8646 -0.1121
0 13 0 -0.4767 -0.0369
0 13 1 -0.2662 -0.0147
0 13 2 0.4541 0.0444
0 13 3 -0.5300 0.0467
0 13 4 0.7906 -0.1401
0 14 0 -0.9043 -0.0330
0 14 1 0.5034 0.0714
0 14 2 -0.2080 -0.0238
0 15 0 0.0339 0.1105
1 -17 4 0.4723 -0.0300
1 -17 5 0.0851 -0.0242
1 -17 6 -0.6976 0.0159
1 -17 7 0.2247 -0.0075
1 -17 8 0.4534 0.0074
1 -17 9 -0.2971 0.0216
1 -17 10 0.2550 -0.0473
1 -17 11 -0.8482 0.0637
1 -16 1 -0.0831 0.0962
1 -16 2 -0.8407 -0.0016
1 -16 3 1.7548 -0.0351
1 -16 4 -1.4579 0.0008
1 -16 5 0.4020 0.0084
1 -16 6 -0.2337 0.0008
1 -16 7 0.6852 0.0058
1 -16 8 -0.3602 0.0054
1 -16 9 0.2175 -0.0261
1 -16 10 -1.3713 0.0348
1 -16 11 1.8614 -0.0485
1 -16 12 -0.4380 0.0227
1 -16 13 -0.7622 0.0608
1 -15 0 -0.0788 0.0940
1 -15 1 -0.7359 -0.0481
1 -15 2 1.5725 0.0013
1 -15 3 -1.6280 -0.0023
1 -15 4 0.7848 0.0073
1 -15 5 -0.4377 0.0062
1 -15 6 0.9422 -0.0049
1 -15 7 -0.5465 0.0019
1 -15 8 -0.3539 -0.0077
1 -15 9 -0.5303 0.0000
1 -15 10 1.8156 0.0008
1 -15 11 -0.7274 0.0019
1 -15 12 -1.0816 0.0411
1 -15 13 1.0746 -0.0800
1 -15 14 -0.3011 0.0377
1 -15 15 0.0489 0.0183
1 -14 0 0.2264 0.0008
1 -14 1 -0.0495 -0.0066
1 -14 2 0.2297 -0.0029
1 -14 3 -0.6762 0.0131
1 -14 4 0.7992 -0.0055
1 -14 5 0.0972 -0.0006
1 -14 6 -0.5017 0.0001
1 -14 7 -0.4611 -0.0040
1 -14 8 0.2874 -0.0053
1 -14 9 1.3505 0.0185
1 -14 10 -1.0889 -0.0081
1 -14 11 -0.8879 0.0077
1 -14 12 1.3313 -0.0326
1 -14 13 -0.6136 0.0286
1 -14 14 0.5236 -0.0017
1 -14 15 -0.3093 0.0108
1 -13 0 -0.6830 -0.0328
1 -13 1 1.3122 0.0096
1 -13 2 -1.7304 0.0046
1 -13 3 1.8387 -0.0075
1 -13 4 -1.2544 0.0064
1 -13 5 0.5517 -0.0046
1 -13 6 -1.1322 -0.0024
1 -13 7 1.4341 0.0017
1 -13 8 0.3164 0.0107
1 -13 9 -1.4039 -0.0043
1 -13 10 0.0857 -0.0187
1 -13 11 0.8173 0.0214
1 -13 12 -0.4490 -0.0107
1 -13 13 0.7193 0.0023
1 -13 14 -0.8675 0.0248
1 -13 15 -0.1968 -0.0531
1 -13 16 0.7353 0.0353
1 -12 0 0.5690 -0.0054
1 -12 1 -1.1835 0.0028
1 -12 2 1.4295 0.0045
1 -12 3 -1.3100 -0.0035
1 -12 4 0.9734 0.0023
1 -12 5 -1.6036 -0.0072
1 -12 6 2.7156 0.0087
1 -12 7 -1.8624 0.0030
1 -12 8 -0.0833 -0.0095
1 -12 9 0.3238 -0.0074
1 -12 10 0.1768 0.0274
1 -12 11 0.0555 -0.0302
1 -12 12 0.3712 0.0218
1 -12 13 -1.0915 0.0013
1 -12 14 0.1479 -0.0315
1 -12 15 1.1087 0.0263
1 -12 16 -0.6826 0.0153
1 -11 0 -0.1239 0.0122
1 -11 1 0.8956 0.0077
1 -11 2 -1.0237 -0.0094
1 -11 3 0.4117 0.0055
1 -11 4 -0.4403 -0.0093
1 -11 5 1.8791 0.0122
1 -11 6 -2.6764 -0.0040
1 -11 7 1.6974 -0.0117
1 -11 8 -0.8334 0.0175
1 -11 9 0.6912 -0.0075
1 -11 10 -0.2690 -0.0030
1 -11 11 0.2970 0.0090
1 -11 12 -0.9157 -0.0137
1 -11 13 0.3060 0.0084
1 -11 14 1.0548 -0.0023
1 -11 15 -0.9572 0.0161
1 -11 16 -0.2217 -0.0333
1 -11 17 0.9614 0.0324
1 -10 0 -0.0964 0.0080
1 -10 1 -0.9865 -0.0010
1 -10 2 0.3346 -0.0099
1 -10 3 0.7053 0.0062
1 -10 4 -0.0832 0.0017
1 -10 5 -1.2644 -0.0046
1 -10 6 1.4350 -0.0001
1 -10 7 -0.9821 0.0119
1 -10 8 0.9343 -0.0180
1 -10 9 -0.9397 0.0167
1 -10 10 1.0787 -0.0172
1 -10 11 -1.3465 0.0095
1 -10 12 0.5202 0.0084
1 -10 13 0.9653 -0.0149
1 -10 14 -0.9727 0.0083
1 -10 15 -0.2417 -0.0026
1 -10 16 0.9527 0.0002
1 -10 17 -1.1794 -0.0067
1 -9 0 0.3580 0.0031
1 -9 1 -0.1953 -0.0184
1 -9 2 1.4013 0.0147
1 -9 3 -1.1812 -0.0054
1 -9 4 -0.2504 0.0008
1 -9 5 0.6524 0.0064
1 -9 6 0.0218 -0.0080
1 -9 7 -0.3316 0.0035
1 -9 8 -0.1364 -0.0043
1 -9 9 1.0919 -0.0020
1 -9 10 -1.8701 0.0163
1 -9 11 1.1934 -0.0137
1 -9 12 0.6517 -0.0002
1 -9 13 -1.2321 0.0015
1 -9 14 0.0748 0.0074
1 -9 15 0.6080 -0.0166
1 -9 16 -0.4125 0.0174
1 -9 17 0.5788 -0.0032
1 -8 0 -1.3452 -0.0052
1 -8 1 2.5963 -0.0032
1 -8 2 -2.3569 0.0111
1 -8 3 0.1709 -0.0042
1 -8 4 1.0686 0.0013
1 -8 5 -0.3515 -0.0063
1 -8 6 -0.7186 0.0070
1 -8 7 0.6788 -0.0141
1 -8 8 0.4107 0.0231
1 -8 9 -1.4193 -0.0116
1 -8 10 1.2300 -0.0053
1 -8 11 0.2481 0.0066
1 -8 12 -1.4578 -0.0015
1 -8 13 0.9439 -0.0038
1 -8 14 0.0040 0.0046
1 -8 15 0.3167 0.0071
1 -8 16 -0.6980 -0.0146
1 -8 17 0.1172 0.0101
1 -7 0 2.2592 -0.0184
1 -7 1 -2.2286 0.0224
1 -7 2 -0.1576 -0.0085
1 -7 3 2.3656 -0.0068
1 -7 4 -2.6138 0.0083
1 -7 5 1.3193 -0.0095
1 -7 6 -0.3680 0.0082
1 -7 7 0.8976 0.0061
1 -7 8 -1.2754 -0.0144
1 -7 9 0.3137 0.0083
1 -7 10 0.8308 -0.0022
1 -7 11 -1.6115 -0.0012
1 -7 12 1.8222 -0.0037
1 -7 13 -0.9148 0.0176
1 -7 14 0.2974 -0.0137
1 -7 15 -0.8923 -0.0059
1 -7 16 0.8954 0.0079
1 -7 17 -0.1386 -0.0015
1 -6 0 0.8093 0.0015
1 -6 1 -2.7375 0.0101
1 -6 2 4.1067 -0.0163
1 -6 3 -5.0337 0.0107
1 -6 4 4.3925 -0.0069
1 -6 5 -1.7735 0.0119
1 -6 6 0.7044 -0.0121
1 -6 7 -1.2012 0.0082
1 -6 8 -0.3886 -0.0063
1 -6 9 2.4364 0.0017
1 -6 10 -2.3592 -0.0026
1 -6 11 2.2098 0.0078
1 -6 12 -2.0854 0.0020
1 -6 13 0.6056 -0.0100
1 -6 14 0.0838 -0.0031
1 -6 15 0.4761 0.0021
1 -6 16 -0.1506 0.0219
1 -6 17 -0.2433 -0.0239
1 -5 1 0.9502 -0.0200
1 -5 2 -1.0902 -0.0025
1 -5 3 4.2324 0.0149
1 -5 4 -2.5830 -0.0126
1 -5 5 -1.7966 0.0061
1 -5 7 -0.7100 -0.0123
1 -5 8 2.9382 0.0101
1 -5 9 -3.1950 -0.0021
1 -5 10 1.8751 0.0067
1 -5 11 -2.4555 -0.0086
1 -5 12 1.9280 0.0003
1 -5 13 0.2271 -0.0056
1 -5 14 -0.3657 0.0091
1 -5 15 -0.2622 0.0162
1 -5 16 -0.2311 -0.0299
1 -5 17 0.3460 0.0016
1 -4 1 16.2188 -0.0164
1 -4 2 -5.6793 0.0225
1 -4 3 -3.7522 -0.0155
1 -4 4 -0.4807 0.0132
1 -4 5 4.3695 -0.0124
1 -4 6 -0.9756 0.0029
1 -4 7 0.0911 0.0028
1 -4 8 -1.3881 0.0050
1 -4 9 0.1093 -0.0080
1 -4 10 -0.5943 0.0015
1 -4 11 2.4155 -0.0017
1 -4 12 -0.8446 0.0012
1 -4 13 -0.7059 0.0068
1 -4 14 -0.4963 -0.0030
1 -4 15 1.1044 0.0010
1 -4 16 -0.5383 -0.0304
1 -4 17 -0.0335 0.0592
1 -3 2 -6.8233 0.0142
1 -3 3 14.4876 -0.0143
1 -3 4 -3.6819 0.0023
1 -3 5 1.1827 0.0020
1 -3 6 -4.6649 -0.0002
1 -3 7 3.7750 0.0048
1 -3 8 -3.3981 -0.0122
1 -3 9 3.3379 0.0097
1 -3 10 0.0810 -0.0022
1 -3 11 -1.2891 0.0010
1 -3 12 -0.7513 -0.0035
1 -3 13 0.3019 0.0042
1 -3 14 1.7545 0.0080
1 -3 15 -2.1552 -0.0444
1 -3 16 1.4347 0.0767
1 -2 2 42.1418 -0.0257
1 -2 3 -31.2025 0.0056
1 -2 4 12.6059 -0.0029
1 -2 5 -9.1198 0.0074
1 -2 6 8.2092 -0.0064
1 -2 7 -6.1331 0.0006
1 -2 8 6.3799 0.0037
1 -2 9 -3.8256 0.0018
1 -2 10 0.0416 -0.0102
1 -2 11 -0.6105 0.0036
1 -2 12 1.5791 0.0135
1 -2 13 0.1975 -0.0154
1 -2 14 -1.6664 -0.0086
1 -2 15 1.6949 0.0346
1 -2 16 -0.7782 -0.0327
1 -1 3 34.9683 0.0214
1 -1 4 -16.1569 0.0037
1 -1 5 10.4815 -0.0103
1 -1 6 -6.2338 0.0076
1 -1 7 5.6165 -0.0024
1 -1 8 -5.4989 -0.0011
1 -1 9 1.9025 -0.0068
1 -1 10 -0.3511 0.0115
1 -1 11 1.6101 0.0016
1 -1 12 -1.3410 -0.0132
1 -1 13 0.3110 0.0116
1 -1 14 -0.0795 -0.0154
1 -1 15 0.3162 0.0325
1 0 3 -24.0245 0.0013
1 0 4 12.9605 -0.0119
1 0 5 -6.4425 0.0009
1 0 6 3.0507 0.0022
1 0 7 -3.6419 -0.0050
1 0 8 2.1340 0.0056
1 0 9 -0.0080 0.0001
1 0 10 0.6828 -0.0011
1 0 11 -1.2482 0.0045
1 0 12 0.9628 -0.0126
1 0 13 -1.2226 -0.0035
1 0 14 1.4033 0.0464
1 0 15 -1.5681 -0.0718
1 1 3 11.0180 -0.0284
1 1 4 -6.3167 -0.0009
1 1 5 1.6448 0.0118
1 1 6 -1.0492 -0.0034
1 1 7 0.8836 0.0012
1 1 8 0.6807 -0.0043
1 1 9 -0.2376 0.0084
1 1 10 -0.6920 -0.0018
1 1 11 0.4647 -0.0206
1 1 12 -0.7146 0.0232
1 1 13 0.9458 0.0102
1 1 14 -0.7750 -0.0359
1 2 1 -3.3689 0.0229
1 2 2 0.3597 -0.0351
1 2 3 -0.9344 0.0036
1 2 4 -0.8746 0.0170
1 2 5 0.9251 -0.0035
1 2 6 0.1334 -0.0087
1 2 7 0.9227 0.0057
1 2 8 -0.9947 0.0048
1 2 9 -0.2168 -0.0096
1 2 10 0.2010 -0.0040
1 2 11 -0.2360 0.0131
1 2 12 0.5404 0.0018
1 2 13 0.1220 -0.0033
1 2 14 -0.4183 -0.0281
1 3 0 6.7616 -0.0085
1 3 1 -7.8709 -0.0062
1 3 2 4.9960 -0.0046
1 3 3 -4.1093 0.0155
1 3 4 2.5756 -0.0019
1 3 5 0.5026 -0.0089
1 3 6 -0.5384 0.0037
1 3 7 -0.6757 0.0027
1 3 8 0.1983 -0.0031
1 3 9 0.0547 -0.0040
1 3 10 -0.2021 0.0044
1 3 11 1.0541 0.0144
1 3 12 -0.6862 -0.0146
1 3 13 -0.5412 -0.0321
1 4 0 -3.9677 0.0197
1 4 1 1.9915 -0.0170
1 4 2 -1.6001 0.0112
1 4 3 1.1923 0.0064
1 4 4 1.9066 -0.0118
1 4 5 -3.0863 -0.0035
1 4 6 1.2557 0.0125
1 4 7 -0.2948 -0.0030
1 4 8 0.1882 -0.0112
1 4 9 -0.1645 0.0108
1 4 10 1.1528 0.0111
1 4 11 -1.6229 -0.0212
1 4 12 0.4572 -0.0129
1 4 13 0.5077 0.0498
1 5 1 4.8853 0.0024
1 5 2 -3.2179 0.0108
1 5 3 3.8512 -0.0140
1 5 4 -4.6748 -0.0014
1 5 5 2.9734 0.0127
1 5 6 -1.2186 -0.0035
1 5 7 0.6479 -0.0114
1 5 8 -0.2951 0.0084
1 5 9 0.6000 0.0124
1 5 10 -1.0381 -0.0164
1 5 11 0.3638 -0.0203
1 5 12 0.4662 0.0553
1 6 0 6.2097 -0.0106
1 6 1 -4.5688 0.0111
1 6 2 3.8806 -0.0051
1 6 3 -3.9521 -0.0040
1 6 4 2.6963 0.0065
1 6 5 -1.0385 0.0011
1 6 6 0.2889 -0.0115
1 6 7 0.0635 0.0066
1 6 8 -0.0591 0.0162
1 6 9 -0.0665 -0.0176
1 6 10 -0.5003 -0.0319
1 6 11 1.0583 0.0855
1 7 0 -1.8503 0.0141
1 7 1 1.6452 0.0002
1 7 2 -1.8760 -0.0113
1 7 3 1.3256 0.0056
1 7 4 -0.3005 -0.0005
1 7 5 -0.4822 -0.0011
1 7 6 0.9912 0.0040
1 7 7 -0.8932 0.0039
1 7 8 0.3392 -0.0068
1 7 9 -0.3452 -0.0338
1 7 10 0.7338 0.0927
1 8 0 0.2376 -0.0021
1 8 1 -0.6586 -0.0137
1 8 2 0.5541 0.0040
1 8 3 -0.3498 0.0025
1 8 4 0.0335 0.0102
1 8 5 0.6431 -0.0085
1 8 6 -0.9305 -0.0057
1 8 7 0.3242 0.0089
1 8 8 0.3630 -0.0244
1 8 9 -0.5463 0.0614
1 9 0 0.0950 -0.0153
1 9 1 -0.0963 0.0064
1 9 2 -0.3235 0.0111
1 9 3 0.9126 0.0019
1 9 4 -0.7471 -0.0081
1 9 5 0.2489 -0.0126
1 9 6 -0.1785 0.0127
1 9 7 0.4622 0.0073
1 9 8 -0.8310 -0.0059
1 10 0 -1.6513 0.0067
1 10 1 0.7986 0.0117
1 10 2 0.3383 -0.0037
1 10 3 -0.5930 -0.0043
1 10 4 0.3130 -0.0217
1 10 5 -0.1452 0.0177
1 10 6 -0.0696 0.0413
1 10 7 0.1028 -0.0789
1 11 0 1.5385 0.0160
1 11 1 -0.3852 0.0015
1 11 2 0.4452 -0.0234
1 11 3 -1.1675 -0.0079
1 11 4 1.2284 0.0225
1 11 5 -1.0121 0.0529
1 11 6 0.8697 -0.1217
1 12 0 0.1268 -0.0014
1 12 1 -0.1637 -0.0369
1 12 2 -0.9485 0.0151
1 12 3 1.5580 0.0327
1 12 4 -1.2900 0.0244
1 12 5 0.7906 -0.1229
1 13 0 -0.9633 -0.0228
1 13 1 1.0448 0.0154
1 13 2 -0.6028 0.0571
1 13 3 0.2215 -0.0544
1 14 0 1.1722 0.0010
1 14 1 -2.0618 0.0514
2 -17 2 -0.8158 0.0699
2 -17 3 0.6779 -0.0215
2 -17 4 -0.0191 0.0006
2 -17 5 -0.4867 -0.0195
2 -17 6 0.3369 0.0041
2 -17 7 -0.1217 0.0192
2 -17 8 0.1562 -0.0100
2 -17 9 0.3936 -0.0006
2 -17 10 -1.3523 0.0169
2 -17 11 1.2363 -0.0450
2 -17 12 -0.1023 0.0518
2 -16 0 0.8999 -0.0312
2 -16 1 -1.3827 0.0497
2 -16 2 1.1900 -0.0280
2 -16 3 -0.3351 0.0000
2 -16 4 -0.3683 -0.0150
2 -16 5 0.1989 0.0140
2 -16 6 0.0405 0.0166
2 -16 7 0.4466 -0.0199
2 -16 8 -0.3874 0.0041
2 -16 9 -0.9346 0.0097
2 -16 10 1.6731 -0.0324
2 -16 11 -0.8379 0.0442
2 -16 12 -0.1682 -0.0570
2 -16 13 0.5852 0.1149
2 -15 0 -0.9795 0.0073
2 -15 1 0.9366 0.0031
2 -15 2 -0.4039 -0.0202
2 -15 3 -0.2712 0.0051
2 -15 4 0.1646 0.0114
2 -15 5 0.3867 0.0083
2 -15 6 0.1128 -0.0205
2 -15 7 -0.8707 0.0059
2 -15 8 0.0480 0.0054
2 -15 9 1.1891 -0.0108
2 -15 10 -1.1086 0.0054
2 -15 11 0.5926 0.0077
2 -15 12 -0.2819 0.0256
2 -15 13 -0.5018 -0.1026
2 -15 14 1.2816 0.1369
2 -14 0 -0.4690 0.0153
2 -14 1 0.4879 -0.0193
2 -14 2 -0.5492 0.0094
2 -14 3 0.5824 0.0081
2 -14 4 -0.0202 -0.0009
2 -14 5 -0.0588 -0.0117
2 -14 6 -0.7472 0.0024
2 -14 7 0.5374 0.0091
2 -14 8 0.6586 -0.0073
2 -14 9 -0.9600 -0.0085
2 -14 10 0.9304 0.0387
2 -14 11 -1.3496 -0.0468
2 -14 12 0.8300 -0.0005
2 -14 13 0.3703 0.0658
2 -14 14 -0.5488 -0.1095
2 -14 15 0.3081 0.1384
2 -13 0 0.9792 0.0099
2 -13 1 -0.1824 -0.0135
2 -13 2 -0.1192 0.0140
2 -13 3 0.1341 -0.0043
2 -13 4 -0.2057 -0.0050
2 -13 5 -0.3888 -0.0010
2 -13 6 0.6762 0.0111
2 -13 7 0.1487 -0.0114
2 -13 8 -0.4990 0.0013
2 -13 9 0.4113 0.0181
2 -13 10 -1.3006 -0.0333
2 -13 11 1.6441 0.0234
2 -13 12 -0.4139 0.0041
2 -13 13 -0.0290 -0.0323
2 -13 14 -0.6388 0.0672
2 -13 15 0.2306 -0.0951
2 -13 16 0.6831 0.0773
2 -12 0 0.5909 -0.0239
2 -12 1 -1.4079 0.0118
2 -12 2 1.2139 0.0067
2 -12 3 -0.8918 -0.0120
2 -12 4 0.4622 0.0019
2 -12 5 0.1306 0.0077
2 -12 6 -0.0336 -0.0110
2 -12 7 0.0151 0.0089
2 -12 8 -0.6460 -0.0028
2 -12 9 0.2338 0.0002
2 -12 10 0.8637 -0.0048
2 -12 11 -0.4356 0.0057
2 -12 12 -0.2485 0.0061
2 -12 13 -0.6779 -0.0167
2 -12 14 1.2311 0.0106
2 -12 15 -0.1914 -0.0004
2 -12 16 -0.4624 -0.0019
2 -11 0 -0.5999 -0.0030
2 -11 1 0.4042 0.0188
2 -11 2 -0.0800 -0.0201
2 -11 3 0.2623 0.0048
2 -11 4 -0.5015 0.0027
2 -11 5 0.7466 -0.0036
2 -11 6 -0.7421 0.0069
2 -11 7 -0.2155 -0.0067
2 -11 8 1.0120 0.0061
2 -11 9 -0.5084 -0.0090
2 -11 10 0.1170 0.0077
2 -11 11 -0.3697 0.0026
2 -11 12 -0.3105 -0.0215
2 -11 13 1.4542 0.0399
2 -11 14 -1.2568 -0.0392
2 -11 15 0.3847 0.0122
2 -11 16 -0.2213 0.0362
2 -10 0 -1.7470 0.0106
2 -10 1 2.0379 -0.0091
2 -10 2 -1.7954 -0.0051
2 -10 3 0.8853 0.0052
2 -10 4 0.3135 0.0063
2 -10 5 -1.2242 -0.0056
2 -10 6 1.2155 0.0004
2 -10 7 -0.4432 0.0009
2 -10 8 -0.0843 -0.0009
2 -10 9 0.1137 -0.0051
2 -10 10 -0.0139 0.0071
2 -10 11 -0.4943 0.0015
2 -10 12 1.2980 -0.0009
2 -10 13 -1.4310 -0.0072
2 -10 14 0.8735 -0.0032
2 -10 15 -0.4277 0.0374
2 -10 16 0.2572 -0.0806
2 -10 17 -0.2161 0.0993
2 -9 0 1.5403 0.0072
2 -9 1 -2.1413 -0.0144
2 -9 2 2.8025 0.0118
2 -9 3 -2.2887 0.0072
2 -9 4 1.0386 -0.0131
2 -9 5 0.0450 0.0083
2 -9 6 -0.8331 -0.0062
2 -9 7 1.1674 -0.0000
2 -9 8 -0.9439 -0.0005
2 -9 9 0.7015 0.0076
2 -9 10 -0.9411 0.0040
2 -9 11 1.2913 -0.0206
2 -9 12 -1.0663 0.0175
2 -9 13 0.4678 -0.0124
2 -9 14 -0.1615 0.0169
2 -9 15 0.0482 -0.0248
2 -9 16 0.0942 0.0343
2 -9 17 -0.0386 -0.0271
2 -8 1 2.4447 0.0055
2 -8 2 -3.8004 0.0031
2 -8 3 2.8418 -0.0031
2 -8 4 -1.4878 -0.0037
2 -8 5 0.1870 -0.0034
2 -8 6 1.2675 0.0046
2 -8 7 -1.9633 0.0055
2 -8 8 1.6697 -0.0039
2 -8 9 -1.2912 0.0023
2 -8 10 1.2861 -0.0084
2 -8 11 -1.1041 0.0029
2 -8 12 0.3169 0.0046
2 -8 13 0.2755 -0.0042
2 -8 14 -0.0203 0.0121
2 -8 15 -0.3450 -0.0203
2 -8 16 0.4017 0.0213
2 -8 17 -0.3994 -0.0308
2 -7 0 1.1221 -0.0067
2 -7 1 -3.0459 0.0035
2 -7 2 1.2622 0.0052
2 -7 3 1.5377 -0.0203
2 -7 4 -2.7587 0.0122
2 -7 5 3.0841 0.0063
2 -7 6 -3.1730 -0.0031
2 -7 7 2.9000 -0.0044
2 -7 8 -2.1217 0.0027
2 -7 9 1.3222 0.0007
2 -7 10 -1.2992 -0.0119
2 -7 11 1.1456 0.0183
2 -7 12 0.0166 -0.0064
2 -7 13 -0.4554 0.0043
2 -7 14 -0.5470 -0.0157
2 -7 15 1.2236 0.0166
2 -7 16 -1.1869 -0.0261
2 -7 17 0.8959 0.0478
2 -6 0 -1.1147 -0.0002
2 -6 1 -0.4312 0.0026
2 -6 2 4.3003 -0.0110
2 -6 3 -6.6921 0.0093
2 -6 4 6.4317 0.0064
2 -6 5 -4.3716 -0.0085
2 -6 6 2.8925 -0.0001
2 -6 7 -2.7290 0.0019
2 -6 8 1.9631 -0.0002
2 -6 9 -1.2289 -0.0086
2 -6 10 1.7002 0.0147
2 -6 11 -0.8449 0.0028
2 -6 12 -1.2458 -0.0154
2 -6 13 1.0200 0.0035
2 -6 14 0.6128 -0.0038
2 -6 15 -0.9904 0.0078
2 -6 16 0.9072 0.0215
2 -5 0 -0.2535 0.0041
2 -5 1 -0.2568 0.0040
2 -5 2 -0.5912 -0.0120
2 -5 3 2.5569 0.0165
2 -5 4 -1.9038 -0.0064
2 -5 5 -0.9408 -0.0074
2 -5 6 0.6227 0.0072
2 -5 7 1.3585 -0.0041
2 -5 8 -1.1614 0.0003
2 -5 9 1.2665 0.0069
2 -5 10 -1.5052 0.0037
2 -5 11 -1.2186 -0.0184
2 -5 12 3.2556 0.0047
2 -5 13 -1.6852 0.0025
2 -5 14 0.3902 0.0159
2 -5 15 -0.5236 -0.0049
2 -5 16 0.1903 -0.0269
2 -4 0 -7.7370 0.0002
2 -4 2 -12.3230 0.0195
2 -4 3 5.3587 -0.0035
2 -4 4 -5.2470 -0.0164
2 -4 5 6.9410 0.0133
2 -4 6 -3.2579 -0.0020
2 -4 7 0.1001 0.0018
2 -4 8 0.3459 0.0006
2 -4 9 -1.6177 -0.0009
2 -4 10 0.6418 -0.0076
2 -4 11 2.9487 -0.0000
2 -4 12 -3.3040 0.0109
2 -4 13 1.5344 0.0076
2 -4 14 -1.6313 -0.0114
2 -4 15 1.7310 -0.0265
2 -4 16 -1.0115 0.0368
2 -3 0 24.3795 -0.0011
2 -3 3 -4.1169 -0.0142
2 -3 4 6.5519 0.0094
2 -3 5 -7.3539 0.0087
2 -3 6 2.7657 -0.0091
2 -3 7 -0.6195 -0.0014
2 -3 8 -0.9995 0.0020
2 -3 9 2.8381 0.0006
2 -3 10 -0.5795 -0.0051
2 -3 11 -2.0658 0.0088
2 -3 12 1.4421 0.0083
2 -3 13 -1.3323 -0.0200
2 -3 14 2.1835 -0.0165
2 -3 15 -1.6333 0.0552
2 -3 16 0.9427 -0.0400
2 -2 3 -2.0077 0.0005
2 -2 4 -4.0104 0.0134
2 -2 5 3.4615 -0.0165
2 -2 6 -0.4519 0.0015
2 -2 7 -0.5848 0.0089
2 -2 8 3.0989 -0.0021
2 -2 9 -3.6653 -0.0092
2 -2 10 0.7701 0.0117
2 -2 11 0.5091 0.0027
2 -2 12 -0.5011 -0.0192
2 -2 13 1.4849 0.0049
2 -2 14 -1.5571 0.0266
2 -2 15 0.6599 -0.0277
2 -1 0 35.2701 0.0001
2 -1 2 -5.8839 -0.0015
2 -1 3 2.9700 0.0031
2 -1 4 1.5693 -0.0029
2 -1 5 0.3832 -0.0010
2 -1 6 -1.2002 0.0080
2 -1 7 2.0295 -0.0062
2 -1 8 -3.6001 -0.0047
2 -1 9 2.1035 0.0093
2 -1 10 0.0177 -0.0034
2 -1 11 -0.2423 -0.0023
2 -1 12 0.5899 0.0011
2 -1 13 -0.9157 -0.0026
2 -1 14 0.4820 0.0210
2 -1 15 -0.1045 -0.0418
2 0 1 -1.3264 0.0003
2 0 2 7.0912 -0.0037
2 0 3 -0.7634 0.0152
2 0 4 -0.5732 -0.0111
2 0 5 -0.3670 -0.0001
2 0 6 0.4122 0.0026
2 0 7 -1.6559 -0.0019
2 0 8 1.5121 -0.0030
2 0 9 0.3704 0.0100
2 0 10 -0.8767 -0.0019
2 0 11 0.4763 -0.0140
2 0 12 -0.2006 0.0064
2 0 13 -0.0020 0.0287
2 0 14 -0.4494 -0.0606
2 1 0 1.4663 -0.0079
2 1 1 10.0413 0.0123
2 1 2 -5.3172 0.0073
2 1 3 -0.8022 -0.0129
2 1 4 2.4291 -0.0056
2 1 5 -2.4755 0.0150
2 1 6 0.6641 -0.0080
2 1 7 0.7944 -0.0047
2 1 8 0.2844 0.0184
2 1 9 -1.4122 -0.0131
2 1 10 1.3267 -0.0120
2 1 11 -0.5876 0.0177
2 1 12 -0.4075 0.0063
2 1 13 0.0747 -0.0248
2 1 14 1.0804 0.0239
2 2 1 -10.4928 -0.0153
2 2 2 3.1612 -0.0036
2 2 3 2.3345 -0.0041
2 2 4 -4.4107 0.0126
2 2 5 2.5371 -0.0054
2 2 6 0.6186 -0.0021
2 2 7 -0.9619 0.0076
2 2 8 -0.4517 -0.0055
2 2 9 1.4272 -0.0111
2 2 10 -1.5076 0.0143
2 2 11 0.1792 0.0053
2 2 12 0.8433 -0.0034
2 2 13 0.1350 -0.0285
2 3 0 -8.2933 -0.0131
2 3 1 5.6382 -0.0050
2 3 2 -0.7649 0.0035
2 3 3 -3.0618 0.0021
2 3 4 2.8032 0.0053
2 3 5 0.5640 -0.0077
2 3 6 -2.1720 0.0010
2 3 7 1.3480 0.0043
2 3 8 -0.2491 -0.0125
2 3 9 -0.6503 0.0096
2 3 10 0.3615 0.0156
2 3 11 1.0146 -0.0154
2 3 12 -1.0019 -0.0381
2 3 13 -0.0763 0.0813
2 4 0 2.2078 -0.0175
2 4 1 -1.4592 0.0103
2 4 2 -1.2022 0.0004
2 4 3 2.1725 0.0028
2 4 4 0.1895 -0.0042
2 4 5 -2.1960 -0.0028
2 4 6 2.0408 0.0021
2 4 7 -1.6216 0.0014
2 4 8 1.2251 -0.0029
2 4 9 -0.8205 0.0162
2 4 10 1.2553 -0.0178
2 4 11 -1.3355 -0.0311
2 4 12 0.2934 0.0912
2 5 0 -0.5897 0.0019
2 5 1 -0.4038 0.0090
2 5 2 1.5355 -0.0074
2 5 3 -0.1679 0.0072
2 5 4 -1.6892 -0.0124
2 5 5 1.7156 0.0040
2 5 6 -1.2684 0.0125
2 5 7 1.2566 -0.0151
2 5 8 -1.0862 0.0089
2 5 9 1.0762 0.0016
2 5 10 -1.0010 -0.0364
2 5 11 0.1504 0.0851
2 6 0 1.1991 0.0166
2 6 1 -0.1422 -0.0061
2 6 2 0.6504 0.0024
2 6 3 -1.9197 -0.0088
2 6 4 1.8526 0.0025
2 6 5 -0.8631 0.0124
2 6 6 0.1788 -0.0109
2 6 7 0.1394 -0.0052
2 6 8 -0.0858 0.0209
2 6 9 -0.1389 -0.0385
2 6 10 -0.0670 0.0591
2 7 0 -1.4844 0.0053
2 7 1 1.5092 -0.0120
2 7 2 -1.9668 0.0035
2 7 3 1.7755 -0.0071
2 7 4 -0.9681 0.0165
2 7 5 0.1362 -0.0043
2 7 6 0.3248 -0.0152
2 7 7 -0.2282 0.0178
2 7 8 -0.0496 -0.0109
2 7 9 0.0407 0.0060
2 8 0 -0.0885 -0.0136
2 8 1 0.1744 -0.0002
2 8 2 -0.2957 -0.0011
2 8 3 0.1001 0.0157
2 8 4 0.1430 -0.0019
2 8 5 -0.3959 -0.0194
2 8 6 1.0562 0.0005
2 8 7 -1.4589 0.0403
2 8 8 0.9298 -0.0635
2 9 0 2.7155 -0.0124
2 9 1 -2.8276 0.0160
2 9 2 1.6717 0.0050
2 9 3 -0.3152 0.0000
2 9 4 -0.2728 -0.0261
2 9 5 1.1172 0.0028
2 9 6 -2.0335 0.0624
2 9 7 1.5625 -0.1027
2 10 0 -2.5923 0.0198
2 10 1 1.4122 -0.0019
2 10 2 0.5172 -0.0055
2 10 3 -0.6822 -0.0198
2 10 4 0.1909 0.0108
2 10 5 -0.6895 0.0461
2 10 6 0.7841 -0.0803
2 11 0 0.3359 -0.0092
2 11 1 1.5164 -0.0045
2 11 2 -2.0431 -0.0037
2 11 3 0.5917 -0.0065
2 11 4 0.1316 0.0540
2 11 5 -0.0212 -0.0623
2 12 0 0.0500 0.0070
2 12 1 -1.3297 0.0001
2 12 2 0.9038 -0.0193
2 12 3 -0.0848 0.0799
2 13 0 1.1198 0.0214
2 13 1 -0.5286 -0.0269
2 13 2 0.4862 0.0657
2 14 0 -1.3020 -0.0732
3 -17 2 -0.4389 0.0344
3 -17 3 0.0033 -0.0302
3 -17 4 0.0136 0.0004
3 -17 5 0.1193 0.0091
3 -17 6 -0.0406 -0.0062
3 -17 7 0.1301 0.0047
3 -17 8 -0.3631 0.0038
3 -17 9 0.4579 -0.0047
3 -17 10 -0.6671 0.0094
3 -17 11 0.7461 -0.0376
3 -16 0 0.4602 -0.0616
3 -16 1 -0.5556 0.0341
3 -16 2 0.2951 -0.0278
3 -16 3 -0.0704 0.0026
3 -16 4 0.2053 0.0108
3 -16 5 -0.4604 -0.0064
3 -16 6 0.6456 0.0061
3 -16 7 -0.4908 -0.0016
3 -16 8 0.0106 -0.0037
3 -16 9 0.0596 0.0062
3 -16 10 0.3113 -0.0296
3 -16 11 -0.0105 0.0547
3 -16 12 -1.0363 -0.0409
3 -16 13 1.3952 0.0153
3 -15 0 0.4118 0.0038
3 -15 1 -0.9591 -0.0034
3 -15 2 1.1454 -0.0072
3 -15 3 -0.9144 0.0120
3 -15 4 0.4651 -0.0012
3 -15 5 0.0405 -0.0020
3 -15 6 -0.0752 0.0015
3 -15 7 -0.5634 -0.0035
3 -15 8 0.8321 -0.0038
3 -15 9 -0.1238 0.0041
3 -15 10 -0.5502 0.0161
3 -15 11 0.3607 -0.0279
3 -15 12 0.1953 0.0179
3 -15 13 -0.2693 -0.0116
3 -15 14 -0.2314 0.0269
3 -14 0 -2.0170 0.0098
3 -14 1 2.4452 -0.0102
3 -14 2 -1.8018 0.0111
3 -14 3 1.1434 0.0012
3 -14 4 -0.7321 -0.0059
3 -14 5 0.5726 0.0039
3 -14 6 -1.0228 -0.0077
3 -14 7 1.3327 0.0026
3 -14 8 -0.5986 0.0172
3 -14 9 -0.5325 -0.0285
3 -14 10 1.3645 0.0173
3 -14 11 -1.7770 0.0075
3 -14 12 1.4093 -0.0291
3 -14 13 -0.8090 0.0411
3 -14 14 0.9163 -0.0504
3 -14 15 -0.9098 0.0509
3 -13 0 1.5254 0.0042
3 -13 1 -0.8660 0.0036
3 -13 2 0.1388 0.0016
3 -13 3 -0.5789 -0.0025
3 -13 4 1.3143 -0.0034
3 -13 5 -1.8471 -0.0005
3 -13 6 1.9284 0.0090
3 -13 7 -1.0956 -0.0044
3 -13 8 0.2245 -0.0167
3 -13 9 0.1268 0.0346
3 -13 10 -0.8825 -0.0223
3 -13 11 1.4300 -0.0122
3 -13 12 -0.6114 0.0345
3 -13 13 0.0226 -0.0342
3 -13 14 -0.6801 0.0151
3 -13 15 0.7202 0.0261
3 -12 0 0.7923 0.0039
3 -12 1 -1.3012 -0.0024
3 -12 2 -0.0198 -0.0007
3 -12 3 2.4602 -0.0032
3 -12 4 -3.9102 0.0030
3 -12 5 3.7560 0.0012
3 -12 6 -2.1255 -0.0104
3 -12 7 0.5295 0.0154
3 -12 8 -0.7383 -0.0014
3 -12 9 1.3516 -0.0131
3 -12 10 -0.7188 0.0086
3 -12 11 0.5127 -0.0017
3 -12 12 -1.2501 0.0029
3 -12 13 0.7408 -0.0091
3 -12 14 0.5971 0.0321
3 -12 15 -0.5337 -0.0682
3 -12 16 -0.2312 0.0791
3 -11 0 -1.2162 -0.0145
3 -11 1 0.4708 0.0058
3 -11 2 2.3660 -0.0003
3 -11 4 5.2757 0.0047
3 -11 5 -3.5363 0.0053
3 -11 6 0.8032 0.0038
3 -11 7 0.2924 -0.0154
3 -11 8 0.8377 0.0139
3 -11 9 -1.3927 -0.0088
3 -11 10 0.6223 -0.0047
3 -11 11 -0.5564 0.0208
3 -11 12 0.8199 -0.0168
3 -11 13 0.1163 0.0052
3 -11 14 -0.9788 -0.0091
3 -11 15 0.4971 0.0182
3 -11 16 0.1411 -0.0138
3 -10 0 0.8443 0.0116
3 -10 1 0.1095 -0.0108
3 -10 4 -3.0739 0.0054
3 -10 5 1.3439 -0.0183
3 -10 6 0.5406 0.0099
3 -10 7 -0.7405 0.0013
3 -10 8 -0.1157 -0.0147
3 -10 9 -0.2378 0.0156
3 -10 10 1.2824 0.0030
3 -10 11 -1.2272 -0.0065
3 -10 12 0.7679 -0.0110
3 -10 13 -0.8866 0.0209
3 -10 14 0.7041 -0.0204
3 -10 15 0.0520 0.0134
3 -10 16 -0.3631 -0.0008
3 -9 0 -1.6903 -0.0121
3 -9 3 -1.3362 -0.0040
3 -9 4 1.1958 -0.0110
3 -9 5 -0.6818 0.0108
3 -9 6 -0.0128 -0.0118
3 -9 7 0.0348 0.0053
3 -9 8 0.0417 0.0092
3 -9 9 0.9303 -0.0052
3 -9 10 -1.9399 -0.0010
3 -9 11 1.8180 -0.0086
3 -9 12 -1.3085 0.0096
3 -9 13 0.8638 -0.0030
3 -9 14 -0.0537 0.0020
3 -9 15 -0.6027 0.0072
3 -9 16 0.3157 -0.0144
3 -8 3 1.0715 -0.0027
3 -8 4 -0.8648 -0.0078
3 -8 5 1.0770 0.0093
3 -8 6 -0.8143 0.0047
3 -8 7 0.6977 -0.0048
3 -8 8 -0.5861 0.0043
3 -8 9 -0.1303 -0.0089
3 -8 10 1.0208 0.0006
3 -8 11 -1.7352 -0.0002
3 -8 12 2.0065 0.0134
3 -8 13 -1.2521 -0.0119
3 -8 14 0.0075 0.0057
3 -8 15 0.4041 -0.0043
3 -8 16 0.2110 -0.0124
3 -7 1 -3.1830 -0.0089
3 -7 2 1.3496 -0.0100
3 -7 3 0.7567 0.0007
3 -7 4 -0.4814 0.0184
3 -7 5 -0.2662 -0.0088
3 -7 6 0.1023 -0.0040
3 -7 7 0.0905 0.0063
3 -7 8 0.1731 -0.0092
3 -7 9 -0.2469 0.0009
3 -7 10 -0.9109 0.0062
3 -7 11 2.6794 0.0043
3 -7 12 -2.7773 -0.0049
3 -7 13 1.1492 -0.0054
3 -7 14 0.0362 0.0052
3 -7 15 -0.0782 -0.0141
3 -7 16 -0.4228 0.0277
3 -6 0 -0.0027 -0.0056
3 -6 3 -2.6430 0.0019
3 -6 4 1.1618 -0.0076
3 -6 5 -0.3275 -0.0022
3 -6 6 0.9666 0.0040
3 -6 7 -1.5045 -0.0035
3 -6 8 0.5124 -0.0041
3 -6 9 0.2001 0.0138
3 -6 10 1.4302 -0.0056
3 -6 11 -2.6942 0.0003
3 -6 12 1.2293 -0.0083
3 -6 13 0.3051 0.0018
3 -6 14 -0.2877 0.0050
3 -6 15 0.0482 0.0016
3 -6 16 0.3075 0.0166
3 -5 0 -2.6218 -0.0107
3 -5 1 1.2661 0.0163
3 -5 2 -0.7481 -0.0025
3 -5 3 -0.1370 -0.0075
3 -5 4 1.1548 0.0024
3 -5 5 -1.2921 0.0002
3 -5 6 -0.1930 -0.0019
3 -5 7 0.8958 0.0003
3 -5 8 0.6206 0.0078
3 -5 9 -0.6607 -0.0027
3 -5 10 -1.2574 -0.0057
3 -5 11 0.7584 -0.0020
3 -5 12 1.1179 -0.0017
3 -5 13 -0.7471 0.0155
3 -5 14 -0.1015 -0.0100
3 -5 15 0.0013 0.0236
3 -5 16 -0.3467 -0.0696
3 -4 0 0.2758 -0.0008
3 -4 1 4.2754 0.0087
3 -4 2 -6.0307 -0.0135
3 -4 3 5.0235 0.0079
3 -4 4 -5.0124 -0.0056
3 -4 5 4.8772 0.0024
3 -4 6 -2.5096 0.0058
3 -4 7 1.4762 -0.0048
3 -4 8 -1.8467 0.0040
3 -4 9 -0.0476 -0.0084
3 -4 10 1.2814 -0.0013
3 -4 11 0.5259 0.0058
3 -4 12 -0.8934 0.0088
3 -4 13 -0.6056 -0.0031
3 -4 14 0.4331 -0.0051
3 -4 15 0.1067 -0.0389
3 -3 0 5.5434 0.0092
3 -3 1 -11.9444 -0.0088
3 -3 2 10.6031 -0.0002
3 -3 3 -7.5070 0.0021
3 -3 4 8.4715 0.0027
3 -3 5 -7.7004 0.0029
3 -3 6 3.8030 -0.0084
3 -3 7 -1.7768 0.0054
3 -3 8 0.1222 -0.0036
3 -3 9 2.1580 -0.0057
3 -3 10 -1.2775 0.0150
3 -3 11 -0.4460 -0.0003
3 -3 12 -0.6372 -0.0064
3 -3 13 1.1743 -0.0156
3 -3 14 0.0734 0.0061
3 -3 15 -0.2812 0.0394
3 -2 0 -12.2114 0.0019
3 -2 1 14.8153 -0.0078
3 -2 2 -8.5784 0.0131
3 -2 3 6.6713 -0.0050
3 -2 4 -8.8195 -0.0017
3 -2 5 6.1332 -0.0013
3 -2 6 -1.6464 0.0016
3 -2 7 -0.3925 0.0006
3 -2 8 2.1363 -0.0043
3 -2 9 -2.1094 0.0112
3 -2 10 -0.2914 -0.0029
3 -2 11 0.5199 -0.0132
3 -2 12 0.9617 0.0014
3 -2 13 -0.6709 0.0133
3 -2 14 0.0043 0.0096
3 -2 15 -0.0526 -0.0266
3 -1 0 14.7536 0.0018
3 -1 1 -8.7898 0.0041
3 -1 2 1.2806 -0.0054
3 -1 3 -2.8523 -0.0043
3 -1 4 4.7592 0.0085
3 -1 5 -1.8027 -0.0049
3 -1 6 -0.4791 0.0019
3 -1 7 1.2817 0.0010
3 -1 8 -1.5675 -0.0015
3 -1 9 -0.3098 0.0014
3 -1 10 1.8031 -0.0068
3 -1 11 -0.5683 0.0036
3 -1 12 -0.7406 0.0078
3 -1 13 1.0618 0.0058
3 -1 14 -1.1747 -0.0344
3 0 0 -7.6483 -0.0103
3 0 1 -2.1838 -0.0017
3 0 2 4.9966 0.0002
3 0 3 -0.7970 0.0091
3 0 4 -0.7639 -0.0075
3 0 5 0.0239 0.0011
3 0 6 0.1894 0.0017
3 0 7 -0.7346 -0.0054
3 0 8 0.3315 0.0060
3 0 9 1.2284 -0.0001
3 0 10 -1.4513 -0.0078
3 0 11 0.4252 0.0135
3 0 12 0.7909 0.0010
3 0 13 -1.9306 -0.0426
3 0 14 1.6594 0.0700
3 1 0 -1.8291 -0.0062
3 1 1 6.7934 0.0123
3 1 2 -4.6259 -0.0016
3 1 3 0.8803 -0.0015
3 1 4 0.5051 -0.0056
3 1 5 -0.7859 0.0030
3 1 6 -0.0283 0.0026
3 1 7 1.0122 0.0003
3 1 8 -0.5917 -0.0007
3 1 9 -0.3326 -0.0043
3 1 10 0.8920 0.0079
3 1 11 -0.6539 -0.0026
3 1 12 -0.8592 -0.0270
3 1 13 1.7817 0.0689
3 2 0 3.1443 0.0130
3 2 1 -3.1672 -0.0033
3 2 2 0.8707 -0.0011
3 2 3 1.0691 -0.0106
3 2 4 -1.7880 0.0101
3 2 5 0.8705 0.0067
3 2 6 0.7406 -0.0107
3 2 7 -1.3224 0.0012
3 2 8 1.0482 0.0066
3 2 9 -0.2469 -0.0106
3 2 10 -0.7137 0.0061
3 2 11 0.1919 -0.0016
3 2 12 1.1237 0.0184
3 3 0 -0.2811 0.0110
3 3 1 0.1271 -0.0143
3 3 2 1.1667 -0.0028
3 3 3 -2.5207 0.0128
3 3 4 1.9574 0.0030
3 3 5 -0.0908 -0.0136
3 3 6 -0.8680 0.0035
3 3 7 1.1547 0.0085
3 3 8 -1.3171 -0.0157
3 3 9 0.6695 0.0123
3 3 10 -0.3679 0.0120
3 3 11 1.2377 -0.0339
3 3 12 -1.2260 0.0308
3 4 0 -0.1263 -0.0177
3 4 1 0.3718 0.0041
3 4 2 -2.2239 0.0082
3 4 3 2.4702 0.0020
3 4 4 -0.4576 -0.0111
3 4 5 -0.8718 0.0003
3 4 6 1.0229 0.0074
3 4 7 -1.4073 -0.0040
3 4 8 1.3702 0.0018
3 4 9 -0.8694 0.0100
3 4 10 1.2668 -0.0374
3 4 11 -1.6040 0.0561
3 5 0 0.4537 -0.0042
3 5 1 -1.8081 0.0070
3 5 2 2.4138 0.0064
3 5 3 -0.3265 -0.0137
3 5 4 -1.5243 -0.0025
3 5 5 1.4279 0.0116
3 5 6 -1.1105 0.0044
3 5 7 0.8922 -0.0154
3 5 8 -0.1470 0.0057
3 5 9 -0.0258 0.0018
3 5 10 -0.5420 0.0076
3 6 0 -1.9591 0.0087
3 6 1 2.5356 0.0083
3 6 2 -0.5802 -0.0191
3 6 3 -1.6181 0.0015
3 6 4 1.5274 0.0150
3 6 5 -0.5617 -0.0012
3 6 6 -0.0062 -0.0164
3 6 7 0.7450 0.0016
3 6 8 -1.2830 0.0372
3 6 9 0.9984 -0.0606
3 7 0 1.6859 0.0010
3 7 1 -0.7484 -0.0126
3 7 2 -1.1301 0.0044
3 7 3 1.2425 0.0091
3 7 4 -0.1517 -0.0036
3 7 5 -0.5946 -0.0035
3 7 6 1.0479 -0.0135
3 7 7 -1.3091 0.0535
3 7 8 1.1912 -0.0901
3 8 0 0.7012 0.0074
3 8 1 -1.4615 -0.0044
3 8 2 1.5829 0.0018
3 8 3 -0.8848 0.0104
3 8 4 0.0873 -0.0090
3 8 5 0.5983 -0.0190
3 8 6 -0.7614 0.0525
3 8 7 0.4768 -0.0775
3 9 0 -2.4995 -0.0102
3 9 1 2.1507 -0.0005
3 9 2 -1.8920 0.0205
3 9 3 1.5447 -0.0279
3 9 4 -0.4323 0.0044
3 9 5 -0.3501 0.0185
3 9 6 0.0281 -0.0260
3 10 0 1.3580 -0.0112
3 10 1 -0.9471 0.0158
3 10 2 1.3946 -0.0190
3 10 3 -0.7262 0.0119
3 10 4 -0.5898 -0.0181
3 10 5 0.3872 0.0436
3 11 0 1.4047 0.0073
3 11 1 -0.7402 0.0165
3 11 2 0.2906 -0.0290
3 11 3 -1.4302 0.0037
3 11 4 1.6176 0.0607
3 12 0 -2.0118 0.0549
3 12 1 1.0130 -0.0835
3 12 2 -1.4385 0.0664
3 13 0 0.4314 -0.1194
4 -17 2 -1.0909 -0.0314
4 -17 3 0.8404 -0.0066
4 -17 4 -0.6408 0.0144
4 -17 5 0.9499 0.0141
4 -17 6 -0.6229 -0.0224
4 -17 7 -0.1236 0.0047
4 -17 8 -0.0289 0.0105
4 -17 9 0.5643 -0.0117
4 -17 10 -0.4007 0.0275
4 -17 11 -0.0015 -0.0799
4 -16 0 0.1844 -0.0491
4 -16 1 -0.7860 -0.0254
4 -16 2 0.8068 0.0184
4 -16 3 -0.2624 0.0052
4 -16 4 0.3560 0.0064
4 -16 5 -0.7138 -0.0215
4 -16 6 0.5107 0.0095
4 -16 7 -0.2653 0.0138
4 -16 8 0.0939 -0.0148
4 -16 9 0.5036 -0.0011
4 -16 10 -0.8502 -0.0143
4 -16 11 0.4313 0.0774
4 -16 12 -0.2885 -0.1411
4 -15 0 -0.2408 -0.0079
4 -15 1 -0.1010 0.0247
4 -15 2 0.7906 -0.0080
4 -15 3 -0.9055 -0.0026
4 -15 4 0.1152 -0.0030
4 -15 5 0.6538 0.0064
4 -15 6 -0.9758 0.0074
4 -15 7 0.7549 -0.0182
4 -15 8 0.3120 0.0000
4 -15 9 -1.3556 0.0273
4 -15 10 0.9582 -0.0164
4 -15 11 0.2024 -0.0491
4 -15 12 -0.3720 0.1243
4 -15 13 -0.0672 -0.1406
4 -14 0 -0.3166 0.0082
4 -14 1 0.9598 -0.0103
4 -14 3 -0.1324 0.0122
4 -14 4 1.0656 -0.0065
4 -14 5 -1.5207 -0.0032
4 -14 6 1.5792 -0.0013
4 -14 7 -0.9247 0.0039
4 -14 8 -0.4017 0.0107
4 -14 9 1.1561 -0.0315
4 -14 10 -0.4882 0.0256
4 -14 11 -0.3763 0.0223
4 -14 12 0.0620 -0.0649
4 -14 13 0.4027 0.0643
4 -14 14 0.2689 -0.0656
4 -13 3 2.3959 -0.0148
4 -13 4 -1.9540 0.0006
4 -13 5 1.1387 0.0106
4 -13 6 -0.6646 -0.0071
4 -13 7 0.2385 -0.0038
4 -13 8 0.6314 0.0057
4 -13 9 -1.3993 0.0091
4 -13 10 1.2106 -0.0147
4 -13 11 -0.8950 0.0075
4 -13 12 1.4157 -0.0178
4 -13 13 -1.4175 0.0190
4 -13 14 0.0348 0.0271
4 -13 15 0.8726 -0.0603
4 -12 4 0.7425 0.0028
4 -12 5 0.6246 -0.0059
4 -12 6 -0.6954 0.0005
4 -12 7 0.3008 0.0148
4 -12 8 -0.9876 -0.0160
4 -12 9 2.0383 0.0030
4 -12 10 -1.7911 0.0040
4 -12 11 1.2178 -0.0211
4 -12 12 -1.5165 0.0425
4 -12 13 1.2693 -0.0199
4 -12 14 0.0340 -0.0278
4 -12 15 -0.6279 0.0339
4 -11 3 1.2715 0.0026
4 -11 4 0.2724 0.0029
4 -11 5 -1.1725 0.0002
4 -11 6 0.4895 0.0016
4 -11 7 0.1792 -0.0045
4 -11 8 0.8491 -0.0019
4 -11 9 -1.6648 -0.0034
4 -11 10 0.5256 0.0115
4 -11 11 0.4252 0.0005
4 -11 12 0.2189 -0.0044
4 -11 13 -0.6283 -0.0116
4 -11 14 0.1684 0.0118
4 -11 15 -0.0747 0.0050
4 -10 0 -1.5009 -0.0072
4 -10 1 -0.3799 -0.0009
4 -10 2 1.2331 0.0105
4 -10 3 -0.8571 0.0012
4 -10 4 -0.2856 -0.0033
4 -10 5 0.7527 -0.0031
4 -10 6 0.2269 0.0054
4 -10 7 -0.5478 -0.0149
4 -10 8 -0.7498 0.0118
4 -10 9 0.9357 0.0115
4 -10 10 0.6964 -0.0187
4 -10 11 -1.1421 0.0109
4 -10 12 -0.1085 -0.0075
4 -10 13 0.6659 -0.0065
4 -10 14 -0.3999 0.0238
4 -10 15 0.5231 -0.0220
4 -9 0 0.4111 0.0079
4 -9 1 0.4596 0.0056
4 -9 2 -0.6822 0.0008
4 -9 3 0.3198 -0.0060
4 -9 4 0.6943 -0.0013
4 -9 5 -0.9135 -0.0004
4 -9 6 -0.1151 -0.0045
4 -9 7 0.1139 0.0124
4 -9 8 1.1063 0.0023
4 -9 9 -0.9593 -0.0122
4 -9 10 -0.1757 0.0015
4 -9 11 0.0285 0.0046
4 -9 12 0.4420 -0.0110
4 -9 13 0.2396 0.0166
4 -9 14 -0.6491 0.0007
4 -9 15 0.0329 -0.0146
4 -8 0 0.1612 -0.0084
4 -8 1 -0.3469 0.0065
4 -8 2 0.2837 -0.0093
4 -8 3 -0.0051 -0.0025
4 -8 4 -0.9596 -0.0007
4 -8 5 1.0244 0.0100
4 -8 6 0.0887 -0.0010
4 -8 7 -0.1759 0.0017
4 -8 8 -0.6882 -0.0096
4 -8 9 0.7451 -0.0016
4 -8 10 -0.4222 0.0096
4 -8 11 0.1562 -0.0063
4 -8 12 0.9969 0.0035
4 -8 13 -2.2021 0.0181
4 -8 14 1.7869 -0.0416
4 -8 15 -0.5826 0.0235
4 -7 0 -1.4394 0.0071
4 -7 1 0.8172 -0.0085
4 -7 2 -0.6330 -0.0047
4 -7 3 0.3283 0.0096
4 -7 4 0.7681 0.0072
4 -7 5 -0.6017 -0.0068
4 -7 6 -0.8881 -0.0018
4 -7 7 1.4026 -0.0032
4 -7 8 -0.6622 -0.0005
4 -7 9 -0.1028 0.0065
4 -7 10 0.0993 0.0005
4 -7 11 1.0129 -0.0006
4 -7 12 -2.2553 0.0021
4 -7 13 2.1640 -0.0154
4 -7 14 -1.0770 0.0061
4 -7 15 0.2805 0.0204
4 -6 0 2.5768 -0.0027
4 -6 1 -0.9534 0.0011
4 -6 2 0.7833 0.0101
4 -6 3 -0.2298 -0.0017
4 -6 4 -0.8526 -0.0033
4 -6 5 0.2498 -0.0067
4 -6 6 1.4468 0.0052
4 -6 7 -1.8142 -0.0021
4 -6 8 0.4327 0.0053
4 -6 9 0.7189 0.0022
4 -6 10 0.0207 -0.0038
4 -6 11 -1.2788 -0.0100
4 -6 12 1.0338 0.0169
4 -6 13 -0.1796 -0.0221
4 -6 14 -0.0162 0.0264
4 -6 15 0.0271 -0.0075
4 -5 0 -2.9223 0.0078
4 -5 1 1.5150 -0.0050
4 -5 2 -1.2650 0.0019
4 -5 3 0.2149 -0.0015
4 -5 4 0.8832 -0.0082
4 -5 5 -0.5245 0.0076
4 -5 6 -0.4138 0.0015
4 -5 7 -0.1478 -0.0006
4 -5 8 1.9044 0.0036
4 -5 9 -1.8305 -0.0096
4 -5 10 -0.1232 0.0018
4 -5 11 0.4572 0.0074
4 -5 12 0.6383 -0.0116
4 -5 13 -0.3929 0.0077
4 -5 14 -0.2310 0.0275
4 -5 15 -0.0629 -0.0644
4 -4 0 4.7476 -0.0091
4 -4 1 -3.2363 0.0065
4 -4 2 1.8739 -0.0043
4 -4 3 -0.3471 -0.0049
4 -4 4 -0.9900 0.0074
4 -4 5 1.3190 0.0033
4 -4 6 -1.1212 -0.0057
4 -4 7 2.1724 0.0034
4 -4 8 -2.9887 -0.0081
4 -4 9 1.0668 0.0090
4 -4 10 0.6312 -0.0094
4 -4 11 0.3914 0.0121
4 -4 12 -0.7083 -0.0086
4 -4 13 -0.6139 0.0258
4 -4 14 0.4969 -0.0662
4 -3 0 -4.7606 -0.0059
4 -3 1 1.4300 0.0004
4 -3 2 0.1231 0.0020
4 -3 3 -0.5590 0.0019
4 -3 4 1.2321 0.0010
4 -3 5 -1.0439 -0.0021
4 -3 6 0.7918 -0.0032
4 -3 7 -1.9131 0.0030
4 -3 8 1.6445 -0.0023
4 -3 9 0.4120 0.0014
4 -3 10 -0.2315 0.0073
4 -3 11 -1.0994 -0.0036
4 -3 12 0.0957 -0.0098
4 -3 13 0.8637 -0.0006
4 -3 14 0.0347 0.0105
4 -2 0 -1.1622 0.0133
4 -2 1 4.1252 0.0024
4 -2 2 -2.7987 -0.0067
4 -2 3 1.1576 0.0029
4 -2 4 -0.4120 0.0004
4 -2 5 -0.7966 -0.0050
4 -2 6 0.4605 0.0055
4 -2 7 1.0521 -0.0064
4 -2 8 -0.4162 0.0138
4 -2 9 -0.4194 -0.0107
4 -2 10 -0.8765 0.0024
4 -2 11 1.1757 -0.0164
4 -2 12 0.1134 0.0354
4 -2 13 -0.1653 -0.0384
4 -2 14 -0.2288 0.0495
4 -1 0 5.9001 -0.0050
4 -1 1 -5.2602 -0.0054
4 -1 2 1.9798 0.0022
4 -1 3 -0.3410 0.0015
4 -1 4 -0.9681 -0.0001
4 -1 5 1.7741 -0.0048
4 -1 6 -0.1114 0.0080
4 -1 7 -1.0997 0.0021
4 -1 8 0.1486 -0.0122
4 -1 9 -0.1267 0.0009
4 -1 10 1.0101 0.0087
4 -1 11 -0.6527 0.0030
4 -1 12 0.2454 -0.0110
4 -1 13 -0.4083 0.0137
4 0 0 -3.1389 0.0035
4 0 1 0.9955 -0.0048
4 0 2 0.1289 0.0068
4 0 3 -0.3524 -0.0008
4 0 4 1.3051 -0.0068
4 0 5 -0.7500 0.0130
4 0 6 -1.0505 -0.0109
4 0 7 0.9594 -0.0019
4 0 8 -0.0310 0.0021
4 0 9 0.3121 0.0136
4 0 10 -0.6523 -0.0183
4 0 11 0.6061 0.0231
4 0 12 -0.7172 -0.0469
4 0 13 0.5144 0.0537
4 1 0 -1.1203 -0.0060
4 1 1 1.4006 0.0053
4 1 2 -0.4180 0.0002
4 1 3 0.4802 -0.0014
4 1 4 -0.5895 -0.0024
4 1 5 -0.6598 0.0002
4 1 6 1.2207 0.0014
4 1 7 -0.5060 0.0002
4 1 8 0.3103 0.0024
4 1 9 -0.5968 0.0034
4 1 10 0.6116 -0.0064
4 1 11 -0.4999 -0.0346
4 1 12 0.2026 0.0890
4 2 0 1.2400 -0.0058
4 2 1 -0.3751 0.0122
4 2 2 0.0280 -0.0083
4 2 3 -0.1147 -0.0099
4 2 4 -0.6548 0.0172
4 2 5 1.1284 -0.0049
4 2 6 -0.6004 -0.0076
4 2 7 0.3894 0.0100
4 2 8 -0.6156 0.0086
4 2 9 0.4715 -0.0402
4 2 10 0.0298 0.0241
4 2 11 -0.7798 0.0492
4 3 0 0.6543 0.0176
4 3 1 -0.8085 -0.0178
4 3 2 0.5694 0.0007
4 3 3 -1.1147 0.0144
4 3 4 1.2645 -0.0076
4 3 5 -0.3118 -0.0066
4 3 6 -0.1415 0.0149
4 3 7 -0.2210 -0.0089
4 3 8 0.2486 -0.0212
4 3 9 0.2519 0.0341
4 3 10 -1.1630 0.0157
4 3 11 1.9664 -0.0658
4 4 0 -1.4949 -0.0088
4 4 1 1.1273 0.0046
4 4 2 -1.4972 0.0010
4 4 3 1.5537 0.0021
4 4 4 -0.1402 -0.0011
4 4 5 -0.8566 -0.0065
4 4 6 0.4511 0.0034
4 4 7 -0.0277 0.0012
4 4 8 0.1582 -0.0032
4 4 9 -0.6915 0.0340
4 4 10 1.5353 -0.0738
4 5 0 0.6027 -0.0054
4 5 1 -0.9727 -0.0017
4 5 2 1.5476 0.0141
4 5 3 -0.3699 -0.0088
4 5 4 -1.0418 -0.0193
4 5 5 0.8971 0.0310
4 5 6 -0.3495 -0.0083
4 5 7 0.2948 -0.0248
4 5 8 -0.4021 0.0609
4 5 9 0.7941 -0.0911
4 6 0 0.4328 0.0020
4 6 1 0.8757 0.0150
4 6 2 -0.8173 -0.0190
4 6 3 -0.4091 -0.0060
4 6 4 0.6440 0.0264
4 6 5 -0.3679 -0.0111
4 6 6 0.5999 -0.0235
4 6 7 -0.7495 0.0573
4 6 8 0.6655 -0.0801
4 7 0 -0.2233 0.0111
4 7 1 -0.6886 -0.0161
4 7 2 0.2286 0.0020
4 7 3 -0.0364 0.0100
4 7 4 0.2961 0.0008
4 7 5 0.0788 -0.0152
4 7 6 -0.6280 0.0229
4 7 7 0.6278 -0.0334
4 8 0 0.2091 -0.0067
4 8 1 -0.1069 -0.0057
4 8 2 -0.0615 0.0124
4 8 3 0.7470 -0.0016
4 8 4 -1.0108 0.0052
4 8 5 0.6248 -0.0326
4 8 6 -0.1674 0.0400
4 9 0 -0.7599 -0.0170
4 9 1 0.3897 0.0158
4 9 2 0.2925 -0.0009
4 9 3 -0.9288 0.0117
4 9 4 1.3034 -0.0686
4 9 5 -1.0999 0.1053
4 10 0 0.2512 0.0091
4 10 1 0.1768 0.0281
4 10 2 -0.0048 -0.0311
4 10 3 0.1809 -0.0340
4 10 4 -0.7361 0.1044
4 11 0 0.5305 0.0654
4 11 1 -0.0990 -0.0953
4 11 2 -0.8079 0.0450
4 12 0 -0.4579 -0.1295
5 -17 2 0.3542 -0.0861
5 -17 3 -0.4730 0.0348
5 -17 4 0.6925 0.0057
5 -17 5 0.6231 0.0150
5 -17 6 -2.2573 -0.0191
5 -17 7 1.8624 -0.0230
5 -17 8 -0.2949 0.0383
5 -17 9 -0.4630 0.0153
5 -17 10 0.6312 -0.0765
5 -16 0 -1.4055 -0.0090
5 -16 1 1.1940 -0.0655
5 -16 2 -0.5608 0.0595
5 -16 3 0.5925 -0.0060
5 -16 4 -0.1343 -0.0075
5 -16 5 -1.2654 -0.0035
5 -16 6 1.7110 -0.0191
5 -16 7 -0.7458 0.0492
5 -16 8 -0.1658 -0.0233
5 -16 9 0.7833 -0.0422
5 -16 10 -1.3894 0.0781
5 -16 11 1.2769 -0.0600
5 -15 2 -0.1494 -0.0142
5 -15 3 -0.0714 -0.0077
5 -15 4 0.0577 0.0049
5 -15 5 -0.1399 -0.0030
5 -15 6 0.5730 0.0200
5 -15 7 -0.4318 -0.0201
5 -15 8 0.0782 -0.0116
5 -15 9 -0.6386 0.0373
5 -15 10 1.1877 -0.0388
5 -15 11 -0.6766 0.0188
5 -15 12 0.3142 0.0250
5 -15 13 -0.7521 -0.0469
5 -14 2 0.9804 -0.0010
5 -14 3 -0.3609 0.0038
5 -14 4 -0.8128 0.0054
5 -14 5 2.1632 -0.0103
5 -14 6 -2.0892 0.0058
5 -14 7 0.4747 -0.0093
5 -14 8 0.3311 0.0079
5 -14 9 0.3679 0.0020
5 -14 10 -0.6311 0.0004
5 -14 11 0.2121 0.0011
5 -14 12 -0.7634 -0.0064
5 -14 13 1.7597 -0.0365
5 -13 0 -0.6084 0.0108
5 -13 1 0.5674 -0.0024
5 -13 2 -0.5369 0.0043
5 -13 3 -0.0125 -0.0042
5 -13 4 1.6188 -0.0094
5 -13 5 -2.7955 0.0122
5 -13 6 1.7717 -0.0080
5 -13 7 0.1584 -0.0006
5 -13 8 -0.5089 0.0199
5 -13 9 -0.2355 -0.0207
5 -13 10 0.1718 0.0014
5 -13 11 0.0654 0.0054
5 -13 12 0.8257 -0.0248
5 -13 13 -1.5483 0.0744
5 -13 14 0.8064 -0.0889
5 -12 0 -0.7936 -0.0060
5 -12 1 0.8445 0.0025
5 -12 2 0.0342 -0.0130
5 -12 3 -0.1998 0.0053
5 -12 4 -0.8942 0.0024
5 -12 5 1.5231 0.0006
5 -12 6 -0.5066 -0.0005
5 -12 7 -0.7497 0.0095
5 -12 8 0.6042 -0.0179
5 -12 9 0.0046 0.0052
5 -12 10 0.3595 0.0020
5 -12 11 -0.7548 0.0015
5 -12 12 0.1819 0.0140
5 -12 13 0.1518 -0.0279
5 -12 14 0.4891 0.0124
5 -11 0 1.0846 -0.0025
5 -11 1 -0.4760 -0.0071
5 -11 2 -1.0098 0.0078
5 -11 3 1.4088 0.0002
5 -11 4 -0.3458 0.0039
5 -11 5 -0.6565 0.0006
5 -11 6 0.2655 -0.0080
5 -11 7 0.5405 0.0023
5 -11 8 -0.2058 -0.0017
5 -11 9 -0.3444 0.0020
5 -11 10 -0.2697 0.0081
5 -11 11 0.8743 -0.0072
5 -11 12 -0.3457 -0.0020
5 -11 13 -0.0276 -0.0038
5 -11 14 -0.5802 0.0127
5 -10 0 -0.2160 -0.0018
5 -10 1 -0.4759 0.0076
5 -10 2 1.4960 0.0023
5 -10 3 -1.3476 -0.0000
5 -10 4 -0.3074 0.0001
5 -10 5 1.7095 -0.0117
5 -10 6 -1.1973 0.0105
5 -10 7 0.2744 -0.0049
5 -10 8 -0.7759 0.0036
5 -10 9 1.2246 0.0038
5 -10 10 -0.3811 -0.0021
5 -10 11 0.1428 -0.0110
5 -10 12 -1.2192 0.0101
5 -10 13 1.3385 0.0050
5 -10 14 0.0574 -0.0300
5 -9 0 0.5149 0.0174
5 -9 1 0.0278 -0.0079
5 -9 2 -0.5931 0.0013
5 -9 3 0.0822 -0.0006
5 -9 4 1.6233 -0.0091
5 -9 5 -2.3931 0.0049
5 -9 6 1.1438 0.0073
5 -9 7 -0.2054 -0.0046
5 -9 8 0.7652 0.0021
5 -9 9 -0.7965 0.0001
5 -9 10 0.1604 -0.0116
5 -9 11 -1.0372 0.0117
5 -9 12 2.4606 0.0024
5 -9 13 -1.6813 -0.0273
5 -9 14 -0.2900 0.0768
5 -9 15 0.8339 -0.1130
5 -8 0 -0.7933 -0.0145
5 -8 1 0.2373 0.0051
5 -8 2 0.1117 -0.0043
5 -8 3 0.3020 -0.0068
5 -8 4 -1.3082 0.0064
5 -8 5 1.1317 0.0127
5 -8 6 0.3865 -0.0135
5 -8 7 -1.0748 0.0026
5 -8 8 0.7416 -0.0001
5 -8 9 -0.8685 -0.0046
5 -8 10 0.5729 0.0032
5 -8 11 1.1085 0.0071
5 -8 12 -1.9654 -0.0112
5 -8 13 0.6843 0.0323
5 -8 14 0.5411 -0.0715
5 -7 0 0.1803 -0.0098
5 -7 1 -0.2470 0.0003
5 -7 2 0.0516 0.0006
5 -7 3 0.1642 0.0066
5 -7 4 0.0334 0.0042
5 -7 5 0.4200 -0.0081
5 -7 6 -1.5388 -0.0034
5 -7 7 1.8428 0.0029
5 -7 8 -1.4028 0.0012
5 -7 9 1.0832 -0.0001
5 -7 10 -0.4554 0.0029
5 -7 11 -0.4394 0.0054
5 -7 12 0.5100 -0.0161
5 -7 13 0.0743 -0.0010
5 -7 14 -0.1782 0.0188
5 -6 0 -0.4034 0.0203
5 -6 1 0.8060 -0.0017
5 -6 2 0.2304 0.0002
5 -6 3 -1.3423 0.0014
5 -6 4 1.2501 -0.0014
5 -6 5 -1.2206 -0.0102
5 -6 6 1.5566 0.0071
5 -6 7 -1.0082 0.0076
5 -6 8 -0.0481 -0.0067
5 -6 9 0.0915 -0.0007
5 -6 10 0.7942 0.0092
5 -6 11 -1.1821 -0.0231
5 -6 12 0.6407 0.0219
5 -6 13 -0.0994 -0.0073
5 -6 14 -0.0502 0.0016
5 -5 0 -0.0779 -0.0136
5 -5 1 0.4353 0.0045
5 -5 2 -2.3586 -0.0001
5 -5 3 3.2182 -0.0023
5 -5 4 -2.4381 -0.0070
5 -5 5 1.8576 0.0074
5 -5 6 -1.2546 0.0106
5 -5 7 -0.4660 -0.0140
5 -5 8 1.5486 0.0002
5 -5 9 0.1631 0.0058
5 -5 10 -2.6439 -0.0037
5 -5 11 2.4550 -0.0021
5 -5 12 -0.5349 0.0045
5 -5 13 -0.2193 0.0080
5 -5 14 0.1572 -0.0162
5 -4 0 2.3329 0.0087
5 -4 1 -2.7890 -0.0058
5 -4 2 3.8952 -0.0018
5 -4 3 -3.6213 0.0002
5 -4 4 2.6732 0.0050
5 -4 5 -2.1371 0.0047
5 -4 6 0.7297 -0.0099
5 -4 7 1.6470 -0.0041
5 -4 8 -1.6728 0.0109
5 -4 9 -1.5858 0.0026
5 -4 10 3.4978 -0.0208
5 -4 11 -1.6222 0.0234
5 -4 12 -0.3624 0.0049
5 -4 13 0.4256 -0.0437
5 -4 14 -0.5598 0.0544
5 -3 0 -2.5849 -0.0012
5 -3 1 2.2334 -0.0036
5 -3 2 -2.2135 0.0068
5 -3 3 1.7315 0.0011
5 -3 4 -1.5427 -0.0047
5 -3 5 1.3865 0.0020
5 -3 6 0.3615 -0.0091
5 -3 7 -2.4173 0.0140
5 -3 8 1.2318 -0.0014
5 -3 9 1.8713 -0.0150
5 -3 10 -2.1468 0.0196
5 -3 11 0.2280 -0.0043
5 -3 12 0.2899 -0.0281
5 -3 13 -0.1574 0.0495
5 -2 0 0.3153 -0.0069
5 -2 1 0.0653 0.0101
5 -2 2 -0.1832 -0.0059
5 -2 3 0.3157 -0.0043
5 -2 4 0.2805 0.0068
5 -2 5 -0.6891 -0.0061
5 -2 6 -0.7466 0.0037
5 -2 7 2.0062 0.0073
5 -2 8 -0.5023 -0.0115
5 -2 9 -1.3098 -0.0004
5 -2 10 0.9200 0.0072
5 -2 11 -0.3397 -0.0016
5 -2 12 0.5189 -0.0050
5 -2 13 -0.0066 0.0134
5 -1 0 0.8844 0.0009
5 -1 1 -0.8042 -0.0042
5 -1 2 1.0867 0.0027
5 -1 3 -0.9779 -0.0004
5 -1 4 -0.6648 0.0024
5 -1 5 1.7081 -0.0055
5 -1 6 -0.4130 0.0142
5 -1 7 -0.6051 -0.0151
5 -1 8 -0.2624 -0.0113
5 -1 9 0.8960 0.0325
5 -1 10 -0.6505 -0.0103
5 -1 11 0.5616 -0.0292
5 -1 12 -0.1664 0.0523
5 0 0 -0.6543 0.0074
5 0 1 0.7653 0.0009
5 0 2 -1.3677 -0.0068
5 0 3 0.2233 0.0090
5 0 4 2.3645 -0.0045
5 0 5 -2.7023 0.0014
5 0 6 0.6408 -0.0043
5 0 7 0.4092 -0.0109
5 0 8 0.0792 0.0351
5 0 9 -0.3724 -0.0198
5 0 10 0.1594 -0.0234
5 0 11 0.3305 0.0438
5 0 12 -0.8062 -0.0438
5 1 0 0.2392 -0.0027
5 1 1 -1.1725 -0.0041
5 1 2 1.3630 0.0081
5 1 3 0.8824 -0.0012
5 1 4 -2.4592 -0.0127
5 1 5 0.8301 0.0129
5 1 6 1.2946 -0.0086
5 1 7 -1.2860 0.0139
5 1 8 0.3021 0.0008
5 1 9 -0.0014 -0.0349
5 1 10 0.4646 0.0376
5 1 11 -0.8960 -0.0156
5 2 0 0.1236 -0.0019
5 2 1 1.3759 0.0020
5 2 2 -0.6795 0.0015
5 2 3 -1.0503 -0.0126
5 2 4 0.3545 0.0124
5 2 5 1.7805 0.0015
5 2 6 -2.1285 -0.0077
5 2 7 0.7779 0.0191
5 2 8 0.1077 -0.0429
5 2 9 0.2258 0.0308
5 2 10 -0.7673 0.0124
5 3 0 -0.0792 -0.0008
5 3 1 -0.5718 0.0030
5 3 2 -0.5408 -0.0090
5 3 3 0.5217 0.0045
5 3 4 1.2006 0.0152
5 3 5 -1.8290 -0.0206
5 3 6 0.5536 0.0139
5 3 7 0.5747 -0.0191
5 3 8 -0.1786 -0.0007
5 3 9 -0.8063 0.0603
5 3 10 0.7513 -0.0735
5 4 0 0.3450 -0.0017
5 4 1 -0.9412 -0.0052
5 4 2 1.0474 0.0074
5 4 3 0.5614 0.0105
5 4 4 -1.7476 -0.0179
5 4 5 0.8417 -0.0004
5 4 6 0.7635 0.0077
5 4 7 -0.9817 -0.0171
5 4 8 -0.1648 0.0731
5 4 9 0.7846 -0.1150
5 5 0 -0.8705 0.0027
5 5 1 1.0459 0.0107
5 5 2 0.4519 -0.0071
5 5 3 -2.3121 0.0007
5 5 4 2.3319 -0.0160
5 5 5 -0.5348 0.0183
5 5 6 -1.1039 0.0060
5 5 7 1.1061 0.0060
5 5 8 -0.3106 -0.0572
5 6 0 0.0834 0.0078
5 6 1 0.4399 -0.0109
5 6 2 -1.8529 0.0088
5 6 3 2.5952 -0.0235
5 6 4 -1.7551 0.0236
5 6 5 -0.0615 0.0258
5 6 6 1.2455 -0.0697
5 6 7 -1.1507 0.0504
5 7 0 0.6259 -0.0025
5 7 1 -0.4269 -0.0074
5 7 2 0.5899 -0.0086
5 7 3 -0.5448 0.0228
5 7 4 0.0281 0.0189
5 7 5 0.5840 -0.0843
5 7 6 -0.6650 0.0971
5 8 0 0.3607 -0.0239
5 8 1 -0.8437 0.0124
5 8 2 1.0208 0.0189
5 8 3 -1.0410 -0.0013
5 8 4 0.8303 -0.0595
5 8 5 -0.3553 0.0835
5 9 0 -0.6534 0.0143
5 9 1 0.3762 0.0270
5 9 2 -0.6343 -0.0317
5 9 3 0.9753 -0.0244
5 10 0 -0.4670 0.0404
5 10 1 0.7533 -0.0596
5 10 2 -0.0160 0.0135
5 11 0 0.6224 -0.0640
6 -17 2 1.4464 -0.1020
6 -17 3 -0.5792 0.0367
6 -17 4 1.2513 0.0211
6 -17 5 -1.8367 -0.0105
6 -17 6 0.3007 -0.0006
6 -17 7 1.4622 -0.0443
6 -17 8 -1.0124 0.0965
6 -16 0 -2.3523 0.0680
6 -16 1 2.1646 -0.0901
6 -16 2 -0.5010 0.0498
6 -16 3 0.1208 0.0182
6 -16 4 -1.3536 -0.0285
6 -16 5 1.4097 -0.0056
6 -16 6 0.1098 0.0019
6 -16 7 -0.8717 0.0424
6 -16 8 0.2925 -0.0534
6 -16 9 0.2953 0.0080
6 -16 10 -0.3043 0.0524
6 -15 0 1.5268 -0.0414
6 -15 1 -0.0031 0.0304
6 -15 2 -1.5526 0.0123
6 -15 3 1.0926 -0.0348
6 -15 4 0.0389 0.0087
6 -15 5 -0.1552 0.0228
6 -15 6 -0.1992 -0.0113
6 -15 7 0.4725 -0.0094
6 -15 8 -0.8754 -0.0045
6 -15 9 1.1180 0.0307
6 -15 10 -1.0442 -0.0589
6 -15 11 0.9592 0.1004
6 -14 0 -0.3525 0.0097
6 -14 1 -0.7443 0.0070
6 -14 2 1.1715 -0.0185
6 -14 3 -0.7792 0.0167
6 -14 4 0.3148 0.0068
6 -14 5 0.2699 -0.0193
6 -14 6 -0.5085 0.0045
6 -14 7 -0.3600 0.0012
6 -14 8 1.3177 -0.0004
6 -14 9 -1.1175 0.0106
6 -14 10 0.5415 0.0097
6 -14 11 -0.3174 -0.0588
6 -14 12 -0.1821 0.0634
6 -13 0 1.4420 0.0139
6 -13 1 -1.5380 -0.0079
6 -13 2 1.2566 0.0058
6 -13 3 -0.5344 -0.0044
6 -13 4 0.4902 -0.0082
6 -13 5 -1.1857 0.0019
6 -13 6 0.8773 0.0101
6 -13 7 0.5070 -0.0063
6 -13 8 -0.8554 0.0181
6 -13 9 -0.0824 -0.0334
6 -13 10 0.5013 0.0076
6 -13 11 -0.2860 0.0244
6 -13 12 0.3667 -0.0171
6 -13 13 -0.0958 -0.0007
6 -12 0 -2.1684 -0.0175
6 -12 1 2.3074 -0.0005
6 -12 2 -1.4026 -0.0003
6 -12 3 0.4278 -0.0081
6 -12 4 -0.7080 0.0098
6 -12 5 1.2047 0.0088
6 -12 6 -0.4111 -0.0067
6 -12 7 -0.5969 -0.0080
6 -12 8 0.1650 0.0004
6 -12 9 0.7359 0.0053
6 -12 10 -0.5999 0.0055
6 -12 11 0.1093 -0.0051
6 -12 12 0.0440 -0.0078
6 -12 13 -0.4490 0.0143
6 -11 0 0.0329 -0.0019
6 -11 1 -0.0203 0.0031
6 -11 2 -0.3336 -0.0062
6 -11 3 0.2158 0.0184
6 -11 4 0.6616 -0.0038
6 -11 5 -1.1699 -0.0112
6 -11 6 0.5896 -0.0038
6 -11 7 -0.0013 0.0168
6 -11 8 0.3476 -0.0129
6 -11 9 -0.6894 0.0084
6 -11 10 0.2624 -0.0040
6 -11 11 0.1355 -0.0029
6 -11 12 -0.0473 0.0082
6 -11 13 -0.1062 -0.0049
6 -10 0 1.4244 0.0085
6 -10 1 -0.9747 0.0026
6 -10 2 0.5713 0.0082
6 -10 3 -0.0359 -0.0088
6 -10 4 -1.0350 -0.0074
6 -10 5 1.8456 0.0077
6 -10 6 -1.3647 0.0003
6 -10 7 0.4168 0.0011
6 -10 8 -0.1664 -0.0061
6 -10 9 0.0337 0.0084
6 -10 10 0.5255 -0.0055
6 -10 11 -0.6285 0.0046
6 -10 12 -0.1644 -0.0075
6 -10 13 0.8423 -0.0043
6 -9 0 -0.2770 0.0029
6 -9 1 0.0978 -0.0021
6 -9 2 -0.4450 -0.0032
6 -9 3 0.3564 -0.0039
6 -9 4 0.9837 0.0039
6 -9 5 -1.8726 -0.0004
6 -9 6 0.9260 0.0062
6 -9 7 0.3697 -0.0120
6 -9 8 -0.7392 0.0132
6 -9 9 1.0612 -0.0066
6 -9 10 -1.5724 -0.0012
6 -9 11 1.0015 -0.0059
6 -9 12 0.5207 0.0064
6 -9 13 -1.0210 0.0138
6 -8 0 -0.5322 0.0034
6 -8 1 -0.3302 -0.0091
6 -8 2 1.4417 -0.0003
6 -8 3 -1.0550 0.0027
6 -8 4 -0.5093 0.0037
6 -8 5 0.8903 -0.0017
6 -8 6 0.1783 0.0008
6 -8 7 -0.8297 -0.0052
6 -8 8 0.7579 0.0112
6 -8 9 -1.0840 -0.0187
6 -8 10 1.3902 0.0094
6 -8 11 -0.4113 0.0079
6 -8 12 -1.0063 0.0043
6 -8 13 0.9526 -0.0200
6 -7 0 0.0763 -0.0203
6 -7 1 1.1506 0.0126
6 -7 2 -1.5878 0.0008
6 -7 3 0.6166 -0.0018
6 -7 4 0.4148 0.0047
6 -7 5 -0.4195 -0.0042
6 -7 6 0.0945 -0.0072
6 -7 7 -0.3404 0.0170
6 -7 8 0.6446 -0.0243
6 -7 9 -0.1126 0.0187
6 -7 10 -0.6315 0.0077
6 -7 11 0.2927 -0.0170
6 -7 12 0.6612 0.0001
6 -7 13 -0.7739 -0.0005
6 -6 0 0.7063 0.0173
6 -6 1 -1.2035 -0.0053
6 -6 2 0.6305 -0.0012
6 -6 3 0.1061 0.0073
6 -6 4 -0.5582 -0.0133
6 -6 5 0.7804 0.0080
6 -6 6 -0.8557 -0.0019
6 -6 7 1.2113 -0.0010
6 -6 8 -1.4817 0.0033
6 -6 9 0.3899 0.0105
6 -6 10 1.3910 -0.0274
6 -6 11 -1.4920 0.0210
6 -6 12 0.0079 -0.0103
6 -6 13 0.7581 0.0076
6 -5 0 -1.7734 -0.0009
6 -5 1 1.1416 -0.0016
6 -5 2 -0.4224 0.0008
6 -5 3 0.1154 -0.0024
6 -5 4 0.4187 0.0002
6 -5 5 -0.4860 -0.0017
6 -5 6 0.0625 0.0120
6 -5 7 -0.6302 -0.0152
6 -5 8 1.2267 0.0120
6 -5 9 0.3776 -0.0121
6 -5 10 -2.2899 0.0045
6 -5 11 1.3512 0.0099
6 -5 12 0.7794 -0.0213
6 -5 13 -1.0224 0.0399
6 -4 0 2.1052 -0.0104
6 -4 1 -1.2013 0.0044
6 -4 2 1.0661 0.0036
6 -4 3 -0.6290 -0.0126
6 -4 4 -0.0173 0.0164
6 -4 5 -0.6137 -0.0040
6 -4 6 0.9688 -0.0105
6 -4 7 0.5858 0.0077
6 -4 8 -1.2650 0.0052
6 -4 9 -0.4791 -0.0193
6 -4 10 1.0322 0.0340
6 -4 11 1.0542 -0.0452
6 -4 12 -2.1350 0.0566
6 -3 0 -1.3445 0.0114
6 -3 1 1.2899 -0.0024
6 -3 2 -1.4713 -0.0050
6 -3 3 0.5482 0.0103
6 -3 4 -0.1723 -0.0074
6 -3 5 1.0335 -0.0032
6 -3 6 -0.5579 0.0039
6 -3 7 -1.0930 0.0086
6 -3 8 0.8253 -0.0165
6 -3 9 0.3265 0.0165
6 -3 10 0.8421 -0.0177
6 -3 11 -2.6633 0.0191
6 -3 12 2.1146 -0.0184
6 -2 0 0.6142 -0.0029
6 -2 1 -1.1870 -0.0005
6 -2 2 1.0582 -0.0044
6 -2 3 -0.0918 0.0079
6 -2 4 0.3017 -0.0100
6 -2 5 -0.9974 0.0072
6 -2 6 0.3904 0.0067
6 -2 7 0.0488 -0.0104
6 -2 8 0.7606 -0.0097
6 -2 9 -0.5126 0.0288
6 -2 10 -1.3258 -0.0363
6 -2 11 2.1270 0.0475
6 -2 12 -1.4805 -0.0530
6 -1 0 0.0892 -0.0053
6 -1 1 0.6373 -0.0005
6 -1 2 -0.4615 0.0074
6 -1 3 0.1824 -0.0067
6 -1 4 -0.8908 0.0052
6 -1 5 1.2926 0.0049
6 -1 6 -0.8863 -0.0148
6 -1 7 0.8931 -0.0035
6 -1 8 -0.9495 0.0311
6 -1 9 0.0583 -0.0381
6 -1 10 0.7897 0.0502
6 -1 11 -0.9129 -0.0752
6 0 0 -0.2249 0.0032
6 0 1 -0.5886 -0.0012
6 0 2 0.4274 0.0075
6 0 3 -0.4526 -0.0081
6 0 4 0.8481 0.0032
6 0 5 -0.5458 -0.0083
6 0 6 -0.1605 0.0050
6 0 7 0.4922 0.0089
6 0 8 -0.5494 0.0004
6 0 9 0.2305 -0.0116
6 0 10 0.3594 -0.0161
6 1 0 -0.9009 0.0029
6 1 1 0.8832 0.0070
6 1 2 -0.0497 -0.0137
6 1 3 -0.2428 0.0023
6 1 4 0.4179 0.0065
6 1 5 -1.1008 -0.0070
6 1 6 1.6344 0.0090
6 1 7 -1.4308 0.0110
6 1 8 0.4605 -0.0479
6 1 9 0.8355 0.0504
6 1 10 -1.4062 -0.0237
6 2 0 1.3574 -0.0008
6 2 1 -0.3517 -0.0058
6 2 2 -0.4614 0.0005
6 2 3 0.4715 0.0082
6 2 4 -0.6968 -0.0097
6 2 5 1.1620 0.0127
6 2 6 -0.9821 -0.0037
6 2 7 0.0268 -0.0248
6 2 8 1.0209 0.0397
6 2 9 -1.3774 -0.0402
6 3 0 -0.8150 -0.0024
6 3 1 0.5037 -0.0041
6 3 2 -0.9016 0.0037
6 3 3 1.1535 0.0050
6 3 4 -0.3848 -0.0035
6 3 5 -0.3076 -0.0031
6 3 6 -0.1403 0.0019
6 3 7 1.0144 -0.0135
6 3 8 -1.0538 0.0261
6 4 0 1.3279 -0.0054
6 4 1 -2.0660 0.0079
6 4 2 2.8251 0.0093
6 4 3 -2.1141 -0.0153
6 4 4 0.2283 0.0023
6 4 5 0.6530 0.0091
6 4 6 0.0626 -0.0374
6 4 7 -0.6461 0.0858
6 5 0 -1.7361 0.0082
6 5 1 2.2747 0.0035
6 5 2 -2.3341 -0.0120
6 5 3 0.7780 -0.0045
6 5 4 0.9425 0.0194
6 5 5 -0.8116 -0.0341
6 5 6 -0.3111 0.0802
6 6 0 0.5632 0.0058
6 6 1 -0.7099 -0.0105
6 6 2 0.3256 -0.0059
6 6 3 0.8167 0.0232
6 6 4 -0.9081 -0.0229
6 6 5 -0.3974 0.0374
6 7 0 0.1234 -0.0067
6 7 1 -0.4214 -0.0043
6 7 2 1.2504 0.0116
6 7 3 -1.4587 0.0024
6 7 4 0.0984 -0.0133
6 8 0 0.1897 -0.0137
6 8 1 1.1308 0.0111
6 8 2 -2.1540 0.0219
6 8 3 1.3824 -0.0543
6 9 0 0.2896 0.0169
6 9 1 -1.7026 0.0130
6 9 2 1.7254 -0.0591
6 10 0 -1.1025 0.0000
7 -16 0 -0.5356 -0.0133
7 -16 1 0.7590 0.0076
7 -16 2 1.4869 -0.0230
7 -16 3 -3.8853 0.0361
7 -16 4 3.1842 -0.0120
7 -16 5 -0.6085 -0.0161
7 -16 6 -0.5128 0.0104
7 -16 7 -0.1320 -0.0047
7 -16 8 0.7091 0.0276
7 -15 0 -1.4522 0.0281
7 -15 1 2.2424 -0.0357
7 -15 2 -4.3299 0.0278
7 -15 3 4.4821 0.0026
7 -15 4 -2.2002 -0.0281
7 -15 5 0.2077 0.0240
7 -15 6 0.0198 -0.0081
7 -15 7 0.4849 0.0205
7 -15 8 -0.5774 -0.0385
7 -15 9 0.3257 -0.0172
7 -15 10 -0.2633 0.1283
7 -14 0 2.3039 -0.0168
7 -14 1 -2.5723 0.0254
7 -14 2 2.3092 0.0060
7 -14 3 -0.7882 -0.0275
7 -14 4 -0.5192 0.0184
7 -14 5 0.7496 0.0016
7 -14 6 -0.4050 -0.0044
7 -14 7 0.1276 -0.0242
7 -14 8 -0.2713 0.0280
7 -14 9 0.5777 0.0491
7 -14 10 -0.2844 -0.1302
7 -14 11 -0.4001 0.1131
7 -13 0 -0.5152 0.0155
7 -13 1 -0.3345 -0.0012
7 -13 2 1.6701 -0.0164
7 -13 3 -2.1151 0.0009
7 -13 4 1.5623 0.0166
7 -13 5 -1.0624 -0.0237
7 -13 6 0.6698 0.0122
7 -13 7 -0.2114 0.0196
7 -13 8 0.1442 -0.0197
7 -13 9 -0.0895 -0.0204
7 -13 10 -0.7218 0.0212
7 -13 11 1.1871 0.0393
7 -12 0 -0.9716 -0.0037
7 -12 1 1.9761 -0.0173
7 -12 2 -2.2932 0.0010
7 -12 3 1.3772 0.0181
7 -12 4 -0.7080 -0.0170
7 -12 5 0.6587 0.0190
7 -12 6 -0.2313 -0.0116
7 -12 7 -0.4237 -0.0074
7 -12 8 0.6076 0.0100
7 -12 9 -0.9653 -0.0153
7 -12 10 1.5887 0.0580
7 -12 11 -0.7439 -0.1095
7 -12 12 -1.3476 0.1151
7 -11 0 0.9823 -0.0200
7 -11 1 -1.4013 0.0170
7 -11 2 0.8563 0.0034
7 -11 3 -0.1173 0.0014
7 -11 4 0.1445 -0.0054
7 -11 5 -0.3347 -0.0059
7 -11 6 0.0190 0.0085
7 -11 7 0.2572 -0.0055
7 -11 8 -0.2997 0.0060
7 -11 9 0.7779 0.0031
7 -11 10 -0.9060 -0.0285
7 -11 11 -0.6340 0.0496
7 -11 12 2.1856 -0.0357
7 -10 0 -0.8508 0.0177
7 -10 1 0.8403 -0.0038
7 -10 2 -0.3687 0.0058
7 -10 3 -0.1331 -0.0161
7 -10 4 0.1982 0.0105
7 -10 5 0.0538 -0.0017
7 -10 6 -0.2760 0.0003
7 -10 7 0.5134 0.0008
7 -10 8 -0.4232 -0.0110
7 -10 9 -0.2878 0.0257
7 -10 10 0.4417 -0.0256
7 -10 11 0.5186 0.0198
7 -10 12 -0.9694 -0.0290
7 -9 0 0.4351 0.0030
7 -9 1 -0.6015 -0.0057
7 -9 2 0.1185 -0.0011
7 -9 3 0.8034 0.0022
7 -9 4 -0.8990 -0.0022
7 -9 5 0.2522 0.0053
7 -9 6 0.2779 -0.0116
7 -9 7 -0.5322 0.0137
7 -9 8 0.2162 0.0034
7 -9 9 0.5826 -0.0202
7 -9 10 -0.8060 0.0159
7 -9 11 0.4002 -0.0160
7 -9 12 -0.1984 0.0174
7 -8 0 0.1260 -0.0079
7 -8 1 0.2118 0.0101
7 -8 2 0.7175 -0.0127
7 -8 3 -1.4583 0.0079
7 -8 4 0.8876 -0.0012
7 -8 5 -0.2027 -0.0015
7 -8 6 0.0468 0.0085
7 -8 7 -0.1044 -0.0074
7 -8 8 0.4260 -0.0014
7 -8 9 -0.6119 -0.0089
7 -8 10 0.3155 0.0181
7 -8 11 -0.1017 -0.0042
7 -8 12 0.0066 0.0063
7 -7 0 -0.0745 -0.0016
7 -7 1 0.3045 -0.0087
7 -7 2 -1.1664 0.0093
7 -7 3 0.8471 -0.0025
7 -7 4 -0.0461 0.0048
7 -7 5 0.0408 -0.0054
7 -7 6 -0.5143 0.0037
7 -7 7 0.9948 -0.0100
7 -7 8 -0.8730 0.0015
7 -7 9 -0.2002 0.0174
7 -7 10 0.8970 -0.0069
7 -7 11 -0.4696 -0.0084
7 -7 12 0.1611 -0.0060
7 -6 0 0.1027 0.0039
7 -6 1 -0.6894 0.0033
7 -6 2 0.6483 -0.0009
7 -6 3 0.0263 0.0030
7 -6 4 -0.0584 -0.0028
7 -6 5 -0.5244 -0.0054
7 -6 6 1.4975 0.0013
7 -6 7 -2.1357 0.0052
7 -6 8 0.9026 0.0037
7 -6 9 1.0460 0.0018
7 -6 10 -1.0360 -0.0202
7 -6 11 -0.0004 0.0043
7 -6 12 -0.0710 0.0263
7 -5 0 -0.1914 0.0054
7 -5 1 0.3691 -0.0034
7 -5 2 -0.2285 0.0036
7 -5 3 0.6249 -0.0017
7 -5 4 -1.0361 -0.0129
7 -5 5 1.3451 0.0193
7 -5 6 -2.2613 -0.0089
7 -5 7 2.0896 0.0056
7 -5 8 0.0608 -0.0023
7 -5 9 -0.9832 -0.0146
7 -5 10 -0.3765 0.0095
7 -5 11 0.7268 0.0276
7 -5 12 0.4658 -0.0485
7 -4 0 -0.1922 -0.0100
7 -4 1 -0.1583 0.0035
7 -4 2 1.2704 -0.0008
7 -4 3 -2.1915 -0.0063
7 -4 4 1.5317 0.0087
7 -4 5 -0.9920 0.0029
7 -4 6 1.1874 -0.0080
7 -4 7 -0.1552 -0.0010
7 -4 8 -0.8029 0.0009
7 -4 9 -0.7697 0.0060
7 -4 10 2.2407 0.0022
7 -4 11 -0.9021 -0.0114
7 -3 0 0.0516 0.0037
7 -3 1 1.0299 0.0033
7 -3 2 -2.5148 -0.0060
7 -3 3 2.0879 -0.0025
7 -3 4 -0.1901 0.0210
7 -3 5 -0.5701 -0.0296
7 -3 6 0.7262 0.0129
7 -3 7 -0.9817 0.0114
7 -3 8 -0.5250 -0.0138
7 -3 9 2.8102 -0.0051
7 -3 10 -2.4530 0.0260
7 -3 11 0.3327 -0.0464
7 -2 0 0.5281 0.0022
7 -2 1 -1.4886 -0.0079
7 -2 2 1.7645 0.0019
7 -2 3 -0.1636 0.0125
7 -2 4 -1.2914 -0.0182
7 -2 5 1.3881 0.0071
7 -2 6 -1.0813 0.0181
7 -2 7 0.0118 -0.0329
7 -2 8 1.7220 0.0114
7 -2 9 -1.7707 0.0223
7 -2 10 0.0581 -0.0361
7 -1 0 -0.5021 -0.0055
7 -1 1 0.8358 0.0048
7 -1 2 -0.2862 0.0022
7 -1 3 -0.8483 0.0039
7 -1 4 1.2469 -0.0139
7 -1 5 -1.0439 0.0188
7 -1 6 0.4308 -0.0242
7 -1 7 0.4454 0.0088
7 -1 8 -0.0808 0.0229
7 -1 9 -1.5906 -0.0181
7 -1 10 2.1859 -0.0129
7 0 0 0.4815 0.0048
7 0 1 -0.6194 0.0053
7 0 2 0.2837 0.0006
7 0 3 0.1821 -0.0170
7 0 4 -0.6085 0.0099
7 0 5 0.7240 0.0056
7 0 6 -0.1971 -0.0173
7 0 7 0.2240 0.0390
7 0 8 -1.5927 -0.0335
7 0 9 2.4495 -0.0192
7 1 0 -0.5593 0.0057
7 1 1 0.9119 -0.0118
7 1 2 -1.0466 -0.0069
7 1 3 0.6223 0.0084
7 1 4 0.1803 0.0161
7 1 5 -0.2455 -0.0281
7 1 6 -0.3993 0.0287
7 1 7 0.3545 -0.0199
7 1 8 0.2651 -0.0163
7 2 0 0.1166 -0.0105
7 2 1 -0.8692 -0.0002
7 2 2 1.2615 0.0161
7 2 3 -0.7904 -0.0019
7 2 4 0.1824 -0.0151
7 2 5 -0.5477 0.0034
7 2 6 1.4695 0.0292
7 2 7 -1.8844 -0.0651
7 2 8 1.5913 0.0704
7 3 0 -0.1328 0.0017
7 3 1 0.6370 0.0098
7 3 2 -0.5394 -0.0092
7 3 3 -0.0333 -0.0083
7 3 4 0.2759 0.0090
7 3 5 0.4313 0.0301
7 3 6 -1.6197 -0.0901
7 3 7 2.1000 0.1110
7 4 0 0.7797 -0.0032
7 4 1 0.0152 0.0074
7 4 2 -0.9758 -0.0160
7 4 3 1.5955 0.0273
7 4 4 -1.5584 -0.0155
7 4 5 0.4753 -0.0364
7 4 6 0.9477 0.0821
7 5 0 -0.7260 0.0162
7 5 1 -0.7675 -0.0169
7 5 2 1.6873 0.0121
7 5 3 -2.1904 -0.0151
7 5 4 2.0365 0.0055
7 5 5 -0.6705 0.0196
7 6 0 0.2744 -0.0107
7 6 1 0.2449 -0.0177
7 6 2 -0.5635 0.0391
7 6 3 1.2642 -0.0329
7 6 4 -1.1794 0.0158
7 7 0 -0.4052 -0.0165
7 7 1 1.0053 0.0625
7 7 2 -0.6221 -0.0806
7 8 0 0.6349 0.0345
7 8 1 -1.0078 -0.0639
8 -16 3 0.6098 0.0392
8 -16 4 0.2584 0.0237
8 -16 5 -0.2955 -0.0877
8 -15 0 0.5356 0.0394
8 -15 1 -1.7756 -0.0349
8 -15 2 1.2990 0.0407
8 -15 3 -0.6551 -0.0077
8 -15 4 0.8033 -0.0461
8 -15 5 -0.9615 0.0599
8 -15 6 0.6368 -0.0235
8 -15 7 -0.2586 0.0064
8 -15 8 0.2143 -0.0535
8 -14 0 -1.4182 0.0006
8 -14 1 1.0406 0.0130
8 -14 2 -0.4677 -0.0093
8 -14 3 1.1767 -0.0088
8 -14 4 -1.9633 0.0121
8 -14 5 1.8905 0.0044
8 -14 6 -1.3478 -0.0178
8 -14 7 0.7923 -0.0149
8 -14 8 -0.5596 0.0803
8 -14 9 0.7659 -0.0987
8 -13 0 -0.0273 -0.0121
8 -13 1 1.3405 0.0031
8 -13 2 -0.5810 -0.0070
8 -13 3 -1.0933 -0.0057
8 -13 4 1.7384 0.0199
8 -13 5 -1.5087 -0.0234
8 -13 6 0.8383 0.0094
8 -13 7 -0.0597 0.0336
8 -13 8 0.1401 -0.0647
8 -13 9 -1.0693 0.0374
8 -13 10 1.2577 0.0115
8 -12 0 2.6451 0.0002
8 -12 1 -2.6710 -0.0025
8 -12 2 0.5541 -0.0013
8 -12 3 0.9177 0.0106
8 -12 4 -1.0599 -0.0084
8 -12 5 0.4913 0.0061
8 -12 6 0.6021 0.0031
8 -12 7 -1.1004 -0.0207
8 -12 8 -0.2318 0.0135
8 -12 9 1.8774 0.0241
8 -12 10 -1.3955 -0.0541
8 -11 0 -2.8173 0.0115
8 -11 1 1.2529 -0.0062
8 -11 2 0.6082 0.0024
8 -11 3 -1.0040 0.0065
8 -11 4 0.3451 -0.0058
8 -11 5 0.9264 -0.0054
8 -11 6 -2.1290 0.0092
8 -11 7 1.5426 -0.0087
8 -11 8 0.9036 0.0133
8 -11 9 -2.1450 -0.0242
8 -11 10 0.6783 0.0340
8 -11 11 0.6666 -0.0265
8 -10 0 1.1569 -0.0059
8 -10 1 0.2915 0.0020
8 -10 2 -0.8826 0.0070
8 -10 3 0.2208 -0.0073
8 -10 4 1.0699 -0.0032
8 -10 5 -2.4299 0.0103
8 -10 6 2.9033 -0.0151
8 -10 7 -1.3600 0.0116
8 -10 8 -0.9168 0.0030
8 -10 9 1.0094 -0.0071
8 -10 10 0.5355 0.0059
8 -10 11 -0.7572 -0.0156
8 -9 0 -0.5762 -0.0026
8 -9 1 -0.0765 0.0043
8 -9 2 -0.1248 -0.0018
8 -9 3 1.1484 -0.0036
8 -9 4 -2.0994 -0.0042
8 -9 5 2.6517 0.0070
8 -9 6 -2.4036 0.0012
8 -9 7 0.8771 0.0049
8 -9 8 0.2819 -0.0125
8 -9 9 0.3600 0.0074
8 -9 10 -0.8342 -0.0147
8 -9 11 -0.0356 0.0248
8 -8 0 0.8096 -0.0006
8 -8 1 -0.3973 0.0005
8 -8 2 0.7621 -0.0055
8 -8 3 -1.3119 -0.0075
8 -8 4 1.3422 0.0226
8 -8 5 -1.4227 -0.0125
8 -8 6 1.1486 0.0050
8 -8 7 -0.3329 -0.0080
8 -8 8 0.4933 -0.0042
8 -8 9 -1.1101 0.0120
8 -8 10 0.2203 -0.0065
8 -8 11 0.8626 0.0202
8 -7 0 -0.4736 0.0062
8 -7 1 0.0359 -0.0093
8 -7 2 -0.1646 0.0017
8 -7 3 -0.0154 0.0134
8 -7 4 0.0309 -0.0039
8 -7 5 0.4050 -0.0079
8 -7 6 -0.2820 -0.0026
8 -7 7 0.4769 0.0022
8 -7 8 -1.6072 0.0104
8 -7 9 1.3280 -0.0131
8 -7 10 0.4837 0.0348
8 -7 11 -0.8804 -0.0731
8 -6 0 -0.4429 -0.0144
8 -6 1 0.9161 0.0145
8 -6 2 -1.1668 0.0009
8 -6 3 1.0770 0.0035
8 -6 4 -0.1084 -0.0194
8 -6 5 -0.3084 0.0095
8 -6 6 0.1865 0.0030
8 -6 7 -1.3854 0.0022
8 -6 8 2.1657 0.0000
8 -6 9 -0.3477 0.0081
8 -6 10 -1.2402 -0.0504
8 -5 0 1.4928 0.0171
8 -5 1 -1.9210 -0.0027
8 -5 2 1.8745 -0.0077
8 -5 3 -0.6003 -0.0029
8 -5 4 -0.4796 0.0034
8 -5 5 -0.0412 0.0028
8 -5 6 -0.2527 0.0062
8 -5 7 1.7449 -0.0057
8 -5 8 -0.9415 -0.0066
8 -5 9 -1.4133 -0.0106
8 -5 10 1.4782 0.0404
8 -4 0 -1.8607 0.0015
8 -4 1 2.0165 -0.0168
8 -4 2 -1.2110 0.0141
8 -4 3 -0.1521 -0.0083
8 -4 4 -0.2609 0.0083
8 -4 5 1.1562 0.0011
8 -4 6 0.1277 -0.0056
8 -4 7 -1.0844 -0.0103
8 -4 8 -0.5183 0.0144
8 -4 9 1.5853 0.0113
8 -4 10 -0.5746 -0.0262
8 -3 0 1.1093 -0.0128
8 -3 1 -1.0223 0.0075
8 -3 2 0.2599 0.0027
8 -3 3 -0.3774 -0.0047
8 -3 4 1.8907 0.0020
8 -3 5 -1.8320 0.0055
8 -3 6 -0.0358 -0.0213
8 -3 7 0.5838 0.0298
8 -3 8 0.1159 -0.0079
8 -3 9 -0.1029 -0.0308
8 -2 0 0.2299 -0.0049
8 -2 1 -0.2987 0.0151
8 -2 2 0.2113 -0.0187
8 -2 3 1.0642 0.0136
8 -2 4 -2.2860 0.0021
8 -2 5 1.6062 -0.0148
8 -2 6 -0.0820 0.0143
8 -2 7 -0.8075 0.0008
8 -2 8 0.9971 -0.0407
8 -2 9 -0.4053 0.0787
8 -1 0 -1.5712 0.0097
8 -1 1 1.3788 -0.0050
8 -1 2 -0.6778 0.0040
8 -1 3 -0.6222 0.0033
8 -1 4 1.5827 -0.0048
8 -1 5 -1.4225 -0.0173
8 -1 6 0.1826 0.0350
8 -1 7 1.0863 -0.0475
8 -1 8 -0.8186 0.0834
8 0 0 1.9593 0.0136
8 0 1 -1.4555 -0.0156
8 0 2 0.7728 0.0129
8 0 3 0.2638 -0.0154
8 0 4 -1.3879 -0.0082
8 0 5 1.3320 0.0363
8 0 6 0.1446 -0.0269
8 0 7 -0.8357 0.0258
8 1 0 -0.8747 -0.0168
8 1 1 0.3532 0.0007
8 1 2 0.0793 -0.0056
8 1 3 -0.9346 0.0145
8 1 4 1.5744 -0.0017
8 1 5 -0.7277 0.0109
8 1 6 -0.4810 -0.0401
8 1 7 0.0997 0.0352
8 2 0 -0.1595 -0.0137
8 2 1 0.5469 0.0298
8 2 2 -0.9443 -0.0058
8 2 3 1.4223 -0.0140
8 2 4 -1.1014 0.0166
8 2 5 0.0545 -0.0305
8 2 6 0.1819 0.0443
8 3 0 -0.0035 0.0280
8 3 1 -0.4106 -0.0252
8 3 2 0.7667 -0.0033
8 3 3 -0.6430 0.0032
8 3 4 0.0623 0.0273
8 3 5 0.1319 -0.0453
8 4 0 0.3666 -0.0001
8 4 1 0.0421 -0.0147
8 4 2 0.0527 0.0210
8 4 3 -0.5924 0.0282
8 4 4 0.5873 -0.1000
8 5 0 -0.1062 -0.0162
8 5 1 -0.2804 0.0280
8 5 2 -0.3071 -0.0111
8 5 3 0.7815 -0.0559
8 6 0 -0.4753 -0.0326
8 6 1 0.9070 0.0191
8 7 0 0.6948 0.0973
9 -15 2 -0.8562 0.0701
9 -15 3 0.5590 -0.0378
9 -15 4 0.5364 0.0407
9 -14 0 -1.6087 -0.0982
9 -14 1 0.5672 0.0716
9 -14 2 0.6922 -0.0153
9 -14 3 -0.2738 0.0026
9 -14 4 0.0542 -0.0404
9 -14 5 -1.1731 0.0400
9 -14 6 1.8756 0.0203
9 -14 7 -1.1708 -0.0755
9 -13 0 3.2694 0.0296
9 -13 1 -0.8594 0.0017
9 -13 2 -0.3705 -0.0247
9 -13 3 0.3448 -0.0115
9 -13 4 -1.1943 0.0343
9 -13 5 2.0179 0.0161
9 -13 6 -1.3518 -0.0757
9 -13 7 0.2788 0.0800
9 -13 8 -0.0199 -0.0474
9 -12 0 -3.0473 0.0062
9 -12 1 0.6408 -0.0211
9 -12 2 -0.1215 -0.0011
9 -12 3 -0.1787 0.0304
9 -12 4 0.7895 -0.0011
9 -12 5 -0.2324 -0.0511
9 -12 6 -0.7927 0.0511
9 -12 7 0.4570 0.0020
9 -12 8 0.5462 -0.0492
9 -11 0 0.8737 -0.0079
9 -11 1 0.0318 0.0029
9 -11 2 0.3674 0.0200
9 -11 3 -0.4284 -0.0137
9 -11 4 0.7895 -0.0135
9 -11 5 -1.7677 0.0174
9 -11 6 1.5646 0.0181
9 -11 7 0.1604 -0.0676
9 -11 8 -0.9720 0.0821
9 -11 9 0.0493 -0.0563
9 -10 0 1.3713 0.0103
9 -10 1 -0.7415 0.0003
9 -10 2 -0.3073 0.0010
9 -10 3 0.7755 -0.0025
9 -10 4 -1.3519 -0.0079
9 -10 5 1.7067 0.0166
9 -10 6 -0.6194 -0.0306
9 -10 7 -0.6745 0.0417
9 -10 8 -0.0499 -0.0241
9 -10 9 1.4426 0.0055
9 -9 0 -1.7671 0.0012
9 -9 1 0.6923 0.0098
9 -9 2 0.1330 -0.0200
9 -9 3 -0.2510 0.0008
9 -9 4 0.6718 0.0088
9 -9 5 -0.8755 0.0008
9 -9 6 0.1188 -0.0027
9 -9 7 -0.3017 0.0138
9 -9 8 2.1081 -0.0334
9 -9 9 -2.7059 0.0253
9 -8 0 0.7824 -0.0130
9 -8 1 -0.2453 -0.0145
9 -8 2 0.4103 0.0138
9 -8 3 -0.4944 -0.0028
9 -8 4 -0.4098 0.0110
9 -8 5 0.6675 -0.0117
9 -8 6 -0.3301 0.0091
9 -8 7 1.5425 -0.0233
9 -8 8 -3.0107 0.0249
9 -8 9 2.3052 -0.0104
9 -7 0 0.0104 0.0047
9 -7 1 0.2238 0.0019
9 -7 2 -0.8567 0.0034
9 -7 3 0.2096 0.0048
9 -7 4 0.6786 -0.0059
9 -7 5 -0.0630 -0.0056
9 -7 6 0.0475 0.0034
9 -7 7 -1.5533 -0.0056
9 -7 8 1.8632 0.0251
9 -7 9 -0.8992 -0.0248
9 -6 0 -0.2154 -0.0024
9 -6 1 -0.3902 0.0128
9 -6 2 0.3259 -0.0058
9 -6 3 0.5993 -0.0003
9 -6 4 0.0351 -0.0079
9 -6 5 -1.1584 0.0051
9 -6 6 0.1989 -0.0039
9 -6 7 0.7547 0.0307
9 -6 8 -0.0560 -0.0500
9 -6 9 0.1132 0.0373
9 -5 0 -0.0078 0.0082
9 -5 1 0.1806 -0.0023
9 -5 2 0.6560 -0.0051
9 -5 3 -0.4194 -0.0049
9 -5 4 -1.2068 0.0055
9 -5 5 0.8708 0.0078
9 -5 6 0.6933 -0.0025
9 -5 7 -0.0695 -0.0115
9 -5 8 -0.9877 0.0056
9 -4 0 0.2238 0.0011
9 -4 1 0.4038 -0.0141
9 -4 2 -0.8895 0.0051
9 -4 3 -0.3888 0.0088
9 -4 4 0.6619 -0.0053
9 -4 5 1.4402 -0.0057
9 -4 6 -1.9119 0.0197
9 -4 7 -0.1600 -0.0437
9 -4 8 0.9920 0.0615
9 -3 0 -0.1282 -0.0124
9 -3 1 -0.4183 0.0115
9 -3 2 -0.0255 -0.0005
9 -3 3 0.6387 -0.0099
9 -3 4 1.1580 0.0127
9 -3 5 -3.2331 0.0024
9 -3 6 2.2737 -0.0301
9 -3 7 -0.1836 0.0528
9 -2 0 0.7818 0.0087
9 -2 1 -1.0585 -0.0068
9 -2 2 1.4990 0.0028
9 -2 3 -0.6100 0.0093
9 -2 4 -1.7987 -0.0071
9 -2 5 2.9708 -0.0040
9 -2 6 -1.8820 -0.0020
9 -2 7 0.4550 0.0049
9 -1 0 -2.1707 0.0005
9 -1 1 2.5440 0.0047
9 -1 2 -2.2242 0.0023
9 -1 3 0.8463 0.0002
9 -1 4 1.0418 -0.0170
9 -1 5 -1.8636 -0.0043
9 -1 6 1.0083 0.0428
9 0 0 1.8687 -0.0041
9 0 1 -1.7963 0.0040
9 0 2 1.5580 -0.0053
9 0 3 -0.7519 -0.0224
9 0 4 -0.7352 0.0222
9 0 5 1.1862 0.0317
9 1 0 0.4078 -0.0031
9 1 1 -0.2497 -0.0039
9 1 2 -0.2981 -0.0058
9 1 3 -0.2164 0.0164
9 1 4 1.2952 0.0325
9 1 5 -0.7132 -0.0759
9 2 0 -1.7624 0.0158
9 2 1 1.1201 -0.0040
9 2 2 -0.5945 -0.0004
9 2 3 1.2000 0.0374
9 2 4 -1.2463 -0.1021
9 3 0 0.8292 -0.0091
9 3 1 -0.4846 -0.0136
9 3 2 0.7818 0.0328
9 3 3 -1.0425 -0.0697
9 4 0 0.9338 -0.0439
9 4 1 -0.3296 0.0640
9 5 0 -1.6294 0.1177
10 -13 0 -0.2613 -0.0924
10 -13 1 2.0271 0.0094
10 -13 2 -2.1405 -0.0088
10 -13 3 -0.0348 -0.0274
10 -13 4 1.0789 0.1060
10 -12 0 1.6402 -0.0233
10 -12 1 -2.8970 0.0137
10 -12 2 1.2070 0.0041
10 -12 3 0.8711 0.0521
10 -12 4 -0.4639 -0.0955
10 -12 5 -0.7715 0.0407
10 -12 6 0.6911 0.0443
10 -11 0 -1.5802 0.0345
10 -11 1 1.5736 0.0256
10 -11 2 0.3122 -0.0281
10 -11 3 -0.8350 -0.0189
10 -11 4 -0.4894 0.0419
10 -11 5 1.1210 -0.0168
10 -11 6 -0.4527 -0.0019
10 -10 0 -0.3392 0.0173
10 -10 1 0.3976 -0.0441
10 -10 2 -0.9215 0.0386
10 -10 3 0.0396 -0.0107
10 -10 4 1.1340 -0.0178
10 -10 5 -0.6441 0.0270
10 -10 6 -0.4216 -0.0476
10 -10 7 0.2380 0.0853
10 -9 0 1.1395 -0.0073
10 -9 1 -0.7384 0.0116
10 -9 2 0.3445 -0.0216
10 -9 3 1.0019 0.0042
10 -9 4 -1.2679 0.0166
10 -9 5 -0.4078 -0.0251
10 -9 6 1.2905 0.0494
10 -9 7 -0.4121 -0.0630
10 -8 0 0.0629 -0.0261
10 -8 1 0.3275 0.0085
10 -8 2 0.2953 0.0026
10 -8 3 -1.6131 0.0078
10 -8 4 0.7391 -0.0065
10 -8 5 1.1165 0.0016
10 -8 6 -0.7954 0.0020
10 -8 7 -0.3492 -0.0257
10 -7 0 0.1112 0.0154
10 -7 1 -0.9015 0.0008
10 -7 2 -0.6511 -0.0016
10 -7 3 1.5622 -0.0001
10 -7 4 -0.1254 -0.0066
10 -7 5 -0.3369 0.0259
10 -7 6 -0.9517 -0.0683
10 -7 7 1.0440 0.0952
10 -6 0 -1.8442 0.0029
10 -6 1 0.7161 -0.0074
10 -6 2 1.5221 0.0076
10 -6 3 -1.2706 0.0001
10 -6 4 0.3924 -0.0007
10 -6 5 -1.3988 -0.0347
10 -6 6 1.8729 0.0772
10 -5 0 1.2058 0.0025
10 -5 1 1.4408 0.0017
10 -5 2 -2.1120 0.0056
10 -5 3 0.8435 -0.0239
10 -5 4 -1.1861 0.0165
10 -5 5 2.0491 0.0117
10 -5 6 -0.9556 -0.0137
10 -4 0 1.4361 0.0024
10 -4 1 -2.5518 0.0016
10 -4 2 1.0752 -0.0214
10 -4 3 -0.4061 0.0269
10 -4 4 1.4342 -0.0165
10 -4 5 -1.0227 0.0240
10 -4 6 -0.4407 -0.0410
10 -3 0 -2.0932 -0.0233
10 -3 1 1.1140 0.0020
10 -3 2 0.1719 0.0064
10 -3 3 0.5693 0.0025
10 -3 4 -1.0827 0.0066
10 -3 5 -0.2216 -0.0202
10 -2 0 0.6488 0.0092
10 -2 1 0.2416 0.0009
10 -2 2 0.0674 0.0194
10 -2 3 -1.1877 -0.0252
10 -2 4 0.8015 0.0259
10 -2 5 0.5466 -0.0558
10 -1 0 0.2894 0.0327
10 -1 1 -0.2446 -0.0023
10 -1 2 -0.7028 -0.0294
10 -1 3 1.4711 0.0439
10 -1 4 -0.8280 -0.0909
10 0 0 -0.1698 -0.0309
10 0 1 0.2449 -0.0086
10 0 2 0.5292 0.0245
10 0 3 -1.2522 -0.0607
10 1 0 -0.0486 -0.0009
10 1 1 -0.6288 -0.0021
10 1 2 -0.1036 0.0019
10 2 0 -0.0965 -0.0099
10 2 1 0.6646 0.0417
11 -11 0 -0.9114 0.0126
11 -11 1 1.2602 0.0308
11 -11 2 -0.3402 -0.1071
11 -10 0 -0.0088 -0.0036
11 -10 1 -0.1278 -0.0395
11 -10 2 -0.3926 0.0839
11 -10 3 0.6371 -0.0687
11 -9 0 -0.1255 0.0110
11 -9 1 0.5798 0.0100
11 -9 2 0.2015 -0.0155
11 -9 3 -0.5071 -0.0338
11 -8 0 1.6633 -0.0088
11 -8 1 -1.0878 0.0066
11 -8 2 -0.4628 -0.0267
11 -8 3 0.3400 0.0649
11 -8 4 0.2577 -0.0652
11 -7 0 -1.6901 -0.0047
11 -7 1 -0.2326 -0.0037
11 -7 2 0.7695 0.0176
11 -7 3 0.4435 -0.0243
11 -7 4 -0.3707 0.0291
11 -6 0 -0.2771 0.0028
11 -6 1 1.3885 0.0020
11 -6 2 0.3024 0.0009
11 -6 3 -1.3507 0.0154
11 -6 4 0.1630 -0.0542
11 -5 0 1.7241 0.0068
11 -5 1 -0.5662 0.0062
11 -5 2 -1.5479 -0.0005
11 -5 3 0.9886 -0.0420
11 -4 0 -1.2415 0.0116
11 -4 1 -1.0185 -0.0221
11 -4 2 1.4970 -0.0093
11 -4 3 -0.0320 0.0312
11 -3 0 -0.4951 -0.0171
11 -3 1 1.9207 -0.0152
11 -3 2 -0.9824 0.0394
11 -2 0 1.7115 -0.0535
11 -2 1 -1.6348 0.1052
11 -1 0 -1.1587 0.1157
0 0 0 0.0 0.0
;
_shelx_fab_checksum              36097
_olex2_submission_special_instructions 'No special instructions were received'
loop_
_space_group_symop_operation_xyz
'x, y, z'
'-x, -y, -z'
loop_
_atom_site_label
_atom_site_type_symbol
_atom_site_fract_x
_atom_site_fract_y
_atom_site_fract_z
_atom_site_U_iso_or_equiv
_atom_site_adp_type
_atom_site_occupancy
_atom_site_site_symmetry_order
_atom_site_calc_flag
_atom_site_refinement_flags_posn
Co1 Co 0.14239(8) 1.03691(6) 0.91706(5) 0.0326(2) Uani 1 1 d .
O2 O -0.2498(4) 0.9077(3) 0.9336(3) 0.0387(9) Uani 1 1 d .
O1 O -0.0527(4) 0.9250(3) 0.8804(3) 0.0413(9) Uani 1 1 d .
O5 O -0.3357(4) 0.8648(3) 0.1095(3) 0.0415(9) Uani 1 1 d .
O4 O -0.1358(4) 0.9811(3) 0.2304(3) 0.0421(9) Uani 1 1 d .
N1 N 0.2306(5) 0.9141(4) 0.8869(3) 0.0379(10) Uani 1 1 d .
N4 N 1.0447(5) 0.1554(4) 0.9390(3) 0.0392(10) Uani 1 1 d .
O3 O -0.5142(5) 0.8554(4) 0.4939(3) 0.0688(15) Uani 1 1 d .
C1 C -0.1879(6) 0.9088(4) 0.8674(4) 0.0352(11) Uani 1 1 d .
C2 C -0.2772(6) 0.8899(4) 0.7675(4) 0.0379(12) Uani 1 1 d .
N2 N 0.5097(6) 0.6789(4) 0.9018(4) 0.0511(12) Uani 1 1 d .
H2 H 0.536980 0.734034 0.958121 0.061 Uiso 1 1 calc R
O8 O 0.8912(7) 0.3485(5) 0.7290(5) 0.0917(18) Uani 1 1 d .
O7 O 0.8028(6) 0.4089(4) 1.0628(4) 0.0777(16) Uani 1 1 d .
C29 C 0.9961(7) 0.3014(5) 1.0457(5) 0.0478(14) Uani 1 1 d .
H29 H 1.010550 0.350397 1.110731 0.057 Uiso 1 1 calc R
C30 C 1.0634(6) 0.2301(4) 1.0301(4) 0.0434(13) Uani 1 1 d .
H30 H 1.125496 0.233858 1.085946 0.052 Uiso 1 1 calc R
O6 O 0.3634(7) 0.5997(5) 0.7437(4) 0.102(2) Uani 1 1 d .
N3 N 0.8010(5) 0.4073(4) 0.9117(4) 0.0484(12) Uani 1 1 d .
H3 H 0.830138 0.382683 0.859965 0.058 Uiso 1 1 calc R
C3 C -0.4079(7) 0.9083(6) 0.7557(4) 0.0541(17) Uani 1 1 d .
H3A H -0.444629 0.927984 0.810148 0.065 Uiso 1 1 calc R
C28 C 0.9058(6) 0.2994(4) 0.9629(5) 0.0439(13) Uani 1 1 d .
C32 C 0.8879(7) 0.2238(5) 0.8691(5) 0.0534(16) Uani 1 1 d .
H32 H 0.829496 0.219762 0.811609 0.064 Uiso 1 1 calc R
C10 C -0.4692(6) 0.8236(5) 0.2519(4) 0.0465(14) Uani 1 1 d .
H10 H -0.523255 0.781634 0.184283 0.056 Uiso 1 1 calc R
C22 C 0.6329(7) 0.6069(5) 0.9913(5) 0.0542(16) Uani 1 1 d .
H22 H 0.620360 0.651601 1.049506 0.065 Uiso 1 1 calc R
C4 C -0.4837(7) 0.8978(6) 0.6647(5) 0.0593(18) Uani 1 1 d .
H4 H -0.569920 0.911445 0.657940 0.071 Uiso 1 1 calc R
C24 C 0.7254(6) 0.4746(4) 0.9112(5) 0.0446(14) Uani 1 1 d .
C31 C 0.9580(7) 0.1535(5) 0.8613(5) 0.0513(15) Uani 1 1 d .
H31 H 0.942815 0.101948 0.797351 0.062 Uiso 1 1 calc R
C23 C 0.7046(7) 0.5420(5) 0.9965(5) 0.0554(16) Uani 1 1 d .
H23 H 0.739867 0.543131 1.058250 0.067 Uiso 1 1 calc R
C7 C -0.2298(7) 0.8553(5) 0.6838(4) 0.0531(16) Uani 1 1 d .
H7 H -0.145301 0.839426 0.689280 0.064 Uiso 1 1 calc R
C14 C -0.2634(6) 0.9149(4) 0.2014(4) 0.0349(12) Uani 1 1 d .
C9 C -0.5261(6) 0.8117(5) 0.3263(4) 0.0469(15) Uani 1 1 d .
H9 H -0.618762 0.761752 0.308749 0.056 Uiso 1 1 calc R
C21 C 0.5787(6) 0.6074(5) 0.9010(5) 0.0472(14) Uani 1 1 d .
N5 N 1.0749(8) 0.3106(6) 0.6732(6) 0.099(2) Uani 1 1 d .
C17 C 0.3473(6) 0.7558(5) 0.8502(5) 0.0449(13) Uani 1 1 d .
C25 C 0.6737(7) 0.4761(5) 0.8202(5) 0.0567(16) Uani 1 1 d .
H25 H 0.689382 0.433026 0.762511 0.068 Uiso 1 1 calc R
C11 C -0.3303(6) 0.8988(4) 0.2788(4) 0.0402(13) Uani 1 1 d .
C6 C -0.3047(7) 0.8440(6) 0.5935(4) 0.0637(19) Uani 1 1 d .
H6 H -0.270994 0.820625 0.538111 0.076 Uiso 1 1 calc R
C19 C 0.1935(9) 0.8345(6) 0.7962(5) 0.068(2) Uani 1 1 d .
H19 H 0.126116 0.831336 0.743133 0.082 Uiso 1 1 calc R
C5 C -0.4302(7) 0.8669(5) 0.5838(4) 0.0511(16) Uani 1 1 d .
C16 C 0.3833(8) 0.8353(6) 0.9428(5) 0.067(2) Uani 1 1 d .
H16 H 0.449508 0.838867 0.996740 0.080 Uiso 1 1 calc R
C8 C -0.4471(7) 0.8728(5) 0.4247(4) 0.0512(15) Uani 1 1 d .
C33 C 1.0185(11) 0.3712(7) 0.7304(7) 0.082(2) Uani 1 1 d .
H33 H 1.082727 0.438172 0.776682 0.098 Uiso 1 1 calc R
C27 C 0.8334(7) 0.3769(5) 0.9839(5) 0.0489(14) Uani 1 1 d .
C15 C 0.3234(8) 0.9115(6) 0.9588(5) 0.066(2) Uani 1 1 d .
H15 H 0.350155 0.964037 1.024102 0.080 Uiso 1 1 calc R
C26 C 0.5998(8) 0.5404(5) 0.8143(5) 0.0612(18) Uani 1 1 d .
H26 H 0.563939 0.539313 0.752678 0.073 Uiso 1 1 calc R
C12 C -0.2545(7) 0.9596(5) 0.3797(4) 0.0553(17) Uani 1 1 d .
H12 H -0.161336 1.009428 0.398271 0.066 Uiso 1 1 calc R
C20 C 0.4086(8) 0.6726(5) 0.8276(5) 0.0587(17) Uani 1 1 d .
C13 C -0.3116(7) 0.9491(6) 0.4538(5) 0.064(2) Uani 1 1 d .
H13 H -0.259979 0.992336 0.521592 0.077 Uiso 1 1 calc R
C18 C 0.2489(9) 0.7572(6) 0.7769(5) 0.077(2) Uani 1 1 d .
H18 H 0.218336 0.703939 0.711575 0.093 Uiso 1 1 calc R
C34 C 1.2260(13) 0.3401(11) 0.6818(11) 0.152(5) Uani 1 1 d .
H34A H 1.278519 0.408698 0.736533 0.227 Uiso 1 1 calc GR
H34B H 1.239719 0.340094 0.620258 0.227 Uiso 1 1 calc GR
H34C H 1.262570 0.291566 0.694578 0.227 Uiso 1 1 calc GR
C35 C 0.9743(18) 0.2148(11) 0.5924(13) 0.248(12) Uani 1 1 d .
H35A H 0.877378 0.203305 0.599379 0.372 Uiso 1 1 calc GR
H35B H 1.003528 0.158927 0.593587 0.372 Uiso 1 1 calc GR
H35C H 0.974101 0.217203 0.529671 0.372 Uiso 1 1 calc GR
loop_
_atom_site_aniso_label
_atom_site_aniso_U_11
_atom_site_aniso_U_22
_atom_site_aniso_U_33
_atom_site_aniso_U_23
_atom_site_aniso_U_13
_atom_site_aniso_U_12
Co1 0.0353(4) 0.0401(4) 0.0367(4) 0.0242(3) 0.0142(3) 0.0225(3)
O2 0.042(2) 0.054(2) 0.0357(19) 0.0281(18) 0.0174(17) 0.0255(18)
O1 0.035(2) 0.046(2) 0.051(2) 0.0262(19) 0.0164(17) 0.0196(18)
O5 0.047(2) 0.046(2) 0.035(2) 0.0195(18) 0.0130(17) 0.0198(19)
O4 0.039(2) 0.051(2) 0.043(2) 0.0262(19) 0.0143(17) 0.0182(19)
N1 0.037(2) 0.047(3) 0.043(3) 0.027(2) 0.014(2) 0.023(2)
N4 0.042(3) 0.039(2) 0.047(3) 0.024(2) 0.014(2) 0.022(2)
O3 0.048(3) 0.129(4) 0.044(2) 0.057(3) 0.016(2) 0.026(3)
C1 0.040(3) 0.038(3) 0.037(3) 0.021(2) 0.012(2) 0.024(2)
C2 0.034(3) 0.048(3) 0.041(3) 0.026(3) 0.014(2) 0.019(2)
N2 0.050(3) 0.045(3) 0.068(3) 0.025(3) 0.016(3) 0.033(2)
O8 0.074(4) 0.128(5) 0.096(4) 0.057(4) 0.037(3) 0.053(4)
O7 0.120(4) 0.086(4) 0.098(4) 0.065(3) 0.072(4) 0.083(4)
C29 0.054(4) 0.040(3) 0.065(4) 0.032(3) 0.022(3) 0.026(3)
C30 0.051(3) 0.046(3) 0.043(3) 0.023(3) 0.011(3) 0.028(3)
O6 0.123(5) 0.085(4) 0.076(4) 0.001(3) -0.010(3) 0.081(4)
N3 0.052(3) 0.046(3) 0.062(3) 0.027(3) 0.023(2) 0.033(2)
C3 0.051(4) 0.095(5) 0.039(3) 0.039(3) 0.024(3) 0.042(4)
C28 0.042(3) 0.037(3) 0.062(4) 0.028(3) 0.016(3) 0.021(3)
C32 0.060(4) 0.053(4) 0.056(4) 0.026(3) 0.006(3) 0.038(3)
C10 0.044(3) 0.053(4) 0.035(3) 0.019(3) 0.005(2) 0.012(3)
C22 0.073(4) 0.052(4) 0.061(4) 0.029(3) 0.030(3) 0.046(4)
C4 0.051(4) 0.094(5) 0.052(4) 0.042(4) 0.018(3) 0.039(4)
C24 0.041(3) 0.040(3) 0.066(4) 0.029(3) 0.016(3) 0.027(3)
C31 0.059(4) 0.049(4) 0.050(3) 0.021(3) 0.006(3) 0.034(3)
C23 0.066(4) 0.054(4) 0.063(4) 0.031(3) 0.020(3) 0.038(3)
C7 0.050(4) 0.077(4) 0.039(3) 0.022(3) 0.019(3) 0.035(3)
C14 0.041(3) 0.043(3) 0.040(3) 0.026(3) 0.020(2) 0.027(3)
C9 0.037(3) 0.064(4) 0.044(3) 0.034(3) 0.011(3) 0.012(3)
C21 0.042(3) 0.040(3) 0.066(4) 0.025(3) 0.014(3) 0.024(3)
N5 0.074(5) 0.078(5) 0.116(6) 0.018(5) 0.044(5) 0.018(4)
C17 0.042(3) 0.044(3) 0.057(4) 0.026(3) 0.013(3) 0.024(3)
C25 0.062(4) 0.054(4) 0.057(4) 0.019(3) 0.014(3) 0.036(3)
C11 0.044(3) 0.050(3) 0.042(3) 0.030(3) 0.017(3) 0.024(3)
C6 0.054(4) 0.105(6) 0.036(3) 0.027(4) 0.022(3) 0.036(4)
C19 0.087(5) 0.073(5) 0.049(4) 0.017(4) 0.002(4) 0.062(4)
C5 0.045(3) 0.075(4) 0.040(3) 0.035(3) 0.015(3) 0.018(3)
C16 0.077(5) 0.070(5) 0.052(4) 0.021(4) -0.004(3) 0.048(4)
C8 0.049(4) 0.078(4) 0.044(3) 0.039(3) 0.021(3) 0.027(3)
C33 0.090(7) 0.072(5) 0.083(6) 0.027(5) 0.026(5) 0.042(5)
C27 0.050(4) 0.044(3) 0.072(4) 0.033(3) 0.028(3) 0.029(3)
C15 0.081(5) 0.069(5) 0.048(4) 0.018(3) 0.002(3) 0.050(4)
C26 0.072(5) 0.061(4) 0.066(4) 0.029(4) 0.016(4) 0.050(4)
C12 0.057(4) 0.058(4) 0.038(3) 0.022(3) 0.010(3) 0.005(3)
C20 0.061(4) 0.054(4) 0.058(4) 0.018(3) 0.009(3) 0.033(3)
C13 0.054(4) 0.088(5) 0.036(3) 0.026(3) 0.016(3) 0.007(4)
C18 0.091(6) 0.074(5) 0.049(4) 0.004(4) -0.006(4) 0.057(5)
C34 0.110(10) 0.130(11) 0.205(14) 0.055(10) 0.084(10) 0.040(8)
C35 0.165(15) 0.116(11) 0.26(2) -0.088(12) 0.107(14) -0.016(11)
loop_
_atom_type_symbol
_atom_type_description
_atom_type_scat_dispersion_real
_atom_type_scat_dispersion_imag
_atom_type_scat_source
C C 0.0033 0.0016 'International Tables Vol C Tables 4.2.6.8 and 6.1.1.4'
H H 0.0000 0.0000 'International Tables Vol C Tables 4.2.6.8 and 6.1.1.4'
Co Co 0.3494 0.9721 'International Tables Vol C Tables 4.2.6.8 and 6.1.1.4'
N N 0.0061 0.0033 'International Tables Vol C Tables 4.2.6.8 and 6.1.1.4'
O O 0.0106 0.0060 'International Tables Vol C Tables 4.2.6.8 and 6.1.1.4'
loop_
_geom_angle_atom_site_label_1
_geom_angle_atom_site_label_2
_geom_angle_atom_site_label_3
_geom_angle
_geom_angle_site_symmetry_1
_geom_angle_site_symmetry_3
O2 Co1 O5 93.51(14) 2_577 2_576
O2 Co1 O4 152.51(15) 2_577 2_576
O2 Co1 N1 87.41(16) 2_577 .
O2 Co1 N4 95.68(16) 2_577 1_465
O1 Co1 O2 108.99(15) . 2_577
O1 Co1 O5 157.00(14) . 2_576
O1 Co1 O4 97.59(15) . 2_576
O1 Co1 N1 85.85(16) . .
O1 Co1 N4 92.29(16) . 1_465
O4 Co1 O5 59.52(14) 2_576 2_576
O4 Co1 N1 87.64(15) 2_576 .
O4 Co1 N4 90.01(16) 2_576 1_465
N1 Co1 O5 90.57(15) . 2_576
N1 Co1 N4 176.79(18) . 1_465
N4 Co1 O5 90.12(15) 1_465 2_576
C1 O2 Co1 125.0(3) . 2_577
C1 O1 Co1 142.4(4) . .
C14 O5 Co1 86.3(3) . 2_576
C14 O4 Co1 93.1(3) . 2_576
C19 N1 Co1 123.4(4) . .
C15 N1 Co1 122.1(4) . .
C15 N1 C19 114.6(5) . .
C30 N4 Co1 123.0(3) . 1_645
C31 N4 Co1 120.4(4) . 1_645
C31 N4 C30 116.5(5) . .
C5 O3 C8 120.3(5) . .
O2 C1 O1 123.6(4) . .
O2 C1 C2 119.2(5) . .
O1 C1 C2 117.3(4) . .
C3 C2 C1 121.7(5) . .
C7 C2 C1 120.2(5) . .
C7 C2 C3 118.1(5) . .
C21 N2 H2 115.6 . .
C20 N2 H2 115.6 . .
C20 N2 C21 128.9(6) . .
C30 C29 H29 120.4 . .
C30 C29 C28 119.2(6) . .
C28 C29 H29 120.4 . .
N4 C30 C29 123.8(5) . .
N4 C30 H30 118.1 . .
C29 C30 H30 118.1 . .
C24 N3 H3 116.1 . .
C27 N3 H3 116.1 . .
C27 N3 C24 127.8(5) . .
C2 C3 H3A 119.5 . .
C4 C3 C2 121.1(5) . .
C4 C3 H3A 119.5 . .
C29 C28 C27 117.2(6) . .
C32 C28 C29 117.2(5) . .
C32 C28 C27 125.6(5) . .
C28 C32 H32 120.4 . .
C28 C32 C31 119.3(5) . .
C31 C32 H32 120.4 . .
C9 C10 H10 120.2 . .
C9 C10 C11 119.6(5) . .
C11 C10 H10 120.2 . .
C23 C22 H22 119.4 . .
C23 C22 C21 121.2(6) . .
C21 C22 H22 119.4 . .
C3 C4 H4 120.4 . .
C5 C4 C3 119.2(6) . .
C5 C4 H4 120.4 . .
C23 C24 N3 123.9(5) . .
C23 C24 C25 118.2(5) . .
C25 C24 N3 117.9(6) . .
N4 C31 C32 123.9(6) . .
N4 C31 H31 118.0 . .
C32 C31 H31 118.0 . .
C22 C23 C24 120.9(6) . .
C22 C23 H23 119.5 . .
C24 C23 H23 119.5 . .
C2 C7 H7 119.5 . .
C6 C7 C2 121.0(6) . .
C6 C7 H7 119.5 . .
O5 C14 C11 120.4(5) . .
O4 C14 O5 120.9(4) . .
O4 C14 C11 118.7(5) . .
C10 C9 H9 119.9 . .
C8 C9 C10 120.1(5) . .
C8 C9 H9 119.9 . .
C22 C21 N2 118.0(6) . .
C22 C21 C26 118.6(5) . .
C26 C21 N2 123.3(5) . .
C33 N5 C34 123.6(9) . .
C33 N5 C35 116.8(10) . .
C34 N5 C35 119.2(11) . .
C16 C17 C20 123.9(5) . .
C16 C17 C18 114.9(6) . .
C18 C17 C20 121.3(6) . .
C24 C25 H25 119.5 . .
C26 C25 C24 121.0(6) . .
C26 C25 H25 119.5 . .
C10 C11 C14 121.8(5) . .
C12 C11 C10 118.3(5) . .
C12 C11 C14 119.9(5) . .
C7 C6 H6 119.8 . .
C7 C6 C5 120.4(6) . .
C5 C6 H6 119.8 . .
N1 C19 H19 118.2 . .
N1 C19 C18 123.5(6) . .
C18 C19 H19 118.2 . .
C4 C5 O3 116.1(6) . .
C4 C5 C6 120.0(5) . .
C6 C5 O3 123.8(5) . .
C17 C16 H16 119.5 . .
C17 C16 C15 121.1(6) . .
C15 C16 H16 119.5 . .
C9 C8 O3 115.8(5) . .
C9 C8 C13 121.8(5) . .
C13 C8 O3 122.4(5) . .
O8 C33 N5 126.4(9) . .
O8 C33 H33 116.8 . .
N5 C33 H33 116.8 . .
O7 C27 N3 122.8(6) . .
O7 C27 C28 120.1(5) . .
N3 C27 C28 117.1(6) . .
N1 C15 C16 124.0(6) . .
N1 C15 H15 118.0 . .
C16 C15 H15 118.0 . .
C21 C26 H26 120.0 . .
C25 C26 C21 120.0(6) . .
C25 C26 H26 120.0 . .
C11 C12 H12 118.9 . .
C13 C12 C11 122.3(6) . .
C13 C12 H12 118.9 . .
N2 C20 C17 118.0(6) . .
O6 C20 N2 121.9(6) . .
O6 C20 C17 120.0(6) . .
C8 C13 C12 117.9(6) . .
C8 C13 H13 121.0 . .
C12 C13 H13 121.0 . .
C17 C18 C19 121.9(6) . .
C17 C18 H18 119.0 . .
C19 C18 H18 119.0 . .
N5 C34 H34A 109.5 . .
N5 C34 H34B 109.5 . .
N5 C34 H34C 109.5 . .
H34A C34 H34B 109.5 . .
H34A C34 H34C 109.5 . .
H34B C34 H34C 109.5 . .
N5 C35 H35A 109.5 . .
N5 C35 H35B 109.5 . .
N5 C35 H35C 109.5 . .
H35A C35 H35B 109.5 . .
H35A C35 H35C 109.5 . .
H35B C35 H35C 109.5 . .
loop_
_geom_bond_atom_site_label_1
_geom_bond_atom_site_label_2
_geom_bond_distance
_geom_bond_site_symmetry_2
Co1 O2 2.045(3) 2_577
Co1 O1 2.003(4) .
Co1 O5 2.270(4) 2_576
Co1 O4 2.122(3) 2_576
Co1 N1 2.170(4) .
Co1 N4 2.186(4) 1_465
O2 C1 1.257(6) .
O1 C1 1.263(6) .
O5 C14 1.256(6) .
O4 C14 1.254(6) .
N1 C19 1.331(8) .
N1 C15 1.321(7) .
N4 C30 1.341(7) .
N4 C31 1.318(7) .
O3 C5 1.387(7) .
O3 C8 1.394(6) .
C1 C2 1.493(7) .
C2 C3 1.394(8) .
C2 C7 1.382(8) .
N2 H2 0.8600 .
N2 C21 1.416(7) .
N2 C20 1.327(8) .
O8 C33 1.208(10) .
O7 C27 1.224(8) .
C29 H29 0.9300 .
C29 C30 1.372(8) .
C29 C28 1.395(8) .
C30 H30 0.9300 .
O6 C20 1.215(8) .
N3 H3 0.8600 .
N3 C24 1.410(7) .
N3 C27 1.355(7) .
C3 H3A 0.9300 .
C3 C4 1.379(8) .
C28 C32 1.376(9) .
C28 C27 1.485(8) .
C32 H32 0.9300 .
C32 C31 1.391(8) .
C10 H10 0.9300 .
C10 C9 1.384(8) .
C10 C11 1.394(8) .
C22 H22 0.9300 .
C22 C23 1.367(8) .
C22 C21 1.381(8) .
C4 H4 0.9300 .
C4 C5 1.378(9) .
C24 C23 1.388(9) .
C24 C25 1.393(8) .
C31 H31 0.9300 .
C23 H23 0.9300 .
C7 H7 0.9300 .
C7 C6 1.361(8) .
C14 C11 1.497(7) .
C9 H9 0.9300 .
C9 C8 1.355(8) .
C21 C26 1.399(9) .
N5 C33 1.309(11) .
N5 C34 1.410(13) .
N5 C35 1.418(14) .
C17 C16 1.349(9) .
C17 C20 1.480(9) .
C17 C18 1.359(8) .
C25 H25 0.9300 .
C25 C26 1.377(8) .
C11 C12 1.376(8) .
C6 H6 0.9300 .
C6 C5 1.378(9) .
C19 H19 0.9300 .
C19 C18 1.365(9) .
C16 H16 0.9300 .
C16 C15 1.384(9) .
C8 C13 1.372(9) .
C33 H33 0.9300 .
C15 H15 0.9300 .
C26 H26 0.9300 .
C12 H12 0.9300 .
C12 C13 1.374(8) .
C13 H13 0.9300 .
C18 H18 0.9300 .
C34 H34A 0.9600 .
C34 H34B 0.9600 .
C34 H34C 0.9600 .
C35 H35A 0.9600 .
C35 H35B 0.9600 .
C35 H35C 0.9600 .
loop_
_geom_torsion_atom_site_label_1
_geom_torsion_atom_site_label_2
_geom_torsion_atom_site_label_3
_geom_torsion_atom_site_label_4
_geom_torsion
_geom_torsion_site_symmetry_1
Co1 O2 C1 O1 14.7(7) 2_577
Co1 O2 C1 C2 -165.4(3) 2_577
Co1 O1 C1 O2 -97.5(6) .
Co1 O1 C1 C2 82.6(7) .
Co1 O5 C14 O4 -3.3(5) 2_576
Co1 O5 C14 C11 174.8(4) 2_576
Co1 O4 C14 O5 3.6(5) 2_576
Co1 O4 C14 C11 -174.6(4) 2_576
Co1 N1 C19 C18 179.9(6) .
Co1 N1 C15 C16 -179.4(6) .
Co1 N4 C30 C29 -176.1(4) 1_645
Co1 N4 C31 C32 177.8(5) 1_645
O2 C1 C2 C3 23.7(8) .
O2 C1 C2 C7 -157.6(5) .
O1 C1 C2 C3 -156.4(6) .
O1 C1 C2 C7 22.3(8) .
O5 C14 C11 C10 4.5(8) .
O5 C14 C11 C12 -175.1(5) .
O4 C14 C11 C10 -177.3(5) .
O4 C14 C11 C12 3.0(8) .
N1 C19 C18 C17 0.2(14) .
O3 C8 C13 C12 179.5(7) .
C1 C2 C3 C4 175.2(6) .
C1 C2 C7 C6 -175.8(6) .
C2 C3 C4 C5 1.1(11) .
C2 C7 C6 C5 -0.1(11) .
N2 C21 C26 C25 177.1(6) .
C29 C28 C32 C31 0.6(9) .
C29 C28 C27 O7 -29.3(9) .
C29 C28 C27 N3 152.1(5) .
C30 N4 C31 C32 0.5(9) .
C30 C29 C28 C32 0.9(9) .
C30 C29 C28 C27 178.9(5) .
N3 C24 C23 C22 178.6(6) .
N3 C24 C25 C26 -179.6(6) .
C3 C2 C7 C6 3.0(10) .
C3 C4 C5 O3 178.4(6) .
C3 C4 C5 C6 1.9(11) .
C28 C29 C30 N4 -1.9(9) .
C28 C32 C31 N4 -1.4(10) .
C32 C28 C27 O7 148.6(7) .
C32 C28 C27 N3 -30.1(9) .
C10 C9 C8 O3 179.6(6) .
C10 C9 C8 C13 1.6(11) .
C10 C11 C12 C13 -0.6(10) .
C22 C21 C26 C25 -0.2(10) .
C24 N3 C27 O7 -2.6(10) .
C24 N3 C27 C28 176.0(5) .
C24 C25 C26 C21 1.5(11) .
C31 N4 C30 C29 1.2(8) .
C23 C22 C21 N2 -178.1(6) .
C23 C22 C21 C26 -0.6(10) .
C23 C24 C25 C26 -2.0(10) .
C7 C2 C3 C4 -3.5(10) .
C7 C6 C5 O3 -178.6(6) .
C7 C6 C5 C4 -2.4(11) .
C14 C11 C12 C13 179.0(6) .
C9 C10 C11 C14 180.0(5) .
C9 C10 C11 C12 -0.4(9) .
C9 C8 C13 C12 -2.5(11) .
C21 N2 C20 O6 -1.7(12) .
C21 N2 C20 C17 176.3(6) .
C21 C22 C23 C24 0.1(10) .
C17 C16 C15 N1 -1.1(13) .
C25 C24 C23 C22 1.2(10) .
C11 C10 C9 C8 -0.1(10) .
C11 C12 C13 C8 2.0(11) .
C19 N1 C15 C16 2.3(11) .
C5 O3 C8 C9 145.9(6) .
C5 O3 C8 C13 -36.1(10) .
C16 C17 C20 N2 -3.0(10) .
C16 C17 C20 O6 175.0(8) .
C16 C17 C18 C19 1.0(12) .
C8 O3 C5 C4 149.9(6) .
C8 O3 C5 C6 -33.8(10) .
C27 N3 C24 C23 17.5(10) .
C27 N3 C24 C25 -165.0(6) .
C27 C28 C32 C31 -177.2(6) .
C15 N1 C19 C18 -1.8(11) .
C20 N2 C21 C22 -154.4(7) .
C20 N2 C21 C26 28.2(10) .
C20 C17 C16 C15 179.2(7) .
C20 C17 C18 C19 -178.8(7) .
C18 C17 C16 C15 -0.6(11) .
C18 C17 C20 N2 176.7(7) .
C18 C17 C20 O6 -5.2(11) .
C34 N5 C33 O8 -176.9(11) .
C35 N5 C33 O8 9.6(18) .
loop_
_smtbx_masks_void_nr
_smtbx_masks_void_average_x
_smtbx_masks_void_average_y
_smtbx_masks_void_average_z
_smtbx_masks_void_volume
_smtbx_masks_void_count_electrons
_smtbx_masks_void_content
1 -0.718 0.500 0.500 359.8 75.3 DMF
