#------------------------------------------------------------------------------
#$Date: 2019-11-24 05:37:09 +0200 (Sun, 24 Nov 2019) $
#$Revision: 236845 $
#$URL: file:///home/coder/svn-repositories/cod/cif/7/70/22/7702202.cif $
#------------------------------------------------------------------------------
#
# This file is available in the Crystallography Open Database (COD),
# http://www.crystallography.net/
#
# All data on this site have been placed in the public domain by the
# contributors.
#
data_7702202
loop_
_publ_author_name
'Hawes, Chris S.'
'\'O M\'aille, Gear\'oid M'
'Byrne, Kevin'
'Schmitt, Wolfgang'
'Gunnlaugsson, Thorfinnur'
_publ_section_title
;
 Tetraarylpyrrolo[3,2-b]pyrroles as versatile and responsive fluorescent
 linkers in metal-organic frameworks.
;
_journal_issue                   30
_journal_name_full
'Dalton transactions (Cambridge, England : 2003)'
_journal_page_first              10080
_journal_page_last               10092
_journal_paper_doi               10.1039/c8dt01784k
_journal_volume                  47
_journal_year                    2018
_chemical_absolute_configuration ad
_chemical_formula_moiety         'C38 H24 Cd N6 O4'
_chemical_formula_sum            'C38 H24 Cd N6 O4'
_chemical_formula_weight         741.03
_space_group_crystal_system      hexagonal
_space_group_IT_number           179
_space_group_name_Hall           'P 65 2 (0 0 1)'
_space_group_name_H-M_alt        'P 65 2 2'
_atom_sites_solution_hydrogens   geom
_audit_creation_date             2018-04-25
_audit_creation_method
;
Olex2 1.2
(compiled 2018.04.18 svn.r3501 for OlexSys, GUI svn.r5488)
;
_audit_update_record
;
2018-04-28 deposited with the CCDC.
2018-07-04 downloaded from the CCDC.
;
_cell_angle_alpha                90
_cell_angle_beta                 90
_cell_angle_gamma                120
_cell_formula_units_Z            12
_cell_length_a                   13.4720(3)
_cell_length_b                   13.4720(3)
_cell_length_c                   100.2746(19)
_cell_measurement_reflns_used    8252
_cell_measurement_temperature    100(2)
_cell_measurement_theta_max      58.10
_cell_measurement_theta_min      3.79
_cell_volume                     15761.1(6)
_computing_cell_refinement       'SAINT v8.37A (Bruker, 2015)'
_computing_data_reduction        'SAINT v8.37A (Bruker, 2015)'
_computing_molecular_graphics    'Olex2 (Dolomanov et al., 2009)'
_computing_publication_material  'Olex2 (Dolomanov et al., 2009)'
_computing_structure_refinement  'ShelXL (Sheldrick, 2015)'
_diffrn_ambient_temperature      99.99
_diffrn_detector_area_resol_mean 8
_diffrn_measured_fraction_theta_full 1.000
_diffrn_measured_fraction_theta_max 1.000
_diffrn_measurement_device_type  'Bruker APEX-II CCD'
_diffrn_measurement_method       '\w and \f scans'
_diffrn_radiation_monochromator  graphite
_diffrn_radiation_type           CuK\a
_diffrn_radiation_wavelength     1.54178
_diffrn_reflns_av_R_equivalents  0.0983
_diffrn_reflns_av_unetI/netI     0.0543
_diffrn_reflns_Laue_measured_fraction_full 1.000
_diffrn_reflns_Laue_measured_fraction_max 1.000
_diffrn_reflns_limit_h_max       12
_diffrn_reflns_limit_h_min       -14
_diffrn_reflns_limit_k_max       14
_diffrn_reflns_limit_k_min       -14
_diffrn_reflns_limit_l_max       111
_diffrn_reflns_limit_l_min       -111
_diffrn_reflns_number            71590
_diffrn_reflns_point_group_measured_fraction_full 1.000
_diffrn_reflns_point_group_measured_fraction_max 1.000
_diffrn_reflns_theta_full        58.952
_diffrn_reflns_theta_max         58.952
_diffrn_reflns_theta_min         2.644
_diffrn_source                   'sealed tube'
_diffrn_standards_number         0
_exptl_absorpt_coefficient_mu    3.593
_exptl_absorpt_correction_T_max  0.7516
_exptl_absorpt_correction_T_min  0.5728
_exptl_absorpt_correction_type   multi-scan
_exptl_absorpt_process_details
'SADABS-2016/2 (Bruker,2016/2) was used for absorption correction. wR2(int) was 0.0970 before and 0.0785 after correction. The Ratio of minimum to maximum transmission is 0.7621. The \l/2 correction factor is Not present.'
_exptl_crystal_colour            orange
_exptl_crystal_colour_primary    orange
_exptl_crystal_density_diffrn    0.937
_exptl_crystal_description       rod
_exptl_crystal_F_000             4488
_exptl_crystal_size_max          0.26
_exptl_crystal_size_mid          0.08
_exptl_crystal_size_min          0.06
_refine_diff_density_max         0.576
_refine_diff_density_min         -0.727
_refine_diff_density_rms         0.061
_refine_ls_abs_structure_details
;
 Refined as an inversion twin.
;
_refine_ls_abs_structure_Flack   0.103(15)
_refine_ls_extinction_method     none
_refine_ls_goodness_of_fit_ref   1.037
_refine_ls_hydrogen_treatment    constr
_refine_ls_matrix_type           full
_refine_ls_number_parameters     515
_refine_ls_number_reflns         7532
_refine_ls_number_restraints     138
_refine_ls_restrained_S_all      1.029
_refine_ls_R_factor_all          0.0614
_refine_ls_R_factor_gt           0.0550
_refine_ls_shift/su_max          0.003
_refine_ls_shift/su_mean         0.000
_refine_ls_structure_factor_coef Fsqd
_refine_ls_weighting_details
'w=1/[\s^2^(Fo^2^)+(0.0956P)^2^] where P=(Fo^2^+2Fc^2^)/3'
_refine_ls_weighting_scheme      calc
_refine_ls_wR_factor_gt          0.1415
_refine_ls_wR_factor_ref         0.1458
_reflns_Friedel_coverage         0.624
_reflns_Friedel_fraction_full    1.000
_reflns_Friedel_fraction_max     1.000
_reflns_number_gt                6647
_reflns_number_total             7532
_reflns_threshold_expression     'I > 2\s(I)'
_cod_data_source_file            c8dt01784k2.cif
_cod_data_source_block           3
_cod_original_cell_volume        15761.1(8)
_cod_database_code               7702202
_shelx_shelxl_version_number     2014/7
_shelx_space_group_comment
;
The symmetry employed for this shelxl refinement is uniquely defined
by the following loop, which should always be used as a source of
symmetry information in preference to the above space-group names.
They are only intended as comments.
;
_shelx_estimated_absorpt_t_max   0.813
_shelx_estimated_absorpt_t_min   0.455
_olex2_refinement_description
;
1. Twinned data refinement
 Scales: 0.897(15)
 0.103(15)
2. Fixed Uiso
 At 1.2 times of:
  All C(H) groups
3. Restrained distances
 C15-C16 \\sim C14-C15 \\sim C14-C19 \\sim C19-C18 \\sim C18-C17 \\sim C16-C17
 with sigma of 0.01
 C24-C23 \\sim C22-C23 \\sim C22-C21 \\sim C26-C21 \\sim C25-C26 \\sim C25-C24
 with sigma of 0.01
4. Uiso/Uaniso restraints and constraints
Uanis(C20) \\sim Ueq: with sigma of 0.01 and sigma for terminal atoms of 0.01
5. Rigid body (RIGU) restrains
 O5, C21, C22, C23, C24, C25, C26, C27
 with sigma for 1-2 distances of 0.001 and sigma for 1-3 distances of 0.001
 O4, C14, C15, C16, C17, C18, C19, C20
 with sigma for 1-2 distances of 0.001 and sigma for 1-3 distances of 0.001
6. Others
 Fixed Sof: O4(0.5) O5(0.5) C14(0.5) C15(0.5) H15(0.5) C16(0.5) H16(0.5)
 C17(0.5) C18(0.5) H18(0.5) C19(0.5) H19(0.5) C20(0.5) C21(0.5) C22(0.5)
 H22(0.5) C23(0.5) H23(0.5) C24(0.5) C25(0.5) H25(0.5) C26(0.5) H26(0.5)
 C27(0.5)
7.a Aromatic/amide H refined with riding coordinates:
 C3(H3), C4(H4), C6(H6), C7(H7), C9(H9), C12(H12), C15(H15), C16(H16),
 C18(H18), C19(H19), C22(H22), C23(H23), C25(H25), C26(H26), C28(H28), C29(H29),
  C30(H30), C32(H32), C33(H33), C35(H35), C36(H36), C38(H38), C39(H39),
 C41(H41), C42(H42), C43(H43), C44(H44), C45(H45)
;
_shelx_res_file
;
    cu_csh240_0m_sq.res created by SHELXL-2014/7

TITL cu_csh240_0m_a.res in P6(5)22
REM Old TITL cu_CSH240_0m in P6(5)22
REM SHELXT solution in P6(5)22
REM R1 0.259, Rweak 0.055, Alpha 0.023, Orientation as input
REM Flack x = 0.212 ( 0.008 ) from Parsons' quotients
REM Formula found by SHELXT: C82 N17 O6 Cd2
CELL 1.54178 13.472 13.472 100.2746 90 90 120
ZERR 12 0.0003 0.0003 0.0019 0 0 0
LATT -1
SYMM -Y,+X-Y,0.667+Z
SYMM +Y-X,-X,0.333+Z
SYMM -X,-Y,0.5+Z
SYMM +Y,-X+Y,0.167+Z
SYMM -Y+X,+X,0.833+Z
SYMM +Y,+X,0.667-Z
SYMM -Y+X,-Y,-Z
SYMM -X,-X+Y,0.333-Z
SYMM -Y,-X,0.167-Z
SYMM +Y-X,+Y,0.5-Z
SYMM +X,+X-Y,0.833-Z
SFAC C H Cd N O
UNIT 456 288 12 72 48
SADI 0.01 C15 C16 C14 C15 C14 C19 C19 C18 C18 C17 C16 C17
SADI 0.01 C24 C23 C22 C23 C22 C21 C26 C21 C25 C26 C25 C24
RIGU 0.001 0.001 O5 C21 C22 C23 C24 C25 C26 C27
RIGU 0.001 0.001 O4 C14 C15 C16 C17 C18 C19 C20
ISOR 0.01 0.01 C20

L.S. 10 0 215
PLAN  40
SIZE 0.06 0.08 0.26
TEMP -173.16
BOND $H
list 4
ABIN
fmap 2
acta
TWIN -1 0 0 0 -1 0 0 0 -1 2
REM <olex2.extras>
REM <HklSrc "%.\\cu_csh240_0m_sq.hkl">
REM </olex2.extras>

WGHT    0.095600
BASF   0.10318
FVAR       0.13694
CD1   3    0.084589    0.074162    0.381105    11.00000    0.06063    0.05036 =
         0.03563   -0.00015   -0.00286    0.02556
O1    5    0.233795    0.186433    0.393758    11.00000    0.06770    0.05546 =
         0.04468   -0.00662   -0.00806    0.02621
O2    5    0.075007    0.144281    0.405458    11.00000    0.05787    0.07847 =
         0.04481   -0.00247   -0.01070    0.02795
O3    5    0.973863    0.815620    0.536164    11.00000    0.10494    0.08788 =
         0.05560   -0.02355   -0.04128    0.05491
PART -1
O4    5    1.000949    0.982910    0.526046    10.50000    0.08296    0.05213 =
         0.04654    0.00000   -0.00908    0.01387
PART 0
PART -2
O5    5    1.052003    0.951204    0.524146    10.50000    0.14087    0.05519 =
         0.05839    0.00096   -0.03277    0.00565
PART 0
N1    4    0.924265    0.927703    0.388562    11.00000    0.07034    0.07225 =
         0.04304    0.00348   -0.00422    0.02649
N2    4    0.792853    0.803402    0.401991    11.00000    0.08166    0.07346 =
         0.03167    0.00592    0.00423    0.02480
N3    4    0.578539    0.534902    0.447413    11.00000    0.07749    0.06867 =
         0.03869   -0.00312   -0.00811    0.01578
N4    4    0.586907    0.520893    0.481581    11.00000    0.06289    0.07320 =
         0.03513    0.00020    0.00594   -0.00811
N5    4    0.327626    0.302593    0.527565    11.00000    0.06195    0.06989 =
         0.03957    0.00781    0.00791    0.01395
N6    4    0.208641    0.166207    0.541065    11.00000    0.06299    0.06733 =
         0.04248    0.00938    0.01184    0.01571
C1    1    0.181932    0.191185    0.404225    11.00000    0.09792    0.06731 =
         0.03868   -0.00112   -0.01322    0.05197
C2    1    0.260494    0.259132    0.415565    11.00000    0.08314    0.04416 =
         0.04657    0.00546    0.00248    0.02709
C3    1    0.211992    0.272477    0.427455    11.00000    0.06992    0.06077 =
         0.04518   -0.00543    0.00063    0.01613
AFIX  43
H3    2    0.131202    0.238252    0.428297    11.00000   -1.20000
AFIX   0
C4    1    0.282790    0.335538    0.437824    11.00000    0.05898    0.05422 =
         0.03957    0.00019   -0.00280    0.01309
AFIX  43
H4    2    0.249948    0.346567    0.445670    11.00000   -1.20000
AFIX   0
C5    1    0.398212    0.382202    0.437090    11.00000    0.07197    0.05214 =
         0.04937   -0.00204   -0.00739    0.01667
C6    1    0.443544    0.363339    0.425262    11.00000    0.06195    0.05581 =
         0.04744    0.00804    0.00215    0.01287
AFIX  43
H6    2    0.523727    0.392137    0.424618    11.00000   -1.20000
AFIX   0
C7    1    0.374622    0.304629    0.414740    11.00000    0.06104    0.06822 =
         0.04096   -0.00324    0.00463    0.02226
AFIX  43
H7    2    0.407690    0.295915    0.406774    11.00000   -1.20000
AFIX   0
C8    1    0.467436    0.437810    0.448576    11.00000    0.03773    0.07075 =
         0.03914   -0.00398   -0.00482    0.00017
C9    1    0.443572    0.409335    0.461969    11.00000    0.06143    0.06908 =
         0.04052    0.00040   -0.00492    0.00090
AFIX  43
H9    2    0.374158    0.350356    0.465697    11.00000   -1.20000
AFIX   0
C10   1    0.545401    0.487446    0.468928    11.00000    0.07128    0.07826 =
         0.03894    0.00318    0.00196    0.00108
C11   1    0.627070    0.566487    0.460553    11.00000    0.04341    0.06685 =
         0.04813    0.00670    0.00468   -0.01526
C12   1    0.720296    0.643432    0.467874    11.00000    0.06904    0.07041 =
         0.04023   -0.00103   -0.00818   -0.01249
AFIX  43
H12   2    0.790661    0.703500    0.464475    11.00000   -1.20000
AFIX   0
C13   1    0.692686    0.617295    0.480712    11.00000    0.06710    0.06459 =
         0.04342   -0.00690   -0.00518    0.00184
PART -1
C14   1    0.759695    0.683248    0.492353    10.50000    0.04496    0.04877 =
         0.02715    0.00477    0.00779    0.00477
C15   1    0.788743    0.633413    0.502635    10.50000    0.08634    0.05241 =
         0.04017    0.00039   -0.01397    0.01550
AFIX  43
H15   2    0.757958    0.552759    0.502412    10.50000   -1.20000
AFIX   0
C16   1    0.859795    0.693855    0.513201    10.50000    0.07065    0.05035 =
         0.03416    0.00399   -0.00418    0.01127
AFIX  43
H16   2    0.885451    0.658187    0.519397    10.50000   -1.20000
AFIX   0
C17   1    0.891683    0.808268    0.514328    10.50000    0.07067    0.05064 =
         0.03334    0.00420   -0.00490    0.01170
C18   1    0.865943    0.862741    0.504210    10.50000    0.09721    0.04973 =
         0.04175   -0.00035   -0.02134    0.01606
AFIX  43
H18   2    0.890338    0.942019    0.504901    10.50000   -1.20000
AFIX   0
C19   1    0.804392    0.800628    0.493093    10.50000    0.09030    0.05109 =
         0.03863    0.00056   -0.01729    0.01417
AFIX  43
H19   2    0.792840    0.839476    0.485881    10.50000   -1.20000
AFIX   0
C20   1    0.958559    0.870820    0.526056    10.50000    0.05214    0.05175 =
         0.03071    0.00250    0.00224    0.01017
PART 0
PART -2
C21   1    0.782433    0.663620    0.492422    10.50000    0.08192    0.05668 =
         0.05415   -0.00063   -0.01398    0.01707
C22   1    0.774216    0.602704    0.503769    10.50000    0.05566    0.05390 =
         0.04695   -0.00436   -0.00045    0.02401
AFIX  43
H22   2    0.726452    0.521755    0.504068    10.50000   -1.20000
AFIX   0
C23   1    0.837373    0.662876    0.514640    10.50000    0.05804    0.05401 =
         0.05008   -0.00635   -0.00367    0.02823
AFIX  43
H23   2    0.828643    0.623701    0.522816    10.50000   -1.20000
AFIX   0
C24   1    0.913170    0.778890    0.513947    10.50000    0.03691    0.05106 =
         0.04737   -0.00892    0.00321    0.03386
C25   1    0.927256    0.834327    0.501942    10.50000    0.07649    0.05922 =
         0.05491   -0.00200   -0.01247    0.02031
AFIX  43
H25   2    0.987848    0.911124    0.500930    10.50000   -1.20000
AFIX   0
C26   1    0.854741    0.779880    0.491422    10.50000    0.05515    0.05563 =
         0.04767   -0.00344   -0.00083    0.02381
AFIX  43
H26   2    0.854631    0.821126    0.483743    10.50000   -1.20000
AFIX   0
C27   1    0.985768    0.846397    0.525728    10.50000    0.04727    0.04954 =
         0.04954   -0.00649   -0.00163    0.02941
PART 0
C28   1    0.900405    0.885788    0.400853    11.00000    0.04441    0.05309 =
         0.04604    0.00265    0.00048    0.00860
AFIX  43
H28   2    0.954237    0.911952    0.407960    11.00000   -1.20000
AFIX   0
C29   1    0.819774    0.875623    0.381741    11.00000    0.04442    0.13594 =
         0.06813    0.01341   -0.00398    0.02021
AFIX  43
H29   2    0.808217    0.894596    0.372973    11.00000   -1.20000
AFIX   0
C30   1    0.734080    0.790488    0.389894    11.00000    0.08352    0.09759 =
         0.04912    0.02501   -0.00980   -0.00881
AFIX  43
H30   2    0.656362    0.737748    0.387771    11.00000   -1.20000
AFIX   0
C31   1    0.735818    0.732619    0.413958    11.00000    0.06886    0.07920 =
         0.03802    0.01359    0.00483    0.02242
C32   1    0.622247    0.688935    0.415640    11.00000    0.04407    0.08126 =
         0.05492    0.00293    0.00637    0.02537
AFIX  43
H32   2    0.579126    0.701802    0.409068    11.00000   -1.20000
AFIX   0
C33   1    0.567878    0.625075    0.426959    11.00000    0.07598    0.06964 =
         0.04838   -0.01083   -0.00447    0.03176
AFIX  43
H33   2    0.487850    0.593561    0.428282    11.00000   -1.20000
AFIX   0
C34   1    0.634237    0.609374    0.436130    11.00000    0.07550    0.07527 =
         0.03524    0.00509   -0.00777    0.01192
C35   1    0.747596    0.656037    0.434329    11.00000    0.06700    0.10066 =
         0.04307    0.01332   -0.00366    0.01111
AFIX  43
H35   2    0.791828    0.644151    0.440840    11.00000   -1.20000
AFIX   0
C36   1    0.800616    0.720491    0.423267    11.00000    0.06226    0.11721 =
         0.05148    0.01836   -0.00751    0.02322
AFIX  43
H36   2    0.881316    0.755785    0.422203    11.00000   -1.20000
AFIX   0
C37   1    0.516148    0.463788    0.493376    11.00000    0.05982    0.06353 =
         0.04018    0.00716    0.00360   -0.00085
C38   1    0.459578    0.345777    0.494277    11.00000    0.09845    0.06938 =
         0.04123    0.00466    0.00688    0.01024
AFIX  43
H38   2    0.464049    0.301522    0.487172    11.00000   -1.20000
AFIX   0
C39   1    0.396655    0.292468    0.505512    11.00000    0.09143    0.06438 =
         0.04821   -0.00872    0.00656    0.01322
AFIX  43
H39   2    0.358023    0.211385    0.506340    11.00000   -1.20000
AFIX   0
C40   1    0.390950    0.360543    0.515681    11.00000    0.08136    0.05265 =
         0.04171    0.00329    0.00139    0.02354
C41   1    0.444748    0.477065    0.514760    11.00000    0.10252    0.06664 =
         0.04983    0.00384    0.00278    0.03550
AFIX  43
H41   2    0.438829    0.521282    0.521768    11.00000   -1.20000
AFIX   0
C42   1    0.506892    0.528751    0.503657    11.00000    0.08141    0.07340 =
         0.04366    0.00085    0.00323    0.02523
AFIX  43
H42   2    0.544436    0.609820    0.502866    11.00000   -1.20000
AFIX   0
C43   1    0.358796    0.343205    0.540685    11.00000    0.07094    0.06240 =
         0.04660    0.00063    0.00728    0.01747
AFIX  43
H43   2    0.421451    0.414583    0.543453    11.00000   -1.20000
AFIX   0
C44   1    0.280643    0.259053    0.548468    11.00000    0.07215    0.06161 =
         0.03945   -0.00595    0.00206    0.00425
AFIX  43
H44   2    0.276397    0.263931    0.557882    11.00000   -1.20000
AFIX   0
C45   1    0.238742    0.197775    0.528195    11.00000    0.05592    0.07558 =
         0.04355    0.00778    0.00391    0.00758
AFIX  43
H45   2    0.201103    0.150974    0.520682    11.00000   -1.20000
AFIX   0
HKLF 4

REM  cu_csh240_0m_a.res in P6(5)22
REM R1 =  0.0550 for    6647 Fo > 4sig(Fo)  and  0.0614 for all    7532 data
REM    515 parameters refined using    138 restraints

END

WGHT      0.0956      0.0000

REM Highest difference peak  0.576,  deepest hole -0.727,  1-sigma level  0.061
Q1    1   0.0055  0.0952  0.3802  11.00000  0.05    0.58
Q2    1   0.0955  0.0020  0.3806  11.00000  0.05    0.46
Q3    1   0.2077  0.1474  0.3802  11.00000  0.05    0.39
Q4    1   1.0735  0.9826  0.5339  11.00000  0.05    0.36
Q5    1   0.1039  0.0841  0.3949  11.00000  0.05    0.33
Q6    1   0.8389  1.0032  0.3813  11.00000  0.05    0.32
Q7    1   0.1638  0.1843  0.3812  11.00000  0.05    0.32
Q8    1   0.7377  0.7632  0.4516  11.00000  0.05    0.32
Q9    1   0.8902  0.8179  0.3811  11.00000  0.05    0.31
Q10   1   0.9328  0.8779  0.4772  11.00000  0.05    0.30
Q11   1   1.0681  0.9984  0.5173  11.00000  0.05    0.30
Q12   1   0.6694  0.8159  0.3826  11.00000  0.05    0.27
Q13   1   0.9034  0.8982  0.5243  11.00000  0.05    0.26
Q14   1   0.9952  0.8028  0.5442  11.00000  0.05    0.26
Q15   1   1.0794  1.0054  0.5252  11.00000  0.05    0.24
Q16   1   0.9025  0.8666  0.4900  11.00000  0.05    0.22
Q17   1   0.8724  0.8603  0.5294  11.00000  0.05    0.22
Q18   1   0.1514  0.0759  0.4028  11.00000  0.05    0.22
Q19   1   0.6334  0.6149  0.4832  11.00000  0.05    0.21
Q20   1   0.3934  0.2423  0.4249  11.00000  0.05    0.21
Q21   1   0.3114  0.4056  0.5444  11.00000  0.05    0.20
Q22   1   0.8899  0.8889  0.4158  11.00000  0.05    0.20
Q23   1  -0.0026  0.0821  0.4078  11.00000  0.05    0.20
Q24   1   0.1513  0.2086  0.4436  11.00000  0.05    0.19
Q25   1   0.2158  0.3138  0.5473  11.00000  0.05    0.19
Q26   1   0.3509  0.1962  0.4129  11.00000  0.05    0.19
Q27   1   1.0219  0.8552  0.5127  11.00000  0.05    0.19
Q28   1   0.6200  0.5793  0.4550  11.00000  0.05    0.18
Q29   1   0.7307  0.7144  0.4935  11.00000  0.05    0.18
Q30   1   0.3549  0.1446  0.5059  11.00000  0.05    0.18
Q31   1   0.2702  0.3672  0.4232  11.00000  0.05    0.18
Q32   1   0.4321  0.5197  0.4402  11.00000  0.05    0.18
Q33   1   0.1459  0.2213  0.5543  11.00000  0.05    0.18
Q34   1   0.7447  0.7227  0.4666  11.00000  0.05    0.18
Q35   1   1.0758  0.9769  0.4085  11.00000  0.05    0.17
Q36   1   0.1546  0.1938  0.3896  11.00000  0.05    0.17
Q37   1   0.2771  0.1699  0.5476  11.00000  0.05    0.17
Q38   1   0.7957  0.5958  0.4621  11.00000  0.05    0.17
Q39   1   0.8459  0.7509  0.5169  11.00000  0.05    0.17
Q40   1   0.2553  0.2787  0.3962  11.00000  0.05    0.17
;
_shelx_res_checksum              88856
_shelx_fab_file
;
    0    1    0   -560.16     55.16
   -1    2    0    164.44   -121.39
    0    2    0    -77.40     71.81
   -1    3    0     -9.84     32.90
    0    3    0    116.67    -31.22
   -1    4    0     -0.53      7.28
   -2    4    0     -6.36     -7.35
    0    4    0     18.08      0.99
   -1    5    0    -26.41      1.98
   -2    5    0     -9.72      2.23
    0    5    0     43.60    -13.97
   -1    6    0      3.17     -4.22
   -2    6    0    -16.09      1.76
   -3    6    0    -12.65      1.48
    0    6    0     -5.63      7.27
   -1    7    0     10.13     -1.27
   -2    7    0     -2.18      2.42
   -3    7    0     15.51      0.68
    0    7    0      2.79      9.08
   -1    8    0    -11.27     -0.11
   -2    8    0     -7.25     -2.19
   -3    8    0      2.83     -3.17
   -4    8    0      5.75      1.80
    0    8    0     -1.21     -2.35
   -1    9    0     19.39     -8.37
   -2    9    0    -12.36      0.93
   -3    9    0      8.74      3.38
   -4    9    0     -4.01     -0.57
    0    9    0     -2.85     -0.09
   -2   10    0      8.67     -0.93
   -3   10    0    -10.21      0.75
   -4   10    0     -2.45     -3.01
   -5   10    0      5.28      3.87
   -1   10    0     -8.22      6.00
   -1   11    0    -12.58     -1.54
   -2   11    0     -1.64      1.53
   -3   11    0     -2.11      1.99
   -4   11    0     -7.48      2.75
   -5   11    0      0.60     -4.31
    0   11    0     -1.44      0.50
   -1   12    0      3.25     -2.93
   -2   12    0      3.02     -0.42
   -3   12    0      3.73     -3.48
   -4   12    0      8.56     -0.45
   -5   12    0     -1.68     -1.48
   -6   12    0      7.20     12.03
    0   12    0      6.29      3.46
   -1   13    0      0.93     -0.32
   -2   13    0     -5.84      1.35
   -3   13    0     -4.78      0.59
   -4   13    0     10.20      0.11
   -5   13    0     -3.97      1.49
   -6   13    0      4.77     -6.25
   -3   14    0      1.93     -0.24
   -4   14    0      0.24     -0.23
   -5   14    0     -7.75     -0.21
   -6   14    0      2.58      1.05
   -7   14    0     -6.68      0.68
    0    1    1     62.14      3.07
   -1    2    1   -104.74     64.95
   -1    3    1     34.04     47.14
    0    2    1     66.12    -11.20
   -2    4    1    -11.64      9.84
   -2    5    1     23.71      6.67
   -1    4    1     -7.71    -27.79
    0    3    1    -41.52     10.93
   -3    6    1     -9.17      8.94
   -3    7    1     -1.03    -34.77
   -2    6    1    -14.72    -10.37
   -1    5    1     -8.07     24.11
    0    4    1     62.07     -1.56
   -4    8    1     15.22     -6.62
   -4    9    1     -0.10     -4.88
   -3    8    1     -2.59      8.64
   -2    7    1    -14.89     12.89
   -1    6    1    -15.15     -3.58
    0    5    1     -5.88     13.04
   -5   10    1     -6.77      0.75
   -5   11    1      2.68      8.39
   -4   10    1     -3.71     -6.66
   -3    9    1     -2.61      1.33
   -2    8    1      8.21     -1.48
   -1    7    1     34.61     15.75
    0    6    1    -22.41    -15.50
   -6   12    1      8.13     -6.96
   -6   13    1     -3.72      8.82
   -5   12    1     -2.20     -3.76
   -4   11    1     -4.63      2.68
   -3   10    1     -4.12      5.15
   -2    9    1     -5.23     -6.00
   -1    8    1      1.05    -16.79
    0    7    1    -12.95     31.19
   -7   14    1     -4.17      0.79
   -6   14    1      0.49      1.37
   -5   13    1     13.79     -7.82
   -4   12    1     -4.85      5.92
   -3   11    1     12.05     -7.89
   -2   10    1     -1.24     12.54
   -1    9    1     -4.26      6.06
    0    8    1     11.06     -9.20
   -5   14    1     -4.99      2.16
   -4   13    1      2.69     -2.26
   -3   12    1      6.20    -10.27
   -2   11    1      1.10      1.70
   -1   10    1     -1.22    -13.73
    0    9    1     -4.34     -1.74
   -4   14    1     -3.15      1.41
   -3   13    1     -6.86     -4.20
   -2   12    1    -11.73     10.62
   -1   11    1     -0.66      0.04
    0   10    1      5.76      4.82
   -3   14    1      4.45      2.14
   -2   13    1      3.44     -0.12
   -1   12    1      3.58      4.37
    0   11    1      0.41     -3.15
   -1   13    1    -14.39     10.05
    0   12    1     14.09      3.41
    0    1    2    165.31     13.40
   -1    2    2     14.05    -32.45
   -1    3    2    -17.84      8.77
    0    2    2    -26.42      5.13
   -2    4    2      7.90     -6.90
   -2    5    2    -11.59      9.32
   -1    4    2     -2.77      6.64
    0    3    2     21.67      3.68
   -3    6    2      4.39     -9.70
   -3    7    2      4.74      3.14
   -2    6    2    -14.94     -5.21
   -1    5    2      6.82     -0.79
    0    4    2     -2.46     -1.47
   -4    8    2      7.23    -12.46
   -4    9    2     13.11     10.19
   -3    8    2      0.03      9.49
   -2    7    2      8.53    -13.31
   -1    6    2     -4.16     -8.01
    0    5    2     11.28     -4.20
   -5   10    2     -2.24     -2.10
   -5   11    2      9.08      6.07
   -4   10    2      4.87     -4.99
   -3    9    2     -6.67     11.54
   -2    8    2     -3.92     -8.33
   -1    7    2     -7.52     15.00
    0    6    2     10.05     -5.90
   -6   12    2      5.18     -6.22
   -6   13    2     -3.74     -0.25
   -5   12    2      5.35      4.03
   -4   11    2    -14.82     -0.84
   -3   10    2      2.15     -4.56
   -2    9    2      0.17     11.12
   -1    8    2      5.68      0.31
    0    7    2      7.82      0.89
   -7   14    2     -0.44      1.02
   -6   14    2     -4.02      1.44
   -5   13    2     -2.83     -2.64
   -4   12    2      1.49     -2.23
   -3   11    2      8.43      3.02
   -2   10    2     -4.11     -1.03
   -1    9    2     -2.18     -6.30
    0    8    2     -7.64     -0.72
   -5   14    2     -0.37     -1.51
   -4   13    2      3.58      3.12
   -3   12    2     -2.24     -7.63
   -2   11    2     -3.46     -1.72
   -1   10    2      1.30     -8.57
    0    9    2     -3.44      0.29
   -4   14    2      5.26      1.11
   -3   13    2     -2.42     -0.21
   -2   12    2      6.06      6.12
   -1   11    2     -0.94     10.41
    0   10    2     14.37      3.39
   -3   14    2     -3.85     -0.46
   -2   13    2     -0.60     -1.36
   -1   12    2      0.07     -6.98
    0   11    2     -8.23     -7.03
   -1   13    2      1.32    -10.57
    0   12    2     -5.95      3.84
    0    1    3     72.66    -10.43
   -1    2    3      4.87    167.82
   -1    3    3     49.05    -30.58
    0    2    3   -127.61     10.19
   -2    4    3      7.48     17.98
   -2    5    3     25.91    -10.24
   -1    4    3     -8.70     10.25
    0    3    3      7.07      3.00
   -3    6    3     -0.74    -24.87
   -3    7    3      4.93      3.92
   -2    6    3     15.03      1.57
   -1    5    3      9.30     -1.57
    0    4    3     -8.19     -2.69
   -4    8    3     -1.06     -4.49
   -4    9    3     -6.76     -4.77
   -3    8    3     -9.15      4.12
   -2    7    3    -10.51     -4.24
   -1    6    3    -15.96     18.00
    0    5    3     -8.09     -1.28
   -5   10    3     -0.33     -0.55
   -5   11    3     15.75     -1.16
   -4   10    3    -15.99     -5.83
   -3    9    3     -1.08      3.07
   -2    8    3     15.97     -1.21
   -1    7    3      2.92     -0.97
    0    6    3     -1.00     -4.75
   -6   12    3     -1.11     15.61
   -6   13    3     16.82     -0.27
   -5   12    3    -30.71      4.76
   -4   11    3      8.77      2.37
   -3   10    3      1.12     -1.99
   -2    9    3      6.28      2.22
   -1    8    3      5.56     18.50
    0    7    3      2.67      0.78
   -7   14    3     -1.01      0.77
   -6   14    3     -1.94     -1.42
   -5   13    3      4.37     -7.30
   -4   12    3     16.86     -5.31
   -2   10    3     -5.62     -5.78
   -1    9    3     -4.72     -5.90
    0    8    3    -12.21     -4.26
   -3   11    3    -14.01      1.99
   -5   14    3     -4.47     -5.96
   -4   13    3      1.55      9.72
   -3   12    3      8.44    -14.23
   -2   11    3      9.37     14.60
   -1   10    3     13.78      0.77
    0    9    3     -3.74     -1.87
   -4   14    3      2.86      5.63
   -3   13    3    -16.06     -3.04
   -2   12    3     -6.35      9.47
   -1   11    3     -5.72      3.30
    0   10    3     -8.47      3.01
   -3   14    3      7.80     -1.82
   -2   13    3     -3.28    -10.61
   -1   12    3      5.26      8.71
    0   11    3      6.40    -11.41
   -1   13    3     -3.62     -6.86
    0   12    3     -0.02      2.49
    0    1    4    518.58     15.75
   -1    2    4    -18.87    -50.47
   -1    3    4     -8.74    -84.63
    0    2    4      0.57     40.53
   -2    4    4    -15.23    -36.37
   -2    5    4     -3.28      8.12
   -1    4    4      7.35     27.76
    0    3    4    -30.89     -5.54
   -3    6    4     -6.44    -14.66
   -3    7    4     -3.27     -1.44
   -2    6    4     13.12      6.62
   -1    5    4    -19.67      0.84
    0    4    4     16.74     -4.87
   -4    8    4     -6.19     -9.50
   -4    9    4     17.91     -8.38
   -3    8    4     11.11      4.25
   -2    7    4    -21.52     -5.96
   -1    6    4      7.83     24.11
    0    5    4     13.75      3.23
   -5   10    4      9.02     15.04
   -5   11    4     10.99     -0.44
   -4   10    4    -11.53     -4.15
   -3    9    4     -0.62      4.10
   -2    8    4     -9.55     -5.06
   -1    7    4      2.31      6.59
    0    6    4     -0.73     -1.49
   -6   12    4     -2.10     -0.96
   -6   13    4      2.97     -0.86
   -5   12    4     -0.96     -2.90
   -4   11    4      8.42     -4.26
   -3   10    4      1.45      0.08
   -2    9    4     -2.36     -5.25
   -1    8    4      6.91     -6.50
    0    7    4      0.29     -2.08
   -7   14    4     -1.55     -2.89
   -6   14    4      6.64     -0.91
   -5   13    4     -8.80     -1.97
   -4   12    4     -8.97     -8.45
   -3   11    4     -7.27     10.25
   -2   10    4     -4.59      5.98
   -1    9    4     -0.11     -1.74
    0    8    4      8.82      6.24
   -5   14    4     -7.22      5.39
   -4   13    4      8.86      4.54
   -3   12    4      5.43      0.30
   -2   11    4     -3.23      0.73
   -1   10    4      2.64     -7.96
    0    9    4    -10.28      1.93
   -4   14    4      5.02     -0.80
   -3   13    4     -3.48     -1.35
   -2   12    4      8.10      2.95
   -1   11    4      3.87      1.89
    0   10    4      8.06     -0.30
   -3   14    4     -2.50     -5.35
   -2   13    4      0.85     -1.77
   -1   12    4     -8.67     -6.57
    0   11    4      0.46      0.05
   -1   13    4     -6.69      0.35
    0   12    4      1.62     -1.77
    0    1    5   -147.71     -8.51
   -1    2    5     79.87     51.96
   -1    3    5     -1.83     33.64
    0    2    5     32.92      0.93
   -2    4    5      0.42      0.43
   -2    5    5     -1.97      3.90
   -1    4    5    -34.31     -9.29
    0    3    5     20.64     -6.20
   -3    6    5      7.18      8.48
   -3    7    5     -5.70     -4.16
   -2    6    5     18.19      1.65
   -1    5    5    -15.18     -2.56
    0    4    5     -6.71     -1.50
   -4    8    5      7.68      3.24
   -4    9    5      6.25     -7.37
   -3    8    5    -15.60    -26.61
   -2    7    5      4.66      2.04
   -1    6    5      2.53     20.32
    0    5    5     40.08     -4.73
   -5   10    5      6.83      3.00
   -5   11    5      5.16      7.06
   -4   10    5     -9.10      7.52
   -3    9    5      2.06      5.41
   -2    8    5     -5.36     17.29
   -1    7    5     23.54    -38.36
    0    6    5    -33.58     37.16
   -6   12    5     -1.94     -2.27
   -6   13    5      1.17    -10.16
   -5   12    5     -4.13     -4.46
   -4   11    5      2.28     -4.68
   -3   10    5      9.89      0.42
   -2    9    5     -3.66      6.15
   -1    8    5      0.30     -7.29
    0    7    5    -16.34     -9.49
   -7   14    5     -1.93      2.00
   -6   14    5      1.56      6.13
   -5   13    5     -2.39      8.65
   -4   12    5      4.14     -1.58
   -3   11    5     -4.25     -4.80
   -2   10    5    -10.14     -7.57
   -1    9    5      9.49      9.09
    0    8    5     -9.13      0.19
   -5   14    5      1.30     -3.96
   -4   13    5    -11.78      3.53
   -3   12    5     12.97      2.93
   -2   11    5     -2.79      5.62
   -1   10    5      2.06      2.81
    0    9    5      1.77      2.09
   -4   14    5      4.44     -3.28
   -3   13    5      5.39    -15.21
   -2   12    5     -6.67      9.91
   -1   11    5     -1.57     -8.20
    0   10    5      7.07     -0.88
   -3   14    5     -9.82      5.20
   -2   13    5      1.05      1.16
   -1   12    5      1.45      4.07
    0   11    5     -5.69      1.38
   -1   13    5     -2.63      1.83
    0   12    5      7.06     -3.24
    0    0    6     47.18      0.29
    0    1    6     73.53    -10.86
   -1    2    6    -72.02     -2.15
   -1    3    6     17.75    -61.34
    0    2    6    -89.73      1.26
   -2    4    6     13.18      2.19
   -2    5    6    -21.54      5.50
   -1    4    6     -9.52      2.79
    0    3    6     58.95      4.82
   -3    6    6     -1.39     -1.73
   -3    7    6      4.54     14.01
   -2    6    6     -0.88     -1.02
   -1    5    6     19.10    -19.62
    0    4    6      3.23      0.41
   -4    8    6      5.21     -1.01
   -4    9    6      4.26     -7.05
   -3    8    6     -0.13     30.36
   -2    7    6     -6.86     -4.25
   -1    6    6     -7.39     24.28
    0    5    6      5.33     -3.63
   -5   10    6     10.98      0.65
   -5   11    6      2.32      9.32
   -4   10    6    -13.56      4.37
   -3    9    6      4.10    -18.15
   -2    8    6     -3.74    -14.59
   -1    7    6     10.72     -4.96
    0    6    6     -6.59     -2.10
   -6   12    6      4.90     -0.80
   -6   13    6     -6.09     -8.33
   -5   12    6      0.33     -7.46
   -4   11    6     -4.99     -5.92
   -3   10    6      3.32      4.38
   -2    9    6      3.69      6.78
   -1    8    6    -17.59      0.25
    0    7    6      6.09     -0.60
   -7   14    6      8.02      0.26
   -6   14    6     -1.11     -1.68
   -5   13    6      2.46      1.31
   -4   12    6     -0.55      0.88
   -3   11    6     -1.42      2.80
   -2   10    6     -2.96      3.21
   -1    9    6      4.93     -1.15
    0    8    6     12.38     -6.03
   -5   14    6      1.98      3.90
   -4   13    6      5.32      3.54
   -3   12    6      2.03     -1.66
   -1   10    6      1.08    -12.00
    0    9    6     12.00      0.28
   -2   11    6      2.22      3.00
   -4   14    6     -2.21      0.40
   -3   13    6     -3.87      1.99
   -2   12    6     -5.36      1.63
   -1   11    6      1.60      4.35
    0   10    6    -23.10      0.71
   -3   14    6      3.53     -2.90
   -2   13    6     -3.06      5.33
   -1   12    6     -0.98     -6.47
    0   11    6     13.17     -1.96
   -1   13    6      6.66     -7.46
    0   12    6      0.91     -1.85
    0    1    7    -93.72      2.91
   -1    2    7     -7.79      5.24
   -1    3    7     32.63     53.73
    0    2    7     34.41      2.20
   -2    4    7     36.04    -19.12
   -2    5    7     12.90     32.56
   -1    4    7      4.58     11.77
    0    3    7    -20.59      1.83
   -3    6    7    -11.56      8.23
   -3    7    7      8.78      3.09
   -2    6    7      7.71      8.90
   -1    5    7    -39.90      0.89
    0    4    7     11.87     -0.35
   -4    8    7     15.51     -3.63
   -4    9    7    -13.26     -6.48
   -3    8    7     -2.07     -7.57
   -2    7    7     -1.27    -13.59
   -1    6    7     20.02    -11.79
    0    5    7     17.31     -1.67
   -5   10    7      9.05     -3.16
   -5   11    7      2.54     -5.51
   -4   10    7    -13.53     -5.82
   -3    9    7    -10.52     -2.43
   -2    8    7      2.66     15.82
   -1    7    7     12.12     12.42
    0    6    7    -38.58      6.28
   -6   12    7      2.51      6.60
   -6   13    7     -5.16      0.86
   -5   12    7      6.64      2.81
   -4   11    7      6.46      5.26
   -3   10    7      0.60      0.54
   -2    9    7     10.28     -5.49
   -1    8    7     -4.49      5.38
    0    7    7    -14.96     -0.52
   -7   14    7      1.16     -3.03
   -6   14    7      3.11      7.91
   -5   13    7    -14.35     -9.22
   -4   12    7      4.99     -6.04
   -3   11    7      5.75     -3.02
   -2   10    7     -2.61      7.18
   -1    9    7      3.22     -3.25
    0    8    7      3.41     -2.40
   -5   14    7      3.43      2.02
   -4   13    7     10.02      7.17
   -3   12    7    -11.61     -2.65
   -1   10    7     -0.53      3.38
    0    9    7      2.83      0.10
   -2   11    7     -3.07      2.81
   -4   14    7     -4.18     -2.32
   -3   13    7      1.33     -4.94
   -2   12    7     -0.58     -4.39
   -1   11    7      3.28     -5.26
    0   10    7     -8.03     -4.10
   -3   14    7     -3.45     -1.63
   -2   13    7     -3.03     12.67
   -1   12    7      2.47      6.51
    0   11    7      2.21      2.76
   -1   13    7      2.47      7.34
    0   12    7      6.53     -2.40
    0    1    8     96.43     11.27
   -1    2    8     -5.10     -6.81
   -1    3    8     37.49     41.21
    0    2    8      1.54      2.72
   -2    4    8      5.29     -6.75
   -2    5    8     10.20     -2.22
   -1    4    8    -26.44     13.92
    0    3    8     -2.67      4.03
   -3    6    8      6.85    -12.79
   -3    7    8      0.40      3.84
   -2    6    8    -21.10     -7.06
   -1    5    8      1.33      8.99
    0    4    8     21.98     -2.13
   -4    8    8      6.15    -15.25
   -4    9    8      7.12      2.78
   -3    8    8    -19.57     -0.32
   -2    7    8      3.54    -12.66
   -1    6    8      5.51      1.55
    0    5    8    -12.15     -2.84
   -5   10    8     -9.34     12.11
   -5   11    8     -0.14     -2.70
   -4   10    8      3.56     -2.47
   -3    9    8      4.16      0.26
   -2    8    8     -0.47      1.94
   -1    7    8     10.60      8.61
    0    6    8      0.81      0.34
   -6   12    8     -1.15      5.14
   -6   13    8      3.16      2.87
   -5   12    8     -4.19     -1.48
   -4   11    8     -0.31     -2.33
   -3   10    8      1.80      6.44
   -2    9    8    -11.83      3.04
   -1    8    8     -0.97      7.44
    0    7    8      6.46      3.55
   -7   14    8      0.62     -1.77
   -6   14    8     -1.70      1.89
   -5   13    8      4.98     -0.82
   -4   12    8      8.88     -2.54
   -3   11    8      9.64     -7.45
   -2   10    8     -0.42     -1.64
   -1    9    8     -0.13     -7.12
    0    8    8     -6.50     -1.79
   -5   14    8      0.05      0.83
   -4   13    8    -10.56     -2.15
   -3   12    8     -5.45      4.99
   -2   11    8      2.67      3.82
   -1   10    8      5.87     -7.53
    0    9    8      1.24      0.05
   -4   14    8      3.45      9.43
   -3   13    8     -3.82     -3.39
   -2   12    8     -3.88      2.53
   -1   11    8    -11.72      5.45
    0   10    8     -1.52     -0.51
   -3   14    8     -1.17      0.31
   -2   13    8      4.18      1.79
   -1   12    8     11.19     -6.55
    0   11    8     -0.50      4.55
   -1   13    8      3.71     -5.53
    0   12    8     -4.25     -0.47
    0    1    9      2.13     -1.76
   -1    2    9      1.57   -136.97
   -1    3    9     45.00     38.66
    0    2    9   -112.24     -0.57
   -2    4    9     -5.77     -2.84
   -2    5    9      6.02    -13.47
   -1    4    9      7.25     35.21
    0    3    9    -10.72     -4.54
   -3    6    9      0.70    -20.83
   -3    7    9     12.40     -6.77
   -2    6    9      7.50      4.98
   -1    5    9      3.53     -6.91
    0    4    9      7.68      1.46
   -4    8    9     -2.29      4.02
   -4    9    9    -22.56     -0.73
   -3    8    9     -2.18      9.51
   -2    7    9      1.20     15.59
   -1    6    9     -7.60    -18.33
    0    5    9    -10.47      5.83
   -5   10    9      2.58     -1.23
   -5   11    9    -11.35     -1.17
   -4   10    9     -2.60      1.34
   -3    9    9     -8.52     -5.67
   -2    8    9      6.22      9.68
   -1    7    9      3.92      1.67
    0    6    9      8.19      2.86
   -6   12    9      2.45     -5.71
   -6   13    9     15.23     -0.14
   -5   12    9     -8.77      0.27
   -4   11    9      2.28      4.17
   -3   10    9      0.17     -0.74
   -2    9    9      4.86     -4.46
   -1    8    9     27.37    -14.05
    0    7    9    -40.74      8.48
   -7   14    9      1.30      3.02
   -6   14    9    -12.76      2.53
   -5   13    9     -2.72     12.51
   -4   12    9      8.07     -1.52
   -3   11    9     10.64    -13.08
   -2   10    9     -5.04      8.70
   -1    9    9      8.51     -4.19
    0    8    9    -36.94     -2.00
   -5   14    9      6.56     -3.73
   -4   13    9     -9.03    -10.43
   -3   12    9     13.74      0.44
   -2   11    9    -15.98      9.50
   -1   10    9     -8.23     -6.91
    0    9    9     14.08     -1.08
   -4   14    9      1.00      1.58
   -3   13    9      2.51      7.53
   -2   12    9     -9.85     -9.45
   -1   11    9      1.90     15.02
    0   10    9     19.58     -1.79
   -3   14    9     -4.47     -5.85
   -2   13    9      0.13      3.81
   -1   12    9     -5.37     -6.30
    0   11    9      3.67     -1.52
   -1   13    9      4.18      2.15
    0   12    9      1.02      1.32
    0    1   10   -125.37      5.61
   -1    2   10     21.81     36.87
   -1    3   10     -8.83    -36.18
    0    2   10    197.11    -10.80
   -2    4   10      0.74     -2.12
   -2    5   10     -4.17      1.04
   -1    4   10     10.18    -24.11
    0    3   10    -59.39     -1.72
   -3    6   10      1.85      2.16
   -3    7   10     -7.98      0.29
   -2    6   10     -2.00     11.74
   -1    5   10    -13.28     21.71
    0    4   10     11.48     -2.01
   -4    8   10     -4.78     -1.25
   -4    9   10    -28.01     10.78
   -3    8   10     -1.34     -2.56
   -2    7   10     -5.93     -5.28
   -1    6   10      9.97    -11.15
    0    5   10    -13.79      4.18
   -5   10   10      6.11     11.80
   -5   11   10      4.92     -3.27
   -4   10   10     13.67     -4.40
   -3    9   10      4.67      2.98
   -2    8   10      6.76      6.83
   -1    7   10     -1.40      3.03
    0    6   10     16.08      0.95
   -6   12   10     -5.22     -6.76
   -6   13   10      8.07     -2.65
   -5   12   10      8.79     -9.24
   -4   11   10      1.09      5.04
   -3   10   10     -6.19     -0.24
   -2    9   10     -6.30     -7.66
   -1    8   10     -1.86      6.41
    0    7   10      5.42     -5.53
   -7   14   10     -1.31      1.00
   -6   14   10     -0.28     -1.76
   -5   13   10      1.01      5.02
   -4   12   10     -8.11      0.91
   -3   11   10      4.69      7.67
   -2   10   10     -6.76     -4.57
   -1    9   10     -7.03     -9.29
    0    8   10     12.67      2.16
   -5   14   10     -3.72      0.41
   -4   13   10     -0.71     -3.28
   -3   12   10     -5.78     -2.82
   -2   11   10      8.13      8.46
   -1   10   10      5.64     12.62
    0    9   10      8.03     -3.93
   -4   14   10     -2.95     -1.56
   -3   13   10      8.46     -6.10
   -2   12   10     -8.85      5.01
   -1   11   10      0.36    -19.76
    0   10   10     -4.67     -1.47
   -3   14   10      1.25      4.65
   -2   13   10      0.66      1.86
   -1   12   10      5.48     -0.95
    0   11   10     -9.30     -2.61
   -1   13   10     -0.28      0.47
    0   12   10     -0.49      0.20
    0    1   11     13.32      5.09
   -1    2   11     -2.21     -6.83
   -1    3   11      3.71     33.67
    0    2   11     30.19      1.07
   -2    4   11    -27.78    -15.37
   -2    5   11     17.02      3.42
   -1    4   11    -30.40     21.06
    0    3   11    -25.98      4.56
   -3    6   11    -11.53     -7.15
   -3    7   11    -12.56     23.43
   -2    6   11     -2.81     19.53
   -1    5   11     15.94     -8.76
    0    4   11      7.70     -1.63
   -4    8   11    -41.67    -27.57
   -4    9   11      7.74     18.32
   -3    8   11     30.89    -11.77
   -2    7   11    -17.01      5.68
   -1    6   11     10.93     -2.19
    0    5   11     -9.70      5.53
   -5   10   11      6.50      4.56
   -5   11   11      9.66     -9.00
   -4   10   11     -2.47     15.18
   -3    9   11    -12.48    -22.05
   -2    8   11     12.80     -3.73
   -1    7   11      6.40    -11.11
    0    6   11     -6.05     -4.89
   -6   12   11     -6.55     -5.50
   -6   13   11     -2.54     15.24
   -5   12   11    -11.62      4.21
   -4   11   11     -7.34    -13.03
   -3   10   11     -9.78      2.88
   -2    9   11      7.73     13.81
   -1    8   11      2.09      4.78
    0    7   11    -21.68      3.61
   -7   14   11     -0.65     -4.66
   -6   14   11      3.46     -3.98
   -5   13   11      4.82     -0.18
   -4   12   11     13.23      6.11
   -3   11   11      1.59     -7.67
   -2   10   11     -0.94     -9.76
   -1    9   11     -5.01      5.99
    0    8   11      8.22     -6.01
   -5   14   11      0.92      3.41
   -4   13   11     -4.08     -4.33
   -3   12   11      2.58      0.54
   -2   11   11     -3.01      9.82
   -1   10   11      2.55     10.84
    0    9   11     -1.23      1.52
   -4   14   11      1.60     -0.85
   -3   13   11      4.85      3.67
   -2   12   11     -3.04     -4.50
   -1   11   11     -2.93      1.45
    0   10   11      9.83     -1.19
   -3   14   11     -1.88     -4.03
   -2   13   11     -5.20     -3.62
   -1   12   11     -2.83     -4.73
    0   11   11     -5.18     -1.13
   -1   13   11      4.46     -0.32
    0   12   11      8.78      2.34
    0    0   12   -401.90      0.04
    0    1   12    113.27     -9.68
   -1    2   12    -41.33     16.31
   -1    3   12     -8.45    -20.88
    0    2   12      7.78     -9.03
   -2    4   12     -4.50      7.38
   -2    5   12    -11.63      1.33
   -1    4   12      5.42     -5.96
    0    3   12    -16.73     13.38
   -3    6   12     16.15     -1.38
   -3    7   12     -6.80      2.29
   -2    6   12     -8.04    -16.00
   -1    5   12     12.03      2.35
    0    4   12     25.84     -5.32
   -4    8   12      8.94      0.87
   -4    9   12      0.06     -8.15
   -3    8   12     -3.73      2.97
   -2    7   12      5.83     -0.85
   -1    6   12      1.72      9.46
    0    5   12      0.03     10.21
   -5   10   12      2.34      2.00
   -5   11   12      1.70     -0.90
   -4   10   12      5.45      4.74
   -3    9   12     -2.06    -12.16
   -2    8   12      0.06      6.80
   -1    7   12    -10.02     14.45
    0    6   12     -9.44     -6.61
   -6   12   12     -8.41     -0.19
   -6   13   12      4.51      7.90
   -5   12   12     -4.85    -20.74
   -4   11   12     -0.55      6.83
   -3   10   12      4.73      1.02
   -2    9   12     -1.17     -0.63
   -1    8   12      1.65    -14.41
    0    7   12     -4.42     -2.95
   -7   14   12     -3.81      0.61
   -6   14   12      1.84     -1.67
   -5   13   12     -5.15      5.87
   -4   12   12      3.55     12.18
   -3   11   12     -5.49     -7.01
   -2   10   12    -11.40      3.25
   -1    9   12     17.08     12.63
    0    8   12      5.23      1.53
   -5   14   12     14.12     -2.62
   -4   13   12     -4.36     -2.27
   -3   12   12     -3.92     -1.08
   -2   11   12      8.09      5.29
   -1   10   12     -1.17     -4.54
    0    9   12    -10.74      2.35
   -4   14   12     -0.04      1.92
   -3   13   12      0.03      7.97
   -2   12   12      0.78    -10.24
   -1   11   12      2.33     -6.75
    0   10   12     -5.46      0.87
   -3   14   12     -2.59     -3.11
   -2   13   12     -2.41     -2.92
   -1   12   12      1.24      3.45
    0   11   12      2.70     -2.48
   -1   13   12      2.07      3.70
    0   12   12     -2.28     -0.18
    0    1   13     -4.47      0.07
   -1    2   13     67.21    -29.82
   -1    3   13     28.96     10.79
    0    2   13   -147.04     -7.07
   -2    4   13     30.25    -17.50
   -2    5   13    -19.33     11.09
   -1    4   13     20.09     19.56
    0    3   13     12.56     -2.93
   -3    6   13      3.98     -6.15
   -3    7   13      7.83      2.22
   -2    6   13      5.98     15.66
   -1    5   13      2.82      4.06
    0    4   13    -18.95     -1.99
   -4    8   13    -37.59     28.64
   -4    9   13     -0.14     -5.39
   -3    8   13      9.46    -20.47
   -2    7   13      7.62      0.69
   -1    6   13      2.62     -5.78
    0    5   13    -18.61      4.46
   -5   10   13     -0.63      1.40
   -5   11   13      1.49     -9.66
   -4   10   13     -7.82     -8.95
   -3    9   13     -3.12     14.54
   -2    8   13      2.28    -12.92
   -1    7   13      2.14     -8.50
    0    6   13     -9.80      1.01
   -6   12   13     -0.23      0.85
   -6   13   13      2.81     -3.04
   -5   12   13     -5.76      0.45
   -4   11   13      2.90      3.85
   -3   10   13      4.38     -4.78
   -2    9   13     -0.32      6.93
   -1    8   13     11.80     12.89
    0    7   13    -14.78     -0.71
   -7   14   13      7.45      2.89
   -6   14   13     -1.98     -1.91
   -5   13   13     -6.93      4.25
   -4   12   13      2.79      2.07
   -3   11   13      1.93     -4.14
   -2   10   13     -1.33     14.07
   -1    9   13     -0.19    -15.43
    0    8   13     -0.18      1.83
   -5   14   13      8.50      3.33
   -4   13   13     -5.94     -0.70
   -3   12   13      4.78     -4.95
   -2   11   13     -2.08      1.54
   -1   10   13     -0.98      0.90
    0    9   13     -4.40     -5.54
   -4   14   13     -4.81      1.51
   -3   13   13      7.57      0.66
   -2   12   13     -7.84     -3.16
   -1   11   13     -7.71      4.69
    0   10   13     -2.79      4.45
   -3   14   13     -1.83     -1.28
   -2   13   13     -6.47     -8.76
   -1   12   13     14.73     10.83
    0   11   13     23.40     -4.12
   -1   13   13      0.89     -1.79
    0   12   13    -21.20      1.66
    0    1   14    -19.84     -0.43
   -1    2   14     12.28    -30.43
   -1    3   14     -2.73     24.54
    0    2   14     64.81      1.88
   -2    4   14    -19.62     28.79
   -2    5   14      5.92      7.99
   -1    4   14      1.61     -1.98
    0    3   14      2.54      2.43
   -3    6   14      1.13     -3.20
   -3    7   14     -2.15     -7.16
   -2    6   14     -7.43     -5.42
   -1    5   14      5.89    -12.30
    0    4   14     -4.28      0.21
   -4    8   14     -4.69      7.45
   -4    9   14     -4.01      1.29
   -3    8   14     -4.49    -18.11
   -2    7   14     -8.47      9.86
   -1    6   14      1.62     -1.62
    0    5   14      3.54      0.56
   -5   10   14      4.50    -15.51
   -5   11   14      9.39     -0.60
   -4   10   14      4.61     12.80
   -3    9   14     -9.44      7.48
   -2    8   14      1.55     -4.44
   -1    7   14      0.56      0.98
    0    6   14      2.82     -0.24
   -6   12   14    -12.32      5.03
   -6   13   14      7.02      5.96
   -5   12   14      7.09      8.13
   -4   11   14      2.43     -5.65
   -3   10   14      5.17     -5.34
   -2    9   14     -5.06     -2.81
   -1    8   14     -1.17      8.53
    0    7   14      5.31     -2.37
   -7   14   14     -3.23      3.26
   -6   14   14      1.21     -2.12
   -5   13   14     -7.36     -5.32
   -4   12   14     -7.98     -7.01
   -3   11   14      0.54      0.48
   -2   10   14      0.18     -2.94
   -1    9   14     -1.19      6.05
    0    8   14     21.96     -2.50
   -5   14   14      5.90      1.03
   -4   13   14     -1.79     -1.80
   -3   12   14      2.75     11.87
   -2   11   14     -2.63     -2.37
   -1   10   14    -11.51     -0.94
    0    9   14      1.16      1.70
   -4   14   14     -1.11      4.15
   -3   13   14      1.33     -4.63
   -2   12   14     -0.77     11.03
   -1   11   14      2.76     -2.79
    0   10   14      9.83     -4.53
   -3   14   14     -1.91      4.30
   -2   13   14     -3.77     -6.53
   -1   12   14      6.59     -4.21
    0   11   14     -4.98      2.96
   -1   13   14     -1.61      3.32
    0   12   14      2.60     -2.18
    0    1   15    -20.15      4.96
   -1    2   15      1.38    -92.20
   -1    3   15     -3.71     52.88
    0    2   15      1.18     -4.21
   -2    4   15     -4.04    -34.84
   -2    5   15     16.45     -4.02
   -1    4   15     -8.54     31.81
    0    3   15     -6.39     -1.41
   -3    6   15     -0.60    -12.41
   -3    7   15     16.08     -3.59
   -2    6   15    -25.97     -3.42
   -1    5   15     -2.38    -10.11
    0    4   15     28.87      8.98
   -4    8   15      0.29    -11.56
   -4    9   15    -16.08     10.17
   -3    8   15    -16.45     -0.53
   -2    7   15     19.91     15.97
   -1    6   15     16.13     -1.96
    0    5   15    -14.06    -12.05
   -5   10   15     -0.30     -6.20
   -5   11   15     -5.12     -2.28
   -4   10   15      5.56      8.96
   -3    9   15      1.11     -8.73
   -2    8   15     -1.88      3.15
   -1    7   15     -3.81     10.87
    0    6   15     -9.05      1.01
   -6   12   15     -0.48      3.95
   -6   13   15     -5.88     -1.52
   -5   12   15      9.41      0.58
   -4   11   15     -0.77      1.03
   -3   10   15      0.17    -10.37
   -2    9   15      2.37     -4.45
   -1    8   15      2.51     -7.18
    0    7   15     -6.43     -0.14
   -7   14   15     -4.34    -15.06
   -6   14   15     -1.23      9.57
   -5   13   15     -5.35      3.52
   -4   12   15     -4.76     -0.64
   -3   11   15     14.02      0.76
   -2   10   15      6.21      6.51
   -1    9   15     -0.98      1.15
    0    8   15     -3.52     -0.42
   -5   14   15     -5.21     -3.61
   -4   13   15      5.98     -0.45
   -3   12   15     -5.21     -1.91
   -2   11   15    -12.00     -4.08
   -1   10   15     -7.78      4.59
    0    9   15     -1.29     -2.35
   -4   14   15     -0.05     -5.03
   -3   13   15      1.06     -1.90
   -2   12   15     -7.58      8.98
   -1   11   15      3.96      2.81
    0   10   15      9.72     -2.08
   -3   14   15      5.89      5.73
   -2   13   15      7.61     -4.15
   -1   12   15     -0.90     -5.92
    0   11   15     12.07      0.97
   -1   13   15     -4.09      6.94
    0   12   15     -0.61     -3.19
    0    1   16     -0.60      4.61
   -1    2   16    -11.39    -18.73
   -1    3   16     63.41      3.72
    0    2   16    -57.74      4.60
   -2    4   16     -8.98     -9.23
   -2    5   16     -9.55     12.40
   -1    4   16    -25.38    -25.94
    0    3   16     26.24     -1.29
   -3    6   16      5.59      6.76
   -3    7   16      3.99      5.97
   -2    6   16     -5.06     -4.37
   -1    5   16      5.39      2.60
    0    4   16      0.56      1.65
   -4    8   16      0.70      0.79
   -4    9   16     -8.60      8.75
   -3    8   16      6.94     -4.75
   -2    7   16     -1.54     -5.00
   -1    6   16    -14.20     10.94
    0    5   16      7.16     -0.20
   -5   10   16      2.04     -2.47
   -5   11   16     -4.88    -14.11
   -4   10   16      1.21      5.37
   -3    9   16     -9.95     -2.28
   -2    8   16     -0.69     -1.91
   -1    7   16      3.36     -0.71
    0    6   16      9.18      2.13
   -6   12   16      7.25      9.85
   -6   13   16      7.88     -1.01
   -5   12   16     -0.27      7.77
   -4   11   16     10.87      6.22
   -3   10   16     -6.62     -9.33
   -2    9   16     -0.64     -8.39
   -1    8   16      8.17     11.04
    0    7   16     18.74     -1.49
   -7   14   16     -1.43     -5.09
   -6   14   16     -5.10      0.25
   -5   13   16      4.94     -7.45
   -4   12   16      0.46     -0.54
   -3   11   16     -3.02      3.28
   -2   10   16      9.30      4.75
   -1    9   16      1.75     -4.81
    0    8   16    -28.72     -0.82
   -5   14   16      2.36     -2.87
   -4   13   16     -6.39      2.31
   -3   12   16     -0.26     -2.10
   -2   11   16     -4.73      3.28
   -1   10   16      1.63      5.47
    0    9   16     -5.11      0.45
   -4   14   16     -2.69     -2.73
   -3   13   16      0.41      1.46
   -2   12   16     -3.55      2.42
   -1   11   16      2.70     -7.35
    0   10   16      5.47     -0.05
   -3   14   16      0.16      2.09
   -2   13   16      7.59      0.18
   -1   12   16     -3.36     -3.87
    0   11   16     -2.02      0.81
   -1   13   16      5.25      5.68
    0   12   16     -1.04      0.66
    0    1   17     59.37    -12.30
   -1    2   17      2.36     19.78
   -1    3   17     26.21    -19.76
    0    2   17    -44.81     -8.43
   -2    4   17    -20.52    -14.39
   -2    5   17      6.57      7.56
   -1    4   17     12.97     15.85
    0    3   17    -32.96      1.22
   -3    6   17    -27.15    -17.47
   -3    7   17     -0.76    -12.88
   -2    6   17      2.13     10.98
   -1    5   17      6.89     19.86
    0    4   17    -40.88      1.37
   -4    8   17    -10.89     -6.25
   -4    9   17     -6.88      7.44
   -3    8   17      1.12     15.02
   -2    7   17      4.43      4.00
   -1    6   17     11.02    -12.74
    0    5   17      5.03      1.86
   -5   10   17      3.95      6.65
   -5   11   17      2.92     -5.73
   -4   10   17     -2.34      6.96
   -3    9   17      6.57     -9.15
   -2    8   17      5.50    -10.07
   -1    7   17     11.02     11.97
    0    6   17    -14.41     -1.03
   -6   12   17     -6.60     -4.62
   -6   13   17      2.74     12.28
   -5   12   17     -4.27      7.37
   -4   11   17     -8.29      0.33
   -3   10   17     10.32     -6.03
   -2    9   17      1.62     -1.17
   -1    8   17     -9.87      2.08
    0    7   17    -13.24     -2.55
   -7   14   17      2.19     -2.54
   -6   14   17      0.93     -2.78
   -5   13   17      2.98     -2.83
   -4   12   17     -3.23     -6.28
   -3   11   17     -9.26      3.24
   -2   10   17      4.04      0.43
   -1    9   17      1.29     14.45
    0    8   17      3.69      0.10
   -5   14   17     -3.36     -3.40
   -4   13   17     11.86     10.17
   -3   12   17     -2.34    -10.18
   -2   11   17      5.14     -4.85
   -1   10   17     -5.06      6.79
    0    9   17      0.87      2.38
   -4   14   17     -2.09     -2.92
   -3   13   17      3.59      5.81
   -2   12   17     -6.10     -6.53
   -1   11   17      0.92      1.77
    0   10   17      6.51    -14.48
   -3   14   17      3.34     -3.54
   -2   13   17     -2.72      3.82
   -1   12   17     -1.47      5.52
    0   11   17     -4.90      4.75
   -1   13   17      4.38      6.40
    0   12   17      4.24     -0.42
    0    0   18    -68.81     -5.54
    0    1   18     38.91     -0.10
   -1    2   18    -81.78     -0.30
   -1    3   18    -15.31     34.83
    0    2   18     89.61      2.60
   -2    4   18    -46.17      0.60
   -2    5   18      5.65    -10.04
   -1    4   18     33.10    -16.41
    0    3   18    -35.22      0.37
   -3    6   18     -7.38     -1.41
   -3    7   18      4.38    -26.78
   -2    6   18     -3.82     17.70
   -1    5   18    -15.80      6.13
    0    4   18     25.89      4.31
   -4    8   18     -0.62      0.95
   -4    9   18      9.28     14.78
   -3    8   18    -11.25    -11.01
   -2    7   18     -1.41      1.64
   -1    6   18      8.67    -10.33
    0    5   18      5.51     -6.08
   -5   10   18      4.85     -2.63
   -5   11   18     -8.86      8.95
   -4   10   18      5.27     -4.79
   -3    9   18      1.83     -3.96
   -2    8   18     -5.86     -1.69
   -1    7   18     -2.27     16.51
    0    6   18      6.51      4.92
   -6   12   18      1.05     -4.80
   -6   13   18     -8.14      4.27
   -5   12   18      1.51      0.89
   -4   11   18      5.09     -3.42
   -3   10   18     -8.74      4.88
   -2    9   18     -0.61      0.27
   -1    8   18      7.64      1.11
    0    7   18     -1.61      0.05
   -7   14   18      0.19     -1.21
   -6   14   18      2.60      5.12
   -5   13   18     20.78     -2.52
   -4   12   18     -5.88     -3.80
   -3   11   18      6.20      2.39
   -2   10   18     -6.09      3.29
   -1    9   18    -10.15      2.00
    0    8   18      4.47     -3.38
   -5   14   18     -4.88     -1.21
   -4   13   18     -5.65      3.44
   -3   12   18      1.14      4.30
   -2   11   18     -3.72    -10.84
   -1   10   18      3.78      8.51
    0    9   18     10.92      0.21
   -4   14   18      0.84      2.20
   -3   13   18     -7.01     -1.39
   -2   12   18      4.97     -5.61
   -1   11   18     -3.49     -3.02
    0   10   18      2.40      3.10
   -3   14   18      4.48     -1.49
   -2   13   18      0.04      2.37
   -1   12   18      1.30      1.09
    0   11   18      4.10     -3.18
   -1   13   18     -6.57      5.35
    0   12   18     -1.76     -1.62
    0    1   19     40.75     -5.98
   -1    2   19    -15.77     19.07
   -1    3   19     10.90    -32.00
    0    2   19    -50.18     -0.04
   -2    4   19    -13.31      7.53
   -2    5   19     -0.45     -7.95
   -1    4   19     12.15     14.34
    0    3   19     -1.78      0.95
   -3    6   19     -6.99      2.97
   -3    7   19     -1.33     -2.90
   -2    6   19     10.74     -4.43
   -1    5   19      6.03     17.47
    0    4   19      8.92     -7.71
   -4    8   19     -7.55      5.58
   -4    9   19     -0.46      7.22
   -3    8   19      2.97      2.86
   -2    7   19     -4.16     -6.47
   -1    6   19    -26.91     14.41
    0    5   19    -13.58      1.87
   -5   10   19     14.86     -6.00
   -5   11   19     -7.48      9.10
   -4   10   19      1.39      2.84
   -3    9   19      1.06    -11.47
   -2    8   19      0.89     -0.41
   -1    7   19     10.68    -14.91
    0    6   19     14.11     -5.35
   -6   12   19     10.47     -6.95
   -6   13   19      0.93      3.40
   -5   12   19      1.81      0.13
   -4   11   19     -6.63     -4.35
   -3   10   19     -4.52     -1.83
   -2    9   19      6.69      5.92
   -1    8   19      0.64      6.89
    0    7   19      5.63     -0.19
   -7   14   19      6.23     -1.21
   -6   14   19      1.70      5.03
   -5   13   19     -8.73     -0.93
   -4   12   19      5.23      4.01
   -3   11   19      0.99      1.44
   -2   10   19      1.94      3.24
   -1    9   19     -1.22      6.69
    0    8   19     -6.05     -3.25
   -5   14   19     -1.54     -0.49
   -4   13   19      0.04      1.34
   -3   12   19      7.65     -6.46
   -2   11   19     -2.41     -2.50
   -1   10   19     -5.52     -3.82
    0    9   19     -2.01     -0.55
   -4   14   19      5.20     -3.45
   -3   13   19     -4.09      1.35
   -2   12   19      3.55     -2.18
   -1   11   19     -1.50     -2.60
    0   10   19      2.39     -1.63
   -3   14   19      0.80      1.71
   -2   13   19     -4.66      7.49
   -1   12   19     -2.68      7.34
    0   11   19      4.56     -0.17
   -1   13   19      3.43     -2.03
    0   12   19     -2.53     -1.27
    0    1   20     52.18      2.08
   -1    2   20    -40.20     76.78
   -1    3   20     21.88    -30.35
    0    2   20     32.36      6.52
   -2    4   20    -29.41     59.68
   -2    5   20      4.75     -1.57
   -1    4   20      6.08    -12.92
    0    3   20      8.41      5.86
   -3    6   20     -3.19      9.17
   -3    7   20     11.50      0.09
   -2    6   20     -5.04     -3.44
   -1    5   20    -10.27    -10.45
    0    4   20    -17.01     -3.59
   -4    8   20     -6.37     14.95
   -4    9   20     -3.05      6.49
   -3    8   20     11.17    -14.19
   -2    7   20    -14.09      4.22
   -1    6   20      8.45     -7.54
    0    5   20     11.39      0.35
   -5   10   20     -1.28      7.24
   -5   11   20     11.06     -0.85
   -4   10   20      3.25     -3.69
   -3    9   20     -6.08      5.87
   -2    8   20     -3.35    -15.54
   -1    7   20     -1.62      3.59
    0    6   20      7.23      3.16
   -6   12   20      1.06      0.08
   -6   13   20     -6.45      2.86
   -5   12   20     -2.21     -4.66
   -4   11   20     -2.26      1.75
   -3   10   20      7.08     -7.22
   -2    9   20     -0.24      6.00
   -1    8   20      2.88     19.29
    0    7   20     -2.39     -0.13
   -7   14   20     -2.56      0.48
   -6   14   20      6.53      3.39
   -5   13   20      1.66      0.34
   -4   12   20     -0.63     -2.88
   -3   11   20     -5.22      4.52
   -2   10   20     -5.18      1.60
   -1    9   20      3.03      3.28
    0    8   20      8.03     -3.04
   -5   14   20      0.20     -4.68
   -4   13   20      1.93      0.44
   -3   12   20     -2.11      0.14
   -2   11   20     -2.97      8.04
   -1   10   20     -2.98    -15.97
    0    9   20     -4.29      1.03
   -4   14   20      0.71      0.42
   -3   13   20     -0.65      0.21
   -2   12   20      6.64     -1.95
   -1   11   20      2.87     -6.07
    0   10   20      5.07      3.32
   -2   13   20      2.48      1.56
   -1   12   20     -5.72      4.77
    0   11   20      7.25     -1.46
   -1   13   20     -6.59     -1.55
    0   12   20      2.28      0.61
    0    1   21     45.44    -65.93
   -1    2   21      0.49    103.74
   -1    3   21      2.44    -25.48
    0    2   21     17.49     29.75
   -2    4   21      1.31     33.56
   -2    5   21      5.40    -15.16
   -1    4   21     17.71     11.89
    0    3   21    -32.56      2.30
   -3    6   21     -0.33     -6.60
   -3    7   21    -19.03     -6.27
   -2    6   21      6.24      0.61
   -1    5   21      1.29     -2.96
    0    4   21     -9.04      1.04
   -4    8   21      0.39      5.61
   -4    9   21    -12.86      1.33
   -3    8   21      2.61     -5.28
   -2    7   21     -1.06     -2.12
   -1    6   21      5.43     18.66
    0    5   21     -0.01     -4.75
   -5   10   21      0.54      0.84
   -5   11   21      7.81      4.28
   -4   10   21     -2.41     -5.58
   -3    9   21      0.95     -3.99
   -2    8   21      3.72      6.03
   -1    7   21      4.73      1.21
    0    6   21    -19.48     -1.07
   -6   12   21     -1.15      8.96
   -6   13   21    -21.99    -13.08
   -5   12   21      0.34     11.42
   -3   10   21     -1.44     -4.81
   -2    9   21     -1.83     -0.84
   -1    8   21      8.62      8.43
    0    7   21     -5.17      1.37
   -4   11   21      4.57      2.08
   -7   14   21     -2.21     -4.77
   -6   14   21     19.30      4.65
   -5   13   21      0.86    -14.51
   -4   12   21     -9.83     10.39
   -3   11   21      2.57     -4.84
   -2   10   21      8.44     -7.56
   -1    9   21    -16.31      8.42
    0    8   21     -4.00      1.08
   -5   14   21    -12.85      7.65
   -4   13   21      5.16    -10.54
   -3   12   21      3.94     10.02
   -2   11   21      0.08     -2.47
   -1   10   21     -2.86     12.02
    0    9   21     21.08     -9.05
   -4   14   21      3.01      6.07
   -3   13   21      1.41     -9.30
   -2   12   21     -2.30      1.91
   -1   11   21     -2.37      5.45
    0   10   21     -3.11      2.46
   -2   13   21      2.84     -3.61
   -1   12   21      2.91      4.89
    0   11   21      1.45     -4.70
   -1   13   21     -4.24     -4.44
    0   12   21     -3.35      1.03
    0    1   22      9.67      0.82
   -1    2   22     -8.54    -11.51
   -1    3   22    -22.04     26.61
    0    2   22      9.41     -6.48
   -2    4   22    -12.96    -22.64
   -2    5   22     -3.03     -1.87
   -1    4   22     -8.26      1.21
    0    3   22     50.38      3.16
   -3    6   22     -1.44     -5.83
   -3    7   22     11.38     -7.14
   -2    6   22     -3.39      4.35
   -1    5   22      6.58      5.05
    0    4   22     -7.10     -1.75
   -4    8   22     21.03     34.13
   -4    9   22     14.91     -7.62
   -3    8   22     -5.50    -12.35
   -2    7   22     -9.50      0.71
   -1    6   22      1.68      2.05
    0    5   22      4.04      4.15
   -5   10   22     -3.29     -7.11
   -5   11   22      3.59     -1.28
   -4   10   22     -9.91      5.67
   -3    9   22     -1.02     -6.59
   -2    8   22     -7.00     -3.19
   -1    7   22      0.34      9.30
    0    6   22      1.02     -5.97
   -6   12   22      1.73      1.38
   -6   13   22     -5.60      3.03
   -5   12   22      7.84      4.55
   -4   11   22      2.51     -5.07
   -3   10   22      5.57     -2.90
   -2    9   22     -1.57      4.93
   -1    8   22      5.24      2.66
    0    7   22     -4.55      1.09
   -7   14   22     -0.98     -2.68
   -6   14   22     -5.35      1.07
   -5   13   22     -1.56     -3.33
   -4   12   22      0.45      3.83
   -3   11   22    -12.42     -0.09
   -2   10   22      1.16     -3.13
   -1    9   22     -0.65      1.66
    0    8   22      3.18      0.41
   -5   14   22      7.65     -5.31
   -4   13   22     -3.86     -3.20
   -3   12   22     -0.50      6.60
   -2   11   22      2.54     -3.14
   -1   10   22     -1.72      0.26
    0    9   22     -2.16      0.20
   -4   14   22     -1.52      1.66
   -3   13   22      7.58     -1.15
   -2   12   22      0.14      0.06
   -1   11   22     -6.17      2.39
    0   10   22     17.63     -0.46
   -2   13   22     -2.33      2.73
   -1   12   22     -1.05     -0.49
    0   11   22      1.40      0.64
   -1   13   22     -4.32      0.60
    0   12   22      3.78      0.99
    0    1   23      2.46      5.53
   -1    2   23      4.41      1.31
   -1    3   23      9.11    -24.11
    0    2   23      9.91     -9.89
   -2    4   23      6.33      2.93
   -2    5   23     -5.05      1.31
   -1    4   23      9.69      0.35
    0    3   23    -28.96     -6.08
   -3    6   23     -9.42     -5.10
   -3    7   23     -0.82      4.02
   -2    6   23      8.33      0.38
   -1    5   23    -16.30     18.15
    0    4   23    -10.01      2.48
   -4    8   23     -1.82     -1.94
   -4    9   23     -3.86      5.38
   -3    8   23     -5.72     -3.96
   -2    7   23      8.21    -13.89
   -1    6   23      7.35      0.31
    0    5   23     22.42     -0.76
   -5   10   23     -0.57     -2.90
   -5   11   23      0.78     14.20
   -4   10   23      2.78      1.01
   -3    9   23      1.03     -3.68
   -2    8   23      8.62      4.77
   -1    7   23    -13.53      9.40
    0    6   23     14.25     -2.98
   -6   12   23    -12.49     -5.70
   -6   13   23      7.57      9.45
   -5   12   23     -3.04     -8.89
   -4   11   23      2.19     -0.90
   -3   10   23      2.00      0.14
   -2    9   23     -3.87     -5.56
   -1    8   23      3.43      5.47
    0    7   23    -18.20     -1.27
   -7   14   23     -1.20     -0.05
   -6   14   23      0.72     -5.91
   -5   13   23      2.82      3.15
   -4   12   23    -11.26     -1.32
   -3   11   23      3.81      3.26
   -2   10   23     -1.85      7.66
   -1    9   23      0.46      0.25
    0    8   23     -3.77      1.55
   -5   14   23    -11.17     -0.47
   -4   13   23     12.79      1.30
   -3   12   23     -7.61     -6.33
   -2   11   23      0.83     -3.92
   -1   10   23      6.41     -5.22
    0    9   23      0.88     -2.90
   -4   14   23     -3.22     -0.96
   -3   13   23      5.14     -0.46
   -2   12   23      5.73      5.89
   -1   11   23     -1.78      4.40
    0   10   23     -2.35      0.14
   -2   13   23      0.17     -0.71
   -1   12   23     -5.17     -2.69
    0   11   23      0.35     -2.65
   -1   13   23      4.05      0.19
    0   12   23     -4.87      2.55
    0    0   24    184.34      4.29
    0    1   24    -33.24      0.25
   -1    2   24    -18.55      4.43
   -1    3   24    -30.40     -0.55
    0    2   24     54.85     -1.36
   -2    4   24     -9.65     -5.88
   -2    5   24     -7.93     10.81
   -1    4   24      8.19     19.63
    0    3   24     16.33      2.17
   -3    6   24     -5.57     -3.05
   -3    7   24      5.49     -5.66
   -2    6   24     -0.74     11.47
   -1    5   24     16.12    -25.22
    0    4   24     -2.34      1.26
   -4    8   24     -8.29     -1.66
   -4    9   24      3.39      8.98
   -3    8   24      5.65     -3.68
   -2    7   24     -5.27     -1.23
   -1    6   24    -12.52      2.55
    0    5   24     11.34      0.17
   -5   10   24      1.77     -0.43
   -5   11   24     -5.55      3.63
   -4   10   24     -1.88     -0.69
   -3    9   24     12.65     -4.06
   -2    8   24    -15.52      2.57
   -1    7   24     11.63     -2.66
    0    6   24      6.05     -4.31
   -6   12   24    -12.20      6.09
   -6   13   24      4.51     -2.02
   -5   12   24     10.22     -3.61
   -4   11   24      0.57     -3.81
   -3   10   24     -8.82     13.08
   -2    9   24      0.10     -7.15
   -1    8   24     -2.75      2.93
    0    7   24      1.65     -0.01
   -7   14   24     -2.18      2.16
   -6   14   24     -3.46     -2.65
   -5   13   24      2.27      3.61
   -4   12   24      1.69      1.69
   -3   11   24      6.58    -11.50
   -2   10   24     -9.19      2.39
   -1    9   24     -1.28      8.14
    0    8   24     -2.12      2.37
   -5   14   24      0.87     -2.19
   -4   13   24     -0.37     -2.81
   -3   12   24     -6.00      1.59
   -2   11   24      1.12      3.92
   -1   10   24     -3.32    -12.89
    0    9   24     16.00     -3.44
   -4   14   24     -3.16      3.29
   -3   13   24      3.43      0.05
   -2   12   24     -1.13      1.27
   -1   11   24      0.26      6.03
    0   10   24      9.38      5.71
   -2   13   24      2.79      1.82
   -1   12   24      0.96      0.32
    0   11   24     -6.13      2.15
   -1   13   24     -1.89     -4.67
    0   12   24      2.99      0.65
    0    1   25    -83.34    -13.55
   -1    2   25      2.07     14.03
   -1    3   25    -29.05     -3.10
    0    2   25     91.21     14.68
   -2    4   25     -2.12     -4.98
   -2    5   25     -1.58     -2.65
   -1    4   25     22.37      4.10
    0    3   25     -6.79     -3.95
   -3    6   25     -4.90      0.22
   -3    7   25     -1.86     -6.25
   -2    6   25      5.74      0.06
   -1    5   25     -8.84     15.67
    0    4   25     -2.28      0.58
   -4    8   25      3.16     -2.19
   -4    9   25     -0.63     -4.21
   -3    8   25     -5.72    -12.07
   -2    7   25     -6.11     13.69
   -1    6   25      2.19     -1.37
    0    5   25      2.71     -0.95
   -5   10   25      3.27     -0.74
   -5   11   25      4.98      4.50
   -4   10   25     -8.53      1.46
   -3    9   25      4.82     11.08
   -2    8   25      1.56     -6.59
   -1    7   25      1.37      4.77
    0    6   25     -0.84      3.40
   -6   12   25     -1.46     -0.03
   -6   13   25      0.66      3.81
   -5   12   25      7.70     -3.09
   -4   11   25     -6.74     -0.06
   -3   10   25     -2.76    -11.92
   -2    9   25      1.14      1.58
   -1    8   25      2.63      7.58
    0    7   25     -0.19     -2.78
   -7   14   25      3.56     -2.84
   -6   14   25      0.24     -4.55
   -5   13   25    -14.78     14.01
   -4   12   25      8.76     -6.03
   -3   11   25     -1.16     -1.28
   -2   10   25      6.15      7.12
   -1    9   25      2.29     -4.25
    0    8   25     -7.49     -1.98
   -5   14   25     -0.08     -6.78
   -4   13   25     -5.14      5.20
   -3   12   25     10.56     -6.17
   -2   11   25      3.31     -6.48
   -1   10   25    -13.30      9.40
    0    9   25     -4.91      3.38
   -4   14   25      1.78     -1.26
   -3   13   25     -3.46      3.60
   -2   12   25     -3.18     -1.34
   -1   11   25     -0.29      4.77
    0   10   25     19.34    -11.24
   -2   13   25     -3.47     -1.21
   -1   12   25      2.77      5.47
    0   11   25    -14.18      4.37
   -1   13   25      0.82      2.81
    0   12   25      6.12      2.29
    0    1   26    -19.53     -7.37
   -1    2   26     11.50    -22.16
   -1    3   26    -12.57     11.88
    0    2   26    -15.48      5.11
   -2    4   26      9.36    -25.80
   -2    5   26     -2.79      0.18
   -1    4   26     -1.92     10.03
    0    3   26     49.87      0.40
   -3    6   26     -0.25      0.72
   -3    7   26     -9.62    -12.38
   -2    6   26     -7.54     -5.55
   -1    5   26     -4.17      6.55
    0    4   26    -19.45      0.41
   -4    8   26     -8.61     13.20
   -4    9   26     12.50      9.08
   -3    8   26     13.12     -5.33
   -2    7   26      3.50      3.52
   -1    6   26    -12.16      1.41
    0    5   26     14.62    -10.18
   -5   10   26     -2.39      7.91
   -5   11   26     -0.89     -2.78
   -4   10   26      5.92      4.30
   -3    9   26     -3.97    -10.90
   -2    8   26     -4.00     -0.59
   -1    7   26     11.45      9.14
    0    6   26      4.89      0.45
   -6   12   26     -2.74      6.01
   -6   13   26      0.35      6.17
   -5   12   26      1.41    -11.80
   -4   11   26     -4.69      5.71
   -3   10   26     -2.12      2.75
   -2    9   26     -3.46      5.15
   -1    8   26     -3.42      0.33
    0    7   26      1.04      4.47
   -7   14   26     -2.12      1.77
   -6   14   26     -5.14      0.72
   -5   13   26     14.11     -3.29
   -4   12   26      2.24     -6.42
   -3   11   26      0.37      2.16
   -2   10   26      3.76     -5.59
   -1    9   26      0.71     -7.69
    0    8   26     -2.84     -2.05
   -5   14   26     -2.23      4.26
   -4   13   26     -5.23     -0.06
   -3   12   26      1.32     -3.41
   -2   11   26     -1.65      6.41
   -1   10   26     -8.17      2.54
    0    9   26      8.64     -0.13
   -4   14   26     -1.48     -0.06
   -3   13   26     -0.99      6.78
   -2   12   26      0.67     -4.29
   -1   11   26      2.23      0.47
    0   10   26      0.09     -0.51
   -2   13   26     -1.45     -5.95
   -1   12   26      1.65      2.91
    0   11   26     -1.30      0.87
   -1   13   26     -0.36      3.43
    0   12   26     -3.11      0.22
    0    1   27      5.01      5.66
   -1    2   27    -18.06     26.50
   -1    3   27     18.02      0.04
    0    2   27    -10.69     -9.83
   -2    4   27     -2.02     31.22
   -2    5   27     -0.90     -4.93
   -1    4   27      0.51    -11.07
    0    3   27      5.26      5.59
   -3    6   27      2.14      5.97
   -3    7   27      6.53     -8.95
   -2    6   27      4.95    -16.65
   -1    5   27      7.74      5.83
    0    4   27    -11.76     -2.09
   -4    8   27     -0.79     -3.63
   -4    9   27      2.58      1.69
   -3    8   27     -9.75     10.05
   -2    7   27      3.78     12.93
   -1    6   27    -12.09      5.88
    0    5   27     -0.20     -0.42
   -5   10   27     -1.35    -15.39
   -5   11   27      2.80      5.02
   -4   10   27      0.27      1.14
   -3    9   27     -6.63     -1.25
   -2    8   27      6.48     -9.78
   -1    7   27     -4.08     13.26
    0    6   27      3.97      0.59
   -6   12   27      0.36      9.26
   -6   13   27     -4.35    -14.09
   -5   12   27     -6.83     11.01
   -4   11   27      5.77     -7.10
   -3   10   27      3.35     -4.50
   -2    9   27     -1.01     10.41
   -1    8   27      1.62     -5.59
    0    7   27      9.07     -0.46
   -7   14   27      2.10      4.88
   -6   14   27     12.66      3.87
   -5   13   27     -0.69     -7.60
   -4   12   27     -7.61     10.62
   -3   11   27     -0.91     -3.54
   -2   10   27     -4.58     -6.61
   -1    9   27     -0.23      0.98
    0    8   27     -4.76     -1.34
   -5   14   27     -4.48      8.50
   -4   13   27      3.23     -6.98
   -3   12   27      4.92     -4.24
   -2   11   27      5.34      8.05
   -1   10   27      5.59      2.48
    0    9   27      1.23      0.85
   -4   14   27      2.11     -2.00
   -3   13   27     -5.00     -2.25
   -2   12   27      2.34      2.08
   -1   11   27     -6.16      2.75
    0   10   27     -2.70     -0.64
   -2   13   27     -3.63      1.73
   -1   12   27      8.28     -2.69
    0   11   27     -6.25      0.11
   -1   13   27     -0.90     -3.96
    0   12   27     -2.37      2.40
    0    1   28     49.78     -6.20
   -1    2   28     -1.75      5.62
   -1    3   28    -23.55     -6.62
    0    2   28     49.93      0.38
   -2    4   28     -2.78     -2.10
   -2    5   28    -11.99    -13.52
   -1    4   28      7.51      4.45
    0    3   28      4.71      4.07
   -3    6   28     -2.71     -2.54
   -3    7   28      1.02      0.25
   -2    6   28      2.81     14.62
   -1    5   28     -8.78      2.59
    0    4   28     17.87      2.66
   -4    8   28     -1.51     -3.28
   -4    9   28      6.45      2.34
   -3    8   28      2.75      0.47
   -2    7   28     -6.19     -1.72
   -1    6   28      6.34     -1.54
    0    5   28     -1.73     -9.81
   -5   10   28     -1.92     -0.48
   -5   11   28     11.08      1.18
   -4   10   28      6.01     -5.80
   -3    9   28     -5.26     -5.77
   -2    8   28     -5.62      9.44
   -1    7   28     -6.61     -2.29
    0    6   28      3.22     -1.80
   -6   12   28     -3.19     -4.82
   -6   13   28     -3.07      0.40
   -5   12   28      1.28     -1.55
   -4   11   28    -10.92      0.26
   -3   10   28     12.04     13.12
   -2    9   28     -6.42    -13.18
   -1    8   28      3.35      4.72
    0    7   28      3.61      1.41
   -7   14   28      1.37      2.32
   -6   14   28      0.25     -0.58
   -5   13   28     -1.19     -2.73
   -4   12   28      1.94      0.70
   -3   11   28     -3.42     -3.78
   -2   10   28     -8.34      3.88
   -1    9   28      2.71      3.52
    0    8   28     -1.04     -3.94
   -5   14   28     -0.69      0.15
   -4   13   28      2.51      2.57
   -3   12   28     -1.77     -3.93
   -2   11   28      5.23      1.37
   -1   10   28     -0.94     -9.70
    0    9   28     21.29     11.31
   -4   14   28     -1.32      1.38
   -3   13   28     -1.66      1.50
   -2   12   28      0.13     -1.24
   -1   11   28     -6.77      6.04
    0   10   28      0.41     -6.11
   -2   13   28     -7.61     -7.07
   -1   12   28      2.83      2.15
    0   11   28     -0.16      4.72
   -1   13   28      5.87     -2.23
    0   12   28      5.24      1.46
    0    1   29     53.36      6.43
   -1    2   29    -33.59    -15.47
   -1    3   29     10.73     -0.48
    0    2   29     -6.83     -6.49
   -2    4   29    -12.40     -5.43
   -2    5   29      9.02     -0.16
   -1    4   29    -11.74     10.97
    0    3   29    -11.47      5.91
   -3    6   29     10.02      6.11
   -3    7   29     -5.08     -7.52
   -2    6   29     -6.67      4.47
   -1    5   29     -7.92     -4.43
    0    4   29     25.51     -0.44
   -4    8   29      1.88      0.34
   -4    9   29      2.40     -1.47
   -3    8   29      5.40     -5.21
   -2    7   29      2.52     -4.24
   -1    6   29     -1.82      6.44
    0    5   29      6.34      6.81
   -5   10   29      9.72      3.02
   -5   11   29     -2.88     -1.34
   -4   10   29     -0.05     -8.58
   -3    9   29     -3.24      1.65
   -2    8   29     -7.53      3.84
   -1    7   29      9.57      0.72
    0    6   29     -3.92    -10.42
   -6   12   29      4.72      5.44
   -6   13   29      6.14     -5.41
   -5   12   29     -0.85     -0.19
   -4   11   29     -2.19      2.13
   -3   10   29     -3.48      1.47
   -2    9   29      4.27     -2.29
   -1    8   29     -6.88      3.36
    0    7   29     -0.79      5.07
   -7   14   29     -2.91      3.21
   -6   14   29     -0.75     -2.43
   -5   13   29     -2.44      1.53
   -4   12   29     -4.26     -4.23
   -3   11   29      1.62     -9.53
   -2   10   29      3.05     13.08
   -1    9   29      2.80      0.44
    0    8   29      2.09     -2.67
   -5   14   29     -0.79      4.43
   -4   13   29     -1.66      2.64
   -3   12   29      5.29      5.77
   -2   11   29      6.31      3.43
   -1   10   29     -8.92     -8.54
    0    9   29      1.56     -1.10
   -4   14   29     -2.37     -1.90
   -3   13   29      1.16     -4.30
   -2   12   29     -0.93     -6.05
   -1   11   29      3.72      8.81
    0   10   29      1.83      4.94
   -2   13   29     -4.16      1.02
   -1   12   29      6.36     -0.81
    0   11   29    -15.09     -4.89
    0   12   29     -7.04      0.55
    0    0   30   -103.86      1.98
    0    1   30     33.97      2.04
   -1    2   30     -1.06      5.64
   -1    3   30     16.11    -22.49
    0    2   30    -33.91     -3.56
   -2    4   30    -13.02     -2.81
   -2    5   30      5.93     -6.27
   -1    4   30    -16.16     27.40
    0    3   30      4.84      2.61
   -3    6   30     -9.65     -1.25
   -3    7   30     -3.99      0.41
   -2    6   30     10.52      0.11
   -1    5   30     -1.03     -1.76
    0    4   30     11.36     -4.90
   -4    8   30     19.14     -1.05
   -4    9   30      2.02      6.26
   -3    8   30      0.26      0.81
   -2    7   30     -5.75     -3.24
   -1    6   30     -2.96      4.05
    0    5   30     18.63      3.11
   -5   10   30     -5.98     -1.55
   -5   11   30     -2.17     -7.95
   -4   10   30      5.76      1.18
   -3    9   30     -4.92      5.30
   -2    8   30     -5.45      1.82
   -1    7   30     -1.97     -9.11
    0    6   30     -6.75     -3.45
   -6   12   30     -1.49      0.90
   -6   13   30     -3.74     -1.05
   -5   12   30     -0.17      2.59
   -4   11   30      0.08      2.39
   -3   10   30      3.59     -6.21
   -2    9   30     -7.67     -6.34
   -1    8   30      5.00      1.90
    0    7   30     -1.42     -1.82
   -7   14   30      1.77      0.47
   -6   14   30      2.24      7.08
   -5   13   30      4.03     -1.08
   -4   12   30     -3.97      1.56
   -3   11   30     -0.77     -1.21
   -2   10   30     14.51      2.21
   -1    9   30     -5.65     12.94
    0    8   30      8.45      2.61
   -5   14   30      1.54     -2.24
   -4   13   30     -3.43     -3.81
   -3   12   30     -0.26     -1.55
   -2   11   30     -0.42      1.66
   -1   10   30     -9.08     -2.93
    0    9   30      6.61     -5.26
   -3   13   30     -0.31      6.00
   -2   12   30     -3.62     -1.98
   -1   11   30      6.38     -2.21
    0   10   30     -4.99      1.79
   -2   13   30      1.38     -2.85
   -1   12   30      0.93      8.30
    0   11   30      4.12     -0.54
    0   12   30     -0.50      1.32
    0    1   31    -26.58     -3.42
   -1    2   31     -8.68      0.47
   -1    3   31     11.24      6.28
    0    2   31      4.22      2.58
   -2    4   31     -5.07      4.35
   -2    5   31      3.35     -0.50
   -1    4   31     -0.61     -3.45
    0    3   31     -0.04      6.21
   -3    6   31      4.90     -3.02
   -3    7   31      0.74     -3.99
   -2    6   31     -6.64     14.85
   -1    5   31     -4.03      8.84
    0    4   31      7.56     -1.43
   -4    8   31      7.38     -4.34
   -4    9   31      1.18    -10.64
   -3    8   31     -3.76      3.89
   -2    7   31      7.81     -9.27
   -1    6   31      3.34     -0.07
    0    5   31      1.44     -0.39
   -5   10   31     -6.34      2.85
   -5   11   31      1.63     -9.65
   -4   10   31     -6.36      4.04
   -3    9   31     -4.63     -1.39
   -2    8   31     -1.70      1.24
   -1    7   31     -7.57      8.71
    0    6   31     -0.92     -0.48
   -6   12   31     -3.98      1.90
   -6   13   31      2.01      1.84
   -5   12   31      8.25     -0.99
   -4   11   31     -1.28     -5.37
   -3   10   31     -1.95      3.11
   -2    9   31      3.80      4.62
   -1    8   31      2.37      0.23
    0    7   31      4.50     -2.13
   -7   14   31     -1.37      0.53
   -6   14   31      2.41     -4.74
   -5   13   31    -13.27      8.90
   -4   12   31      1.54      2.80
   -3   11   31      3.88     -7.10
   -2   10   31     -0.21     -2.30
   -1    9   31      2.26     -1.26
    0    8   31     -6.74      1.69
   -5   14   31     -4.39      1.70
   -4   13   31      0.63     -0.81
   -3   12   31      4.49     -4.54
   -2   11   31     -4.28      5.35
   -1   10   31      1.69      5.07
    0    9   31     -0.88     -0.06
   -3   13   31     -4.80      0.40
   -2   12   31      2.65      1.05
   -1   11   31     -0.91      2.63
    0   10   31     -1.31      1.24
   -2   13   31      0.91      4.82
   -1   12   31      1.96     -1.03
    0   11   31      1.81     -2.14
    0   12   31     -8.68      0.76
    0    1   32     -8.33     -6.01
   -1    2   32      3.83    -10.31
   -1    3   32     -7.77     13.39
    0    2   32     61.84      1.24
   -2    4   32      1.84     -4.99
   -2    5   32    -12.42     -3.43
   -1    4   32      6.43      5.08
    0    3   32    -21.48     -0.61
   -3    6   32      2.87     -5.49
   -3    7   32     -2.92     -3.77
   -2    6   32      5.78     -4.50
   -1    5   32    -14.14     14.65
    0    4   32     23.00     -2.97
   -4    8   32     -0.18     -2.57
   -4    9   32      6.78     -3.75
   -3    8   32     -6.10      6.17
   -2    7   32     -5.43      1.21
   -1    6   32      1.37      5.89
    0    5   32     -0.10      2.27
   -5   10   32      0.16      0.73
   -5   11   32     -0.49      3.19
   -4   10   32      7.47     -0.16
   -3    9   32     -1.75      6.40
   -2    8   32      2.37      1.34
   -1    7   32      0.52    -10.60
    0    6   32      5.89     -3.02
   -6   12   32     -3.22      3.10
   -6   13   32      1.69     -0.13
   -5   12   32      1.59      0.47
   -4   11   32      0.59     -0.05
   -3   10   32     -4.17     -3.73
   -2    9   32     -3.43     -5.77
   -1    8   32      2.23      5.33
    0    7   32      1.95      0.23
   -7   14   32     -0.75      2.94
   -6   14   32     -1.17      0.79
   -5   13   32      6.73      0.95
   -4   12   32     -4.60     -4.07
   -3   11   32      4.20      3.22
   -2   10   32     -5.09     -3.46
   -1    9   32     -1.57    -10.01
    0    8   32      7.15      2.19
   -5   14   32     -1.20      0.35
   -4   13   32      1.65      0.99
   -3   12   32     -1.21      0.96
   -2   11   32      6.49      4.19
   -1   10   32     -3.27      8.09
    0    9   32      0.45     -1.67
   -3   13   32     -4.78      0.42
   -2   12   32     -5.68     -3.15
   -1   11   32      3.41     -1.04
    0   10   32     -0.68      2.51
   -2   13   32      1.04     -2.15
   -1   12   32      3.98     -2.40
    0   11   32     -1.66      2.51
    0   12   32     -3.44      4.33
    0    1   33     -4.96      4.98
   -1    2   33     -0.76     -4.11
   -1    3   33     19.56      9.75
    0    2   33     -6.22     -1.79
   -2    4   33      1.76     -0.80
   -2    5   33     -7.09     -2.40
   -1    4   33    -11.19     -9.77
    0    3   33     -2.75      3.34
   -3    6   33      0.44      0.28
   -3    7   33     -3.87     -3.73
   -2    6   33      7.60     -6.74
   -1    5   33      2.80      7.56
    0    4   33      2.57     -4.98
   -4    8   33      0.54     -4.36
   -4    9   33      1.20     -3.18
   -3    8   33     -4.66      3.41
   -2    7   33     -2.51      9.87
   -1    6   33     -5.46     -0.41
    0    5   33      0.94      0.55
   -5   10   33     -1.92      0.08
   -5   11   33      3.07      5.03
   -4   10   33     -3.21      0.77
   -3    9   33      9.73      3.14
   -2    8   33     -3.43      4.41
   -1    7   33     -1.41      2.47
    0    6   33     11.01      1.27
   -6   12   33     -0.36     -2.54
   -6   13   33     15.92      4.46
   -5   12   33     -8.62     -5.63
   -4   11   33     -4.88     -2.90
   -3   10   33      1.08     -2.24
   -2    9   33      5.09     -2.34
   -1    8   33     -0.71     -2.76
    0    7   33      0.60     -2.83
   -7   14   33      1.88     -0.49
   -6   14   33     -5.36     -1.41
   -5   13   33      2.77      8.70
   -4   12   33      7.45     -2.90
   -3   11   33     -0.20     -0.89
   -2   10   33      0.79     -0.95
   -1    9   33     -0.54     -3.45
    0    8   33     -1.43      0.87
   -5   14   33      2.55     -2.15
   -4   13   33     -6.14      1.86
   -3   12   33    -10.10     -8.68
   -2   11   33     -2.78      7.45
   -1   10   33      6.02      2.45
    0    9   33     -9.00     -0.13
   -3   13   33      6.46      4.53
   -2   12   33      6.70     -2.59
   -1   11   33     -3.18      3.55
    0   10   33     -2.82     -0.56
   -2   13   33     -0.71     -0.15
   -1   12   33      4.70     -0.88
    0   11   33      1.53      1.11
    0   12   33     -9.50     -6.26
    0    1   34    -25.64      0.54
   -1    2   34      8.85     15.16
   -1    3   34      1.93     -5.49
    0    2   34     13.81      0.16
   -2    4   34     -6.29     -5.71
   -2    5   34    -14.70      4.26
   -1    4   34     19.44      2.13
    0    3   34    -12.65      1.26
   -3    6   34     -0.76      1.91
   -3    7   34     -1.81     11.83
   -2    6   34     -5.83    -12.55
   -1    5   34     -3.57     -0.50
    0    4   34      2.72      2.76
   -4    8   34      1.66      4.89
   -4    9   34      6.68     -5.70
   -3    8   34    -10.54     -2.21
   -2    7   34      0.97      8.04
   -1    6   34     -0.41      2.48
    0    5   34      3.09     -5.06
   -5   10   34      1.09      4.26
   -5   11   34     -2.94      2.43
   -4   10   34      3.83    -10.45
   -3    9   34      0.04      7.35
   -2    8   34      3.16     -3.55
   -1    7   34      1.89     -1.30
    0    6   34      1.67      0.88
   -6   12   34      2.47      4.06
   -6   13   34     -6.49      4.38
   -5   12   34      2.22     -5.11
   -4   11   34      0.87      8.08
   -3   10   34     -2.56     -3.07
   -2    9   34      6.65      2.53
   -1    8   34     -8.70     -4.59
    0    7   34      6.63      0.33
   -7   14   34     -4.38     -4.18
   -6   14   34      8.02     -1.05
   -5   13   34     -1.89     -0.24
   -4   12   34     -2.64     -1.30
   -3   11   34      6.08     -0.67
   -2   10   34     -5.91     -4.61
   -1    9   34     -1.12      8.71
    0    8   34     -1.02     -0.13
   -5   14   34     -3.59      2.73
   -4   13   34      5.18     -2.43
   -3   12   34     -1.39      2.19
   -2   11   34     -2.10     -3.64
   -1   10   34      2.47      4.56
    0    9   34     10.12     -1.29
   -3   13   34    -10.77      1.61
   -2   12   34      0.94      3.88
   -1   11   34      1.02     -1.16
    0   10   34      0.54     -3.50
   -2   13   34      4.74     -7.00
   -1   12   34     -7.89      0.93
    0   11   34     -6.02      0.17
    0   12   34     10.60      2.23
    0    1   35      6.65     -3.12
   -1    2   35     21.40     14.34
   -1    3   35    -28.99     22.66
    0    2   35     12.51      0.46
   -2    4   35     -0.86      2.53
   -2    5   35     -0.14     10.41
   -1    4   35      3.85     -1.45
    0    3   35      1.27     -3.17
   -3    6   35      1.26      1.00
   -3    7   35     -0.91     -1.16
   -2    6   35      2.48     -2.15
   -1    5   35     -1.00     -4.26
    0    4   35    -11.38      3.36
   -4    8   35      6.51      3.43
   -4    9   35     -3.35      1.98
   -3    8   35      2.65     -3.67
   -2    7   35    -12.01      3.31
   -1    6   35     -1.35     10.35
    0    5   35      6.59      0.86
   -5   10   35      9.78      7.25
   -5   11   35     -7.11     -3.66
   -4   10   35      2.57    -10.68
   -3    9   35      2.83     -0.68
   -2    8   35     -4.32     -2.96
   -1    7   35      6.98     -2.68
    0    6   35     -2.37     -1.75
   -6   12   35      4.01      3.73
   -6   13   35      2.05     10.83
   -5   12   35      0.95     -3.69
   -4   11   35     -0.15      1.23
   -3   10   35     -2.75      1.01
   -2    9   35     -0.37      2.22
   -1    8   35      3.04      7.35
    0    7   35      1.64      1.34
   -7   14   35     -0.31     -0.65
   -6   14   35      5.69     -6.29
   -5   13   35     -2.66      1.91
   -4   12   35     -7.59     -3.62
   -3   11   35     -0.43     -6.22
   -2   10   35      6.84      8.09
   -1    9   35      2.96     -1.24
    0    8   35     -2.11     -2.55
   -5   14   35     -4.41      0.63
   -4   13   35      2.47     -0.88
   -3   12   35      4.16     -0.37
   -2   11   35     -1.60      3.79
   -1   10   35     -3.47     -0.78
    0    9   35     -4.70     -0.31
   -3   13   35     -2.05     -0.87
   -2   12   35      1.68     -1.09
   -1   11   35     -0.24      2.50
    0   10   35     -1.15      1.64
   -2   13   35     -0.31     -2.06
   -1   12   35      0.36      3.71
    0   11   35     -0.50     -0.35
    0   12   35     -5.99     -1.56
    0    0   36      4.81     -1.43
    0    1   36      9.55      2.06
   -1    2   36     14.50     -3.34
   -1    3   36     -4.89     27.63
    0    2   36    -31.87      0.34
   -2    4   36      4.93      1.29
   -2    5   36     -3.25      6.84
   -1    4   36     -2.45    -15.87
    0    3   36     11.45     -5.14
   -3    6   36      3.27      0.86
   -3    7   36     -3.68      5.32
   -2    6   36     -2.38     -9.64
   -1    5   36      1.89     16.40
    0    4   36      9.12      2.07
   -4    8   36      6.88      0.24
   -4    9   36      6.65     -1.94
   -3    8   36      2.39      2.96
   -2    7   36     -8.99     -1.81
   -1    6   36      5.67     -4.23
    0    5   36      4.58     -0.37
   -5   10   36     -0.95      0.74
   -5   11   36      1.68     -1.12
   -4   10   36     -3.37     -1.71
   -3    9   36    -12.48      3.64
   -2    8   36     11.08     -6.02
   -1    7   36     -4.58      4.74
    0    6   36     -1.61      1.95
   -6   12   36     -1.00     -1.69
   -6   13   36      0.74      2.20
   -5   12   36     -4.49      4.54
   -4   11   36      6.27     -3.14
   -3   10   36      3.16     -3.93
   -2    9   36     -6.00      5.28
   -1    8   36      0.39     -3.61
    0    7   36     -3.49      0.64
   -7   14   36      2.17      0.04
   -6   14   36     -0.29      2.64
   -5   13   36     -1.07     -1.94
   -4   12   36     -0.31      1.50
   -3   11   36      0.81      3.03
   -2   10   36      0.44      2.51
   -1    9   36      0.74      2.85
    0    8   36      9.77     -0.51
   -4   13   36     -2.04      0.48
   -3   12   36     -2.17     -1.44
   -2   11   36     -0.43      0.64
   -1   10   36      0.47     -1.27
    0    9   36     -1.34      0.16
   -3   13   36      0.16      0.13
   -2   12   36      1.88     -0.59
   -1   11   36      0.79    -10.90
    0   10   36     -2.86      2.83
   -2   13   36     -3.54      0.71
   -1   12   36      7.19     -0.07
    0   11   36     -2.56      0.14
    0   12   36     -9.76      1.90
    0    1   37     15.76      4.89
   -1    2   37      3.21      1.16
   -1    3   37     11.19     15.53
    0    2   37    -28.22    -11.92
   -2    4   37     -5.79     10.58
   -2    5   37     -0.06      0.55
   -1    4   37     11.61      0.41
    0    3   37      4.74      3.74
   -3    6   37      2.18     -1.92
   -3    7   37      2.00      3.22
   -2    6   37      5.00      0.21
   -1    5   37      0.74     -2.59
    0    4   37    -18.48      0.81
   -4    8   37      3.47     -5.18
   -4    9   37      2.60     -2.93
   -3    8   37      1.17     -3.25
   -2    7   37     -1.75     -0.61
   -1    6   37     -7.74      2.08
    0    5   37      2.57     -4.81
   -5   10   37     -1.12      1.28
   -5   11   37      2.85      3.35
   -4   10   37     -6.09     -2.78
   -3    9   37    -11.14     -7.51
   -2    8   37     -0.40      7.65
   -1    7   37      4.65     -1.46
    0    6   37     -5.69      1.57
   -6   12   37      3.20     -0.89
   -6   13   37      3.41      0.14
   -5   12   37     -4.07     -0.36
   -4   11   37      1.35     -0.76
   -3   10   37      2.38      6.27
   -2    9   37      2.27      0.44
   -1    8   37      2.88      2.15
    0    7   37     -0.84     -1.28
   -7   14   37     -0.20      0.05
   -6   14   37     -0.51      3.01
   -5   13   37      0.22     -1.08
   -4   12   37     -5.40      2.00
   -3   11   37      8.19      3.56
   -2   10   37     -3.55     -4.75
   -1    9   37     -2.72      3.35
    0    8   37      4.82      0.08
   -4   13   37      0.37     -4.94
   -3   12   37     -4.90      0.48
   -2   11   37      0.62     -0.10
   -1   10   37      4.51     -3.40
    0    9   37     -0.37     -0.09
   -3   13   37      2.72     -8.70
   -2   12   37     -1.54      3.58
   -1   11   37      2.61      2.30
    0   10   37     -3.94      0.97
   -2   13   37      3.10      0.66
   -1   12   37     -3.06      3.35
    0   11   37     -3.45     -5.11
    0   12   37      0.91      0.46
    0    1   38     21.20      0.40
   -1    2   38      0.33     -3.38
   -1    3   38      9.48     -5.43
    0    2   38     -1.10      1.00
   -2    4   38      2.07     -4.82
   -2    5   38    -20.48     -4.09
   -1    4   38     -6.55     17.14
    0    3   38      9.22     -1.46
   -3    6   38      0.05     -5.16
   -3    7   38      2.05     -1.68
   -2    6   38     -6.18      7.77
   -1    5   38     19.92     -1.05
    0    4   38     -6.32      0.33
   -4    8   38      2.70      1.45
   -4    9   38      2.54     -0.92
   -3    8   38      0.16      1.43
   -2    7   38     -0.42     -6.26
   -1    6   38     -2.88      3.03
    0    5   38     -0.10      1.23
   -5   10   38      0.51     -0.74
   -5   11   38      0.52     -0.87
   -4   10   38     -1.99     -1.60
   -3    9   38      1.76      2.18
   -2    8   38     -3.24      5.17
   -1    7   38     -2.96     -5.35
    0    6   38      5.49      0.24
   -6   12   38      1.91      1.00
   -6   13   38      4.46      4.87
   -5   12   38     -5.16     -1.85
   -4   11   38      4.19     -3.98
   -3   10   38     -3.80      1.32
   -2    9   38     -2.67     -8.49
   -1    8   38      5.02     -0.43
    0    7   38     -0.58      0.16
   -7   14   38      4.66     -9.95
   -6   14   38     -2.10      4.95
   -5   13   38     -0.69      7.08
   -4   12   38      5.56      2.43
   -3   11   38     -4.90      0.34
   -2   10   38     -0.36      5.94
   -1    9   38     -0.10      4.82
    0    8   38     -0.15     -0.52
   -4   13   38     -1.99      1.03
   -3   12   38     -0.17      3.15
   -2   11   38     -1.26     -5.05
   -1   10   38      3.04     -0.30
    0    9   38     -0.65      0.76
   -3   13   38     -4.08     -1.37
   -2   12   38      7.44     -0.92
   -1   11   38     -7.43      1.57
    0   10   38      5.64     -2.58
   -2   13   38     -4.12      2.28
   -1   12   38      7.18     -2.30
    0   11   38      5.05      0.94
    0   12   38     -5.87     -0.17
    0    1   39      8.20      3.08
   -1    2   39      3.19      2.88
   -1    3   39     -0.57     20.77
    0    2   39    -12.96     -2.85
   -2    4   39     -1.37    -14.13
   -2    5   39     -0.02      0.70
   -1    4   39     -6.32      6.97
    0    3   39      8.83     -3.22
   -3    6   39      0.45     -9.33
   -3    7   39     -8.92      3.26
   -2    6   39     -5.40      4.49
   -1    5   39     -0.51     -6.29
    0    4   39     10.67     -0.02
   -4    8   39      0.81     -2.68
   -4    9   39      3.15      2.80
   -3    8   39      1.87     -6.74
   -2    7   39      0.40      1.22
   -1    6   39      4.48     -1.81
    0    5   39     -7.18     -0.56
   -5   10   39     -1.47     -0.93
   -5   11   39      9.07      1.57
   -4   10   39     -3.78     -3.53
   -3    9   39     11.87     -2.82
   -2    8   39     -5.18      2.73
   -1    7   39      0.08      5.92
    0    6   39      4.51     -0.82
   -6   12   39     -0.54     12.60
   -6   13   39      7.22     -7.74
   -5   12   39     -7.44      3.94
   -4   11   39    -10.29      1.83
   -3   10   39      7.33     -2.43
   -2    9   39     -3.44     -1.12
   -1    8   39      1.10      4.99
    0    7   39     -1.68      1.21
   -7   14   39     -0.22      0.20
   -5   13   39      0.19     -2.62
   -4   12   39     13.86    -10.65
   -3   11   39     -5.72      3.79
   -2   10   39     -4.60      2.02
   -1    9   39      0.84      0.70
    0    8   39     -0.26     -0.13
   -4   13   39     -3.57      8.32
   -3   12   39     -7.33     -2.43
   -2   11   39      8.77      3.81
   -1   10   39      2.49     -0.72
    0    9   39     -8.14     -0.72
   -3   13   39     -1.08     -2.20
   -2   12   39      0.11      4.30
   -1   11   39     -0.12     -4.02
    0   10   39     -4.72      1.31
   -2   13   39     -1.88     -6.03
   -1   12   39      2.34      3.66
    0   11   39      5.06      3.16
    0   12   39     -6.85     -7.63
    0    1   40     -0.20      5.18
   -1    2   40      5.49      4.10
   -1    3   40     -2.03     12.29
    0    2   40    -13.95     -6.73
   -2    4   40     -5.14     -8.82
   -2    5   40      0.51      8.12
   -1    4   40      7.15    -15.75
    0    3   40     14.04     -2.03
   -3    6   40     -4.32     -3.87
   -3    7   40     -5.57      5.51
   -2    6   40     -2.23     -3.63
   -1    5   40     -7.91      3.86
    0    4   40     -7.78      3.06
   -4    8   40     -0.29     -2.05
   -4    9   40     -6.49      5.41
   -3    8   40     -3.04      0.97
   -2    7   40      2.40      4.20
   -1    6   40      0.63      4.57
    0    5   40     10.89      2.20
   -5   10   40     -4.04     -7.18
   -5   11   40     -1.18     -1.04
   -4   10   40      5.32      1.10
   -3    9   40      7.07     -4.71
   -2    8   40     -5.62     -2.24
   -1    7   40     11.27      1.92
    0    6   40     -5.04      0.23
   -6   12   40      2.31      6.12
   -6   13   40     -2.44      3.44
   -5   12   40     -0.76      2.59
   -4   11   40      0.98     -3.60
   -3   10   40     -0.15      3.94
   -2    9   40      0.34      0.74
   -1    8   40     -0.07     -5.72
    0    7   40     -5.80     -0.42
   -5   13   40      2.19      0.12
   -4   12   40      2.42     -1.52
   -3   11   40     -5.81     -4.23
   -2   10   40      3.37      3.88
   -1    9   40     -3.86     -2.88
    0    8   40     -2.71     -0.12
   -4   13   40     -3.16     -0.13
   -3   12   40      3.27      2.65
   -2   11   40     -7.06     -0.44
   -1   10   40     -3.28     -0.02
    0    9   40     10.31     -0.48
   -3   13   40     -1.11      0.10
   -2   12   40     -1.35      3.26
   -1   11   40     11.54     -1.08
    0   10   40     -3.42      2.15
   -1   12   40     -2.75     -1.25
    0   11   40     -4.82      1.92
    0   12   40     -1.00     -1.27
    0    1   41     -2.02     -1.85
   -1    2   41     12.13      9.58
   -1    3   41     10.95      1.41
    0    2   41    -15.73     -1.37
   -2    4   41    -15.38     -8.44
   -2    5   41     -1.81     10.01
   -1    4   41     -5.28     14.65
    0    3   41     -1.46     -0.96
   -3    6   41     -9.07     -6.86
   -3    7   41      1.44      5.65
   -2    6   41      0.93      4.26
   -1    5   41      9.41     -0.52
    0    4   41     -7.38     -3.93
   -4    8   41     -0.27      1.54
   -4    9   41     -2.02      1.19
   -3    8   41      0.10     -0.04
   -2    7   41      5.07    -10.07
   -1    6   41     -1.48      1.16
    0    5   41     -9.33     -0.49
   -5   10   41      3.22      1.18
   -5   11   41      3.09      3.76
   -4   10   41      2.65     -2.78
   -3    9   41     -5.52     -2.25
   -2    8   41      3.23     -0.16
   -1    7   41     -6.83      5.86
    0    6   41     11.00     -0.27
   -6   12   41     -6.81     -5.38
   -6   13   41      5.31      7.69
   -5   12   41     -1.46     -0.78
   -4   11   41     -2.06     -5.48
   -3   10   41      4.90      1.22
   -2    9   41     -2.74      4.17
   -1    8   41      1.53     -4.22
    0    7   41     -0.42      1.47
   -5   13   41     -0.18      2.87
   -4   12   41      0.65      1.49
   -3   11   41     -3.00     -1.64
   -2   10   41     -1.05      4.20
   -1    9   41      3.76     -2.60
    0    8   41     -1.63      0.45
   -4   13   41     -7.34     -3.17
   -3   12   41      4.16     -2.68
   -2   11   41     -4.24     -2.70
   -1   10   41      1.27      2.65
    0    9   41     -2.17      0.23
   -3   13   41     -1.53      2.92
   -2   12   41      1.21      4.33
   -1   11   41     -3.10      1.82
    0   10   41      1.66     -0.83
   -1   12   41      7.99      5.01
    0   11   41      1.71     -1.85
    0   12   41     -8.03      0.44
    0    0   42     82.37      7.27
    0    1   42    -10.61     -4.42
   -1    2   42    -10.94     -0.12
   -1    3   42     -0.30      3.81
    0    2   42     18.31     -0.55
   -2    4   42      1.62      1.95
   -2    5   42     -1.43     -6.32
   -1    4   42     -0.36     -3.31
    0    3   42    -28.60     -1.67
   -3    6   42      6.90      0.26
   -3    7   42      2.40     -5.37
   -2    6   42    -11.98      4.45
   -1    5   42     -1.93      1.12
    0    4   42     30.05      1.90
   -4    8   42     -3.17     -1.83
   -4    9   42      3.10     -0.68
   -3    8   42     -3.78     -2.54
   -2    7   42     -6.42      4.28
   -1    6   42     13.03      3.63
    0    5   42     -8.27      0.87
   -5   10   42     -0.03      0.16
   -5   11   42     -0.41     -5.33
   -4   10   42     -2.38      1.59
   -3    9   42      2.46      7.17
   -2    8   42      1.97     -9.88
   -1    7   42      0.44      2.94
    0    6   42      0.88      1.91
   -6   12   42      4.40     -1.11
   -6   13   42      5.76      3.54
   -5   12   42     -0.89      0.31
   -4   11   42      1.61      4.80
   -3   10   42      3.36     -4.12
   -2    9   42     -2.07     -0.44
   -1    8   42      0.99     10.59
    0    7   42      3.86     -0.99
   -5   13   42     -1.55     -4.66
   -4   12   42      0.13     -7.35
   -3   11   42     -8.91      9.12
   -2   10   42     -7.93     -3.35
   -1    9   42      1.39     -9.03
    0    8   42     -1.55      1.28
   -4   13   42      5.42      3.53
   -3   12   42      2.48     -2.22
   -2   11   42      3.99      2.21
   -1   10   42      2.15      1.56
    0    9   42      0.37     -1.88
   -3   13   42     -0.75      0.31
   -2   12   42     -1.90     -1.89
   -1   11   42     -0.87     -1.48
    0   10   42      4.78      0.39
   -1   12   42     -4.52     -5.44
    0   11   42     -1.95      1.02
    0   12   42     -3.75      0.66
    0    1   43      6.72     -0.66
   -1    2   43    -10.77      5.02
   -1    3   43      0.62     -3.15
    0    2   43     -3.48      1.52
   -2    4   43     -3.55      2.36
   -2    5   43      2.53      5.09
   -1    4   43      3.75      2.92
    0    3   43      4.39     -2.03
   -3    6   43     -1.05      1.93
   -3    7   43      4.78     -4.73
   -2    6   43      2.37     -1.23
   -1    5   43      3.87      6.61
    0    4   43      0.51     -1.47
   -4    8   43      2.89     -1.90
   -4    9   43      2.74     -2.30
   -3    8   43     -5.61      1.45
   -2    7   43     -2.49      1.48
   -1    6   43     -7.45     -1.06
    0    5   43     -6.27     -2.05
   -5   10   43     -2.79      0.11
   -5   11   43     -3.17      1.64
   -4   10   43     -2.07      4.93
   -3    9   43      4.21     -2.31
   -2    8   43     -0.06      2.31
   -1    7   43      0.72     -3.11
    0    6   43      3.74      0.85
   -6   12   43     -0.70     -0.11
   -6   13   43     -2.92      5.15
   -5   12   43      5.22     -0.33
   -4   11   43      3.83     -2.69
   -3   10   43     -0.51     -3.50
   -2    9   43    -11.21      5.99
   -1    8   43      1.68      0.51
    0    7   43      1.99      2.32
   -5   13   43     -4.00      1.50
   -4   12   43      0.11      2.46
   -3   11   43      4.63     -1.81
   -2   10   43      0.55     -3.09
   -1    9   43      3.97      3.37
    0    8   43      1.81      0.77
   -4   13   43      5.48     -5.52
   -3   12   43     -9.24      3.53
   -2   11   43      1.43     -3.66
   -1   10   43     -0.73      2.26
    0    9   43      1.26     -0.03
   -3   13   43      2.39     -0.26
   -2   12   43      2.22     -1.64
   -1   11   43      2.07     -3.04
    0   10   43     -1.40     -1.03
   -1   12   43     -2.38      5.20
    0   11   43     -4.83     -0.67
    0    1   44      9.38     -1.81
   -1    2   44     -7.30      6.55
   -1    3   44      3.91     -8.65
    0    2   44    -10.02     -4.04
   -2    4   44     -5.99      6.16
   -2    5   44      6.42      9.00
   -1    4   44     -0.09      1.86
    0    3   44     10.98      1.96
   -3    6   44     -1.21      3.23
   -3    7   44     -3.53     -3.73
   -2    6   44     -1.11     -5.58
   -1    5   44     -1.54     -3.44
    0    4   44     -8.95      0.48
   -4    8   44      1.07     -1.45
   -4    9   44     -5.41     -8.47
   -3    8   44      0.59      3.05
   -2    7   44      3.04     -0.83
   -1    6   44     -5.83     -2.24
    0    5   44     10.08      0.65
   -5   10   44      1.17     -6.28
   -5   11   44     -3.42     -1.27
   -4   10   44     -2.32      6.99
   -3    9   44     -0.12      2.91
   -2    8   44     -3.34     -1.52
   -1    7   44      5.96      5.88
    0    6   44     -2.14     -1.08
   -6   12   44     -0.91      0.88
   -6   13   44      1.42     -0.42
   -5   12   44      1.62     -2.78
   -4   11   44     -0.81     -1.54
   -3   10   44      0.68     -2.41
   -2    9   44     -2.32      4.26
   -1    8   44      1.82      0.97
    0    7   44      1.47      0.36
   -5   13   44      1.02     -0.81
   -4   12   44      3.72      0.46
   -3   11   44      1.81      1.83
   -2   10   44     -2.12      3.66
   -1    9   44      2.02     -2.50
    0    8   44     -4.65     -0.41
   -4   13   44     -1.01      0.35
   -3   12   44     -0.28     -2.41
   -2   11   44      0.03     -1.08
   -1   10   44      3.94     -5.30
    0    9   44     -1.59     -0.78
   -3   13   44     -2.45      1.24
   -2   12   44     -2.90      0.62
   -1   11   44     -0.18      1.33
    0   10   44     -3.61      4.75
   -1   12   44     -0.75     -2.22
    0   11   44      2.55     -4.79
    0    1   45      0.56     -0.40
   -1    2   45      0.06     22.51
   -1    3   45     -6.78     -5.24
    0    2   45      5.64     -0.36
   -2    4   45      1.35     24.22
   -2    5   45     -6.67    -12.84
   -1    4   45     10.48      8.01
    0    3   45     -9.51     -2.00
   -3    6   45      1.37     -1.71
   -3    7   45     -3.96     -4.37
   -2    6   45     -0.41      3.39
   -1    5   45     -0.36      2.94
    0    4   45      0.40      1.53
   -4    8   45      0.82      1.78
   -4    9   45      3.09      0.50
   -3    8   45      4.10      0.79
   -2    7   45      3.27     -0.24
   -1    6   45     -0.28      2.80
    0    5   45      0.78     -0.69
   -5   10   45      0.26      2.12
   -5   11   45      5.37      0.83
   -4   10   45      0.46     -6.94
   -3    9   45     -1.84      1.28
   -2    8   45     -2.84     -3.16
   -1    7   45     -2.55      1.49
    0    6   45     -1.22      0.66
   -6   12   45      1.04      6.02
   -6   13   45      7.30     -5.71
   -5   12   45     -5.99      4.98
   -4   11   45     -1.84      3.09
   -3   10   45     -0.38     -0.89
   -2    9   45      2.87      2.78
   -1    8   45     -0.90      1.09
    0    7   45      3.16     -0.42
   -5   13   45      1.09     -1.91
   -4   12   45      2.94     -5.67
   -3   11   45     -0.45      2.63
   -2   10   45     -2.17     -0.82
   -1    9   45     -4.25      1.48
    0    8   45      5.90      0.77
   -4   13   45     -4.75      0.33
   -3   12   45      0.95      2.08
   -2   11   45      2.86      0.57
   -1   10   45     -1.40     -2.25
    0    9   45      3.54      0.69
   -3   13   45      3.07     -4.33
   -2   12   45     -3.89     -1.13
   -1   11   45      4.58      2.58
    0   10   45     -2.83     -0.51
   -1   12   45      1.93      3.70
    0   11   45     -3.71      0.92
    0    1   46     -2.03     -3.02
   -1    2   46      0.48      0.99
   -1    3   46     -4.72      0.54
    0    2   46     10.15     -1.44
   -2    4   46     10.70     16.26
   -2    5   46     -2.72     -9.41
   -1    4   46     -2.89    -11.64
    0    3   46      6.94     -0.36
   -3    6   46      1.43      0.29
   -3    7   46     -2.51     -0.40
   -2    6   46      1.90      2.74
   -1    5   46     -1.10      5.99
    0    4   46      0.87      0.84
   -4    8   46     -0.90     -1.05
   -4    9   46     -2.18      0.84
   -3    8   46      1.33      0.62
   -2    7   46     -3.01     -2.71
   -1    6   46      0.67      2.34
    0    5   46      2.42      1.09
   -5   10   46      1.83      0.54
   -5   11   46      6.35     -0.16
   -4   10   46      2.38      4.44
   -3    9   46     -4.35      0.43
   -2    8   46     -3.13     -2.10
   -1    7   46      4.43      5.83
    0    6   46      0.37      1.03
   -6   12   46      0.28      0.96
   -6   13   46      4.88     -2.36
   -5   12   46     -5.15     -1.32
   -4   11   46     -1.42     -2.25
   -3   10   46     -1.58     -0.57
   -2    9   46     -4.24     -3.77
   -1    8   46      4.03      3.23
    0    7   46     -6.57      0.20
   -5   13   46      1.49     -1.97
   -4   12   46      0.33     -1.27
   -3   11   46      4.34      1.21
   -2   10   46     -0.30      0.33
   -1    9   46      1.26     -0.28
    0    8   46      5.79     -0.58
   -4   13   46     -5.45      1.90
   -3   12   46     -3.48      3.02
   -2   11   46     -0.31      1.42
   -1   10   46     -1.87     -2.76
    0    9   46     -1.37     -0.04
   -3   13   46      1.70      0.16
   -2   12   46      0.62      0.11
   -1   11   46      0.73     -0.05
    0   10   46      4.89      0.19
   -1   12   46      6.28      2.52
    0   11   46      0.05     -0.48
    0    1   47     -9.03      2.15
   -1    2   47      8.46      4.00
   -1    3   47      0.70     -3.07
    0    2   47      2.77     -0.12
   -2    4   47      7.01     -1.45
   -2    5   47     -4.42      8.52
   -1    4   47     -2.40      4.12
    0    3   47     -3.32     -1.43
   -3    6   47     -0.51     -0.29
   -3    7   47     -5.02      4.82
   -2    6   47     -2.32      0.15
   -1    5   47     -4.44     -0.52
    0    4   47     -1.82      4.66
   -4    8   47      3.20      1.47
   -4    9   47      2.24     -0.49
   -3    8   47      5.58     -5.33
   -2    7   47      1.46      1.39
   -1    6   47     12.40     -3.55
    0    5   47      1.13     -2.87
   -5   10   47     -6.18     -4.04
   -5   11   47      2.77     -1.01
   -4   10   47      0.55      1.02
   -3    9   47     -4.29      3.83
   -2    8   47     -0.83     -1.14
   -1    7   47     -4.64      0.96
    0    6   47     -2.85     -0.20
   -6   12   47     -0.86     -2.39
   -6   13   47     -5.77      6.28
   -5   12   47     -2.77      5.00
   -4   11   47      4.28      2.93
   -3   10   47      0.14     -3.57
   -2    9   47      0.63     -5.88
   -1    8   47     -3.18     -1.06
    0    7   47      4.48     -0.68
   -5   13   47      0.34     -7.67
   -4   12   47      6.59     -2.71
   -3   11   47     -5.49      0.53
   -2   10   47     -1.14      2.43
   -1    9   47      0.49      0.40
    0    8   47     -1.06      0.40
   -4   13   47      4.19      3.29
   -3   12   47     -1.03     -2.31
   -2   11   47     -4.07      2.28
   -1   10   47      2.05      4.52
    0    9   47      4.97      1.84
   -2   12   47      1.49      2.16
   -1   11   47     -1.68     -0.66
    0   10   47      2.08      0.31
   -1   12   47      1.17      3.47
    0   11   47     -1.25     -0.53
    0    0   48     -9.63     -2.97
    0    1   48     11.89     -2.86
   -1    2   48    -16.19      2.63
   -1    3   48      3.97    -10.72
    0    2   48      3.09     -4.54
   -2    4   48     -4.42      1.58
   -2    5   48      1.85      6.08
   -1    4   48     -4.57      2.30
    0    3   48     -5.49      2.02
   -3    6   48     -5.34      0.85
   -3    7   48     -2.29      8.40
   -2    6   48     -0.29     -4.99
   -1    5   48      7.86     -4.06
    0    4   48     -4.55      1.05
   -4    8   48      1.80      1.78
   -4    9   48      0.79      2.61
   -3    8   48      1.53     -2.96
   -2    7   48     -1.89     -3.82
   -1    6   48      0.36      9.25
    0    5   48      6.16     -0.58
   -5   10   48      8.02      0.60
   -5   11   48      0.68     -0.15
   -4   10   48     -2.20     -0.76
   -3    9   48     -2.44     -2.22
   -2    8   48      0.47      2.73
   -1    7   48     -0.45     -4.02
    0    6   48     -0.97      0.46
   -6   12   48     -0.60     -0.06
   -6   13   48     -2.27      5.95
   -5   12   48      1.58     -3.94
   -4   11   48     -2.60     -4.66
   -3   10   48      1.39      2.94
   -2    9   48     -1.68     -2.56
   -1    8   48     -0.19      4.68
    0    7   48     -0.11     -1.46
   -5   13   48     -0.54     -1.09
   -4   12   48      1.32      1.85
   -3   11   48     -6.42      1.58
   -2   10   48      2.92      3.03
   -1    9   48      6.03     -2.79
    0    8   48     -2.70      0.10
   -4   13   48      2.94     -0.38
   -3   12   48     -1.62      3.95
   -2   11   48     -2.58      0.60
   -1   10   48      2.24     -2.63
    0    9   48     -4.51      1.78
   -2   12   48      0.57     -3.28
   -1   11   48     -1.44      1.25
    0   10   48      2.25     -4.26
   -1   12   48     -0.84      1.62
    0   11   48     -0.52     -0.01
    0    1   49     -6.99      0.35
   -1    2   49     -3.93      1.77
   -1    3   49     -5.58      8.33
    0    2   49      7.09      0.04
   -2    4   49     13.26     -7.84
   -2    5   49     -0.59     15.07
   -1    4   49      2.68     -1.49
    0    3   49     -1.02      0.51
   -3    6   49      7.02     -5.03
   -3    7   49     -0.21      2.71
   -2    6   49     -0.15      1.78
   -1    5   49      2.11      0.06
    0    4   49      1.66     -0.13
   -4    8   49      4.21     -3.41
   -4    9   49     -5.42     -2.06
   -3    8   49      2.86      3.97
   -2    7   49     -3.11     -3.72
   -1    6   49     -3.25      4.06
    0    5   49      1.22      2.34
   -5   10   49      3.82     -2.30
   -5   11   49     -4.92      1.41
   -4   10   49      2.18      0.96
   -3    9   49      3.57      0.37
   -2    8   49     -5.78     -2.09
   -1    7   49      3.26      3.58
    0    6   49      3.33     -1.42
   -6   12   49     -2.31      1.05
   -6   13   49      0.63      1.54
   -5   12   49      1.15     -0.33
   -4   11   49      4.09     -6.41
   -3   10   49     -6.33      0.04
   -2    9   49      2.58      4.71
   -1    8   49     -2.79     -5.81
    0    7   49     -0.12      1.09
   -5   13   49      0.39      1.91
   -4   12   49      2.94     -0.61
   -3   11   49      2.70     -0.37
   -2   10   49     -2.00     -0.11
   -1    9   49      2.21      1.65
    0    8   49     -2.37     -0.50
   -4   13   49     -3.17      2.06
   -3   12   49      1.37     -1.58
   -2   11   49      1.07     -2.85
   -1   10   49     -1.29      3.07
    0    9   49      1.33      1.00
   -2   12   49     -0.25      1.20
   -1   11   49      0.96      0.10
    0   10   49      0.23     -0.25
   -1   12   49      2.08     -0.60
    0   11   49     -1.00      0.34
    0    1   50    -15.96     -2.94
   -1    2   50     21.85    -24.48
   -1    3   50    -11.00     13.21
    0    2   50     -9.60     -0.75
   -2    4   50      2.53     -4.96
   -2    5   50      4.94      4.59
   -1    4   50      3.97     -9.83
    0    3   50     11.05     -0.11
   -3    6   50     -0.67      1.72
   -3    7   50     -4.92     -9.03
   -2    6   50     -3.95      3.05
   -1    5   50     -5.60      3.38
    0    4   50     -0.49      0.77
   -4    8   50     -2.38      2.02
   -4    9   50     -3.03     -1.54
   -3    8   50     -1.71      2.34
   -2    7   50      4.72     -1.87
   -1    6   50     -0.32     -1.68
    0    5   50     -0.16      0.52
   -5   10   50     -0.66      0.33
   -5   11   50     -1.18      0.90
   -4   10   50     -1.12     -0.97
   -3    9   50     -0.54     -3.04
   -2    8   50     -2.26     -1.03
   -1    7   50     -0.32      6.17
    0    6   50      3.95     -1.14
   -6   12   50     -0.78      1.96
   -6   13   50     -2.42     -1.15
   -5   12   50      9.98      1.85
   -4   11   50      2.50     -1.83
   -3   10   50     -4.41      2.02
   -2    9   50      1.81     -0.03
   -1    8   50      1.66      0.22
    0    7   50      3.13     -0.19
   -5   13   50     -2.70     -1.21
   -4   12   50      1.40     -1.99
   -3   11   50     -2.34      2.42
   -2   10   50      3.42     -1.55
   -1    9   50     -0.62      2.92
    0    8   50      1.53      0.31
   -4   13   50     -0.57      3.92
   -3   12   50      0.33     -1.20
   -2   11   50     -1.38     -4.89
   -1   10   50      1.00      1.63
    0    9   50     -4.11     -0.79
   -2   12   50     -2.11      1.86
   -1   11   50     -2.87      1.22
    0   10   50      1.70      0.18
   -1   12   50      8.64     -0.80
    0   11   50     -1.85     -0.62
    0    1   51    -20.86      1.54
   -1    2   51      0.05     -3.77
   -1    3   51      2.73      5.81
    0    2   51      7.39      0.27
   -2    4   51     -0.37      0.25
   -2    5   51     -5.06      7.80
   -1    4   51     -0.91     -3.72
    0    3   51     -1.50      1.62
   -3    6   51     -1.60    -10.37
   -3    7   51      4.46      0.36
   -2    6   51      4.93     -3.29
   -1    5   51      7.51     -2.57
    0    4   51     -3.97     -1.35
   -4    8   51     -1.35     -5.95
   -4    9   51     -0.07      2.04
   -3    8   51     -7.61      2.43
   -2    7   51      1.66      1.69
   -1    6   51     -9.82      2.82
    0    5   51      3.78      1.99
   -5   10   51      0.65      1.34
   -5   11   51     -5.74     -1.14
   -4   10   51      5.54      5.26
   -3    9   51      0.08     -3.88
   -2    8   51     -1.82      3.55
   -1    7   51      8.78     -4.98
    0    6   51     -5.86     -0.56
   -6   12   51      0.57     -5.18
   -6   13   51    -14.26      7.69
   -5   12   51      0.88     -6.13
   -4   11   51      2.80     -4.16
   -3   10   51     -0.57      1.52
   -2    9   51      1.52      2.11
   -1    8   51     -3.09     -2.69
    0    7   51     -2.39     -0.13
   -5   13   51      3.73      5.11
   -4   12   51      3.52     11.64
   -3   11   51      0.45     -6.09
   -2   10   51     -4.25     -2.37
   -1    9   51     -0.28      2.89
    0    8   51      9.96      1.10
   -3   12   51     -3.91     -2.20
   -2   11   51      2.26     -0.59
   -1   10   51     -2.65     -0.30
    0    9   51     -1.93     -1.22
   -2   12   51      2.43     -1.26
   -1   11   51      1.59      3.96
    0   10   51      3.99      0.39
    0   11   51     -3.19     -1.22
    0    1   52     -0.37     -5.11
   -1    2   52     -1.92      3.91
   -1    3   52      3.59     -4.07
    0    2   52      7.06      0.81
   -2    4   52      2.57      3.33
   -2    5   52     -4.03     -2.89
   -1    4   52      1.22      6.39
    0    3   52     -1.44      1.71
   -3    6   52     -0.95     -1.51
   -3    7   52     -2.04      7.17
   -2    6   52     -3.02     -4.01
   -1    5   52      8.82     -9.24
    0    4   52     -3.89     -1.51
   -4    8   52     -2.69     -3.22
   -4    9   52     -5.10      4.93
   -3    8   52     -3.12     -2.94
   -2    7   52      1.85      1.08
   -1    6   52     -3.87      7.16
    0    5   52     -5.02     -0.35
   -5   10   52      2.19      4.94
   -5   11   52      1.73      4.12
   -4   10   52      4.49     -3.03
   -3    9   52     -4.90     -1.95
   -2    8   52     -0.70      0.04
   -1    7   52      1.00      2.65
    0    6   52      5.29     -0.85
   -6   12   52      0.46      0.16
   -6   13   52     -1.46     -0.02
   -5   12   52      3.35     -5.73
   -4   11   52      1.50      1.48
   -3   10   52     -2.27     -3.41
   -2    9   52      5.55      2.46
   -1    8   52      0.39      0.35
    0    7   52      1.42     -0.02
   -5   13   52      0.76     -1.22
   -4   12   52     -0.30     -3.15
   -3   11   52     -8.15      3.79
   -2   10   52     -0.54     -0.63
   -1    9   52      1.57     -2.26
    0    8   52     -3.51      0.49
   -3   12   52     -2.16     -1.40
   -2   11   52      5.98      5.45
   -1   10   52     -2.45     -2.25
    0    9   52     -0.27      1.21
   -2   12   52      2.31      0.85
   -1   11   52     11.19     -2.24
    0   10   52     -5.83     -1.11
    0   11   52     -2.92     -2.63
    0    1   53      0.37     -0.53
   -1    2   53      1.68      3.02
   -1    3   53     -2.46      9.35
    0    2   53      3.45     -1.79
   -2    4   53      2.17      0.34
   -2    5   53     -2.68      1.22
   -1    4   53      1.74     -3.03
    0    3   53     -6.74      0.36
   -3    6   53      3.50      2.71
   -3    7   53     -1.85     -1.77
   -2    6   53     -1.46      1.87
   -1    5   53     -4.86      2.88
    0    4   53      5.48     -0.24
   -4    8   53     -1.86     -0.05
   -4    9   53      1.07     -2.39
   -3    8   53      3.11      3.88
   -2    7   53     -1.93     -2.85
   -1    6   53      5.93     -0.75
    0    5   53     -3.29      0.74
   -5   10   53     -0.22      4.16
   -5   11   53      0.48     -8.43
   -4   10   53     -3.79     -3.48
   -3    9   53      1.64     -3.32
   -2    8   53     -1.12      5.39
   -1    7   53     -1.49     -0.89
    0    6   53     -2.79      0.65
   -6   12   53      7.00      3.23
   -6   13   53     -3.15     -5.89
   -5   12   53     -3.82      2.07
   -4   11   53      7.98      2.84
   -3   10   53     -0.95      0.61
   -2    9   53     -1.02     -1.04
   -1    8   53      0.74      1.38
    0    7   53      7.63     -0.36
   -5   13   53      4.05      1.40
   -4   12   53     -3.10     -2.68
   -3   11   53     -0.11      2.61
   -2   10   53      1.27      0.04
   -1    9   53      0.41     -0.14
    0    8   53     -2.86      1.45
   -3   12   53     -3.35      1.77
   -2   11   53     -2.47     -2.46
   -1   10   53     -0.84      2.88
    0    9   53      2.29     -1.12
   -2   12   53     -1.13     -0.33
   -1   11   53     -0.18      1.58
    0   10   53     -0.01     -0.14
    0   11   53     -3.11     -0.11
    0    0   54    -25.81     -2.11
    0    1   54     12.37      2.67
   -1    2   54     -4.50     -0.48
   -1    3   54     10.63    -10.59
    0    2   54    -15.24     -2.00
   -2    4   54    -15.11      1.51
   -2    5   54      5.16     -5.14
   -1    4   54     -3.06     11.98
    0    3   54      5.15     -0.12
   -3    6   54     -1.47      0.96
   -3    7   54     -5.65     -7.21
   -2    6   54      5.63      4.76
   -1    5   54     -5.05     -4.08
    0    4   54     -2.12     -0.59
   -4    8   54      6.76     -0.24
   -4    9   54     -4.43      0.20
   -3    8   54      2.57      0.75
   -2    7   54     -0.76     -2.45
   -1    6   54      5.17     -1.39
    0    5   54      3.25     -0.74
   -5   10   54      6.61      1.54
   -5   11   54     -0.46      3.98
   -4   10   54      3.47     -3.37
   -3    9   54     -1.86     -6.23
   -2    8   54     -2.57      3.83
   -1    7   54     -5.21      1.49
    0    6   54      0.90     -1.10
   -6   12   54     -2.76      0.92
   -6   13   54      0.81     -1.32
   -5   12   54     -3.83      0.44
   -4   11   54      6.57     -0.63
   -3   10   54     -6.61      4.23
   -2    9   54      5.31      1.59
   -1    8   54     -1.33     -3.99
    0    7   54      2.72      0.38
   -4   12   54     -6.78     -1.93
   -3   11   54     -1.58      3.46
   -2   10   54      5.40     -6.72
   -1    9   54     -3.62     12.44
    0    8   54      1.41      0.33
   -3   12   54     -2.82     -4.59
   -2   11   54     -2.32      2.56
   -1   10   54      2.28     -2.13
    0    9   54      1.70      1.28
   -2   12   54      1.61     -2.16
   -1   11   54      0.98      0.62
    0   10   54     -1.58      0.17
    0   11   54      5.49     -0.96
    0    1   55      3.71      0.40
   -1    2   55      0.29      1.30
   -1    3   55      2.06      3.31
    0    2   55     -6.60     -2.30
   -2    4   55     -2.76      1.62
   -2    5   55      2.07     -5.34
   -1    4   55     -0.24      1.37
    0    3   55      1.56      1.29
   -3    6   55      0.22     -0.96
   -3    7   55     -1.09      1.21
   -2    6   55     -1.49      8.26
   -1    5   55     -0.51      0.69
    0    4   55      1.06      1.54
   -4    8   55     -1.13      2.12
   -4    9   55     -0.67      0.14
   -3    8   55     -2.02     -7.35
   -2    7   55      2.92      1.13
   -1    6   55      0.56      0.07
    0    5   55      6.37     -1.11
   -5   10   55      2.35     -2.19
   -5   11   55     -0.81      0.43
   -4   10   55      1.31     -4.50
   -3    9   55     -0.75     -2.02
   -2    8   55      3.45     11.00
   -1    7   55     -0.45     -9.64
    0    6   55     -3.36      1.21
   -6   12   55     -7.25      4.08
   -6   13   55      2.80     -5.29
   -5   12   55      2.99     -2.23
   -4   11   55     -1.59      9.27
   -3   10   55     -2.53      2.49
   -2    9   55      4.13     -7.03
   -1    8   55     -5.80     -0.82
    0    7   55      0.54     -0.42
   -4   12   55      1.86     -4.44
   -3   11   55     -4.66     -4.22
   -2   10   55      1.45      0.51
   -1    9   55     -2.71      3.24
    0    8   55      2.02     -0.53
   -3   12   55      2.98     -4.48
   -2   11   55     -3.23      4.60
   -1   10   55      4.75      5.31
    0    9   55      4.84     -0.79
   -2   12   55     -1.51     -1.37
   -1   11   55      1.36     -3.38
    0   10   55     -6.04      2.32
    0   11   55     -5.60     -3.91
    0    1   56     -3.37     -0.79
   -1    2   56      2.25      1.11
   -1    3   56     -0.99     -2.46
    0    2   56     11.31      2.03
   -2    4   56      0.66      0.33
   -2    5   56     -6.03     -2.96
   -1    4   56      2.30      2.77
    0    3   56     -4.39     -2.56
   -3    6   56     -2.84      4.26
   -3    7   56     -0.26     -1.28
   -2    6   56      6.57      4.63
   -1    5   56     -2.93      0.81
    0    4   56     10.63     -0.97
   -4    8   56     -2.03      3.46
   -4    9   56      0.31      1.19
   -3    8   56     -1.28     -2.17
   -2    7   56     -7.01     -9.09
   -1    6   56      3.32      5.22
    0    5   56     -8.70     -0.78
   -5   10   56     -1.09      1.31
   -5   11   56      4.55     -2.89
   -4   10   56     -2.34      0.11
   -3    9   56      1.18     -5.12
   -2    8   56     -1.53      3.95
   -1    7   56      1.30     -0.48
    0    6   56      1.82      0.12
   -6   12   56     -1.58     -0.01
   -5   12   56      5.61      8.48
   -4   11   56      2.34     -3.24
   -3   10   56    -11.17     -3.24
   -2    9   56      3.66      4.89
   -1    8   56      3.78      5.02
    0    7   56     -1.70      0.45
   -4   12   56     -1.89      1.23
   -3   11   56      0.35      3.38
   -2   10   56     10.76     -2.20
   -1    9   56     -6.84     -7.30
    0    8   56      6.21      1.29
   -3   12   56     -6.60     -5.58
   -2   11   56      0.58     -3.52
   -1   10   56      2.33      6.82
    0    9   56     -5.29      1.55
   -2   12   56      1.48     10.90
   -1   11   56      1.26     -3.14
    0   10   56     -1.33     -2.98
    0   11   56    -10.29      1.84
    0    1   57      0.79     -4.56
   -1    2   57     -0.42      1.58
   -1    3   57      0.34      4.33
    0    2   57      4.53      2.43
   -2    4   57     -1.14     -8.26
   -2    5   57      0.22      5.35
   -1    4   57      7.26     -1.46
    0    3   57    -11.30     -0.80
   -3    6   57     -1.21     -3.72
   -3    7   57     -4.86      1.68
   -2    6   57      2.05     -3.69
   -1    5   57     -6.98      6.00
    0    4   57      2.35      0.28
   -4    8   57     -0.44     -8.58
   -4    9   57     -5.50      3.14
   -3    8   57      5.34      0.33
   -2    7   57     -0.41      6.56
   -1    6   57      1.53     -4.76
    0    5   57      6.12     -0.85
   -5   10   57     -0.38     -2.54
   -5   11   57      2.01     -1.55
   -4   10   57      4.33      5.04
   -3    9   57     -1.51     -0.05
   -2    8   57     -0.70     -8.68
   -1    7   57     -2.21      0.98
    0    6   57      2.35      0.76
   -6   12   57     -2.66     -6.28
   -5   12   57      1.61      4.79
   -4   11   57     -1.28     -6.01
   -3   10   57      1.34      0.19
   -2    9   57      1.74      3.94
   -1    8   57     -0.12      1.39
    0    7   57     -0.15      0.24
   -4   12   57      0.47      1.58
   -3   11   57     -7.06     -1.85
   -2   10   57     -2.94      0.94
   -1    9   57      1.25      2.57
    0    8   57     -1.70     -0.46
   -3   12   57      7.66      3.28
   -2   11   57      7.20     -7.58
   -1   10   57      1.40      3.04
    0    9   57     -3.26      0.34
   -2   12   57     -6.70     -0.52
   -1   11   57     -4.26      5.60
    0   10   57      4.66     -0.57
    0   11   57      0.51     -0.25
    0    1   58     -2.15      0.52
   -1    2   58     -1.70      0.16
   -1    3   58      3.01      1.98
    0    2   58      2.70     -0.64
   -2    4   58     -2.55     -4.62
   -2    5   58     -3.20      0.38
   -1    4   58     -2.21      6.58
    0    3   58     -1.13     -0.91
   -3    6   58      0.80     -4.32
   -3    7   58     -1.85      3.47
   -2    6   58      5.17     -5.19
   -1    5   58      1.31     -0.40
    0    4   58      6.52     -1.67
   -4    8   58      0.05     -0.11
   -4    9   58      4.06     -0.99
   -3    8   58      0.22      0.13
   -2    7   58     -5.26      5.62
   -1    6   58     -4.34     -1.24
    0    5   58     -2.18      0.15
   -5   10   58     -2.76     -4.11
   -5   11   58      6.64      3.63
   -4   10   58     -0.88     -2.86
   -3    9   58      3.99     -3.29
   -2    8   58      0.32      1.35
   -1    7   58      4.15      1.44
    0    6   58      1.41      0.41
   -6   12   58     -1.04      0.06
   -5   12   58      2.82      6.18
   -4   11   58     -1.42     -6.31
   -3   10   58     -7.24      4.39
   -2    9   58      6.18      2.19
   -1    8   58     -5.88     -3.14
    0    7   58      2.68      0.63
   -4   12   58     -2.68      4.90
   -3   11   58      0.25     -4.35
   -2   10   58      0.54    -10.18
   -1    9   58     -1.64      6.12
    0    8   58      0.97      0.46
   -3   12   58      0.01      6.31
   -2   11   58      2.29      0.83
   -1   10   58     -2.35      3.51
    0    9   58      2.41     -0.67
   -1   11   58      0.06     -1.85
    0   10   58     -0.65      1.53
    0   11   58      2.17      2.26
    0    1   59      1.16     -2.30
   -1    2   59     -7.36     -2.20
   -1    3   59      1.29      3.07
    0    2   59      6.60      0.68
   -2    4   59     -2.46     -2.45
   -2    5   59      0.06     -4.13
   -1    4   59      0.81      4.48
    0    3   59     -0.73      0.45
   -3    6   59      4.09      2.54
   -3    7   59     -0.11     -4.88
   -2    6   59     -1.54      1.16
   -1    5   59      2.48     -0.47
    0    4   59     -4.91     -1.89
   -4    8   59      1.81      3.49
   -4    9   59     -1.17     -0.27
   -3    8   59     -4.96     -4.16
   -2    7   59      2.83      4.23
   -1    6   59     -8.35     -0.78
    0    5   59      3.91      0.75
   -5   10   59      4.03      3.48
   -5   11   59     -2.40      4.05
   -4   10   59     -1.37      0.69
   -3    9   59     -0.74     -0.16
   -2    8   59      6.89      8.14
   -1    7   59     -5.76      0.81
    0    6   59     11.98     -0.41
   -6   12   59      1.44     -0.35
   -5   12   59     -2.57     -6.57
   -4   11   59      3.36     -0.33
   -3   10   59      0.27     -4.82
   -2    9   59     -1.51     -0.57
   -1    8   59      3.42     -3.18
    0    7   59     -0.28     -0.09
   -4   12   59     -2.18     -1.19
   -3   11   59      1.91      2.33
   -2   10   59      2.35     -1.10
   -1    9   59     -1.82      2.86
    0    8   59      1.89      1.84
   -3   12   59     -5.02      2.39
   -2   11   59     -1.79     -0.35
   -1   10   59     -0.68     -1.07
    0    9   59     -5.60      1.18
   -1   11   59      6.01      7.43
    0   10   59      2.53     -8.24
    0   11   59     -8.32      1.00
    0    0   60     -3.63     -0.58
    0    1   60      4.53     -0.50
   -1    2   60      1.19      0.01
   -1    3   60     -6.44     10.72
    0    2   60      3.36      0.99
   -2    4   60      4.76      0.97
   -2    5   60     -1.05      3.46
   -1    4   60     -0.52     -4.98
    0    3   60      3.24     -0.34
   -3    6   60      1.41      0.47
   -3    7   60     -1.12      0.44
   -2    6   60      0.11     -4.89
   -1    5   60      1.02      6.09
    0    4   60     -0.89     -1.75
   -4    8   60     -1.02     -0.24
   -4    9   60     -1.94     -3.35
   -3    8   60      2.02     -1.71
   -2    7   60     -0.99      2.47
   -1    6   60      3.50     -3.11
    0    5   60     -1.30     -1.14
   -5   10   60     -0.87      0.42
   -5   11   60      1.70      1.34
   -4   10   60      2.59      3.63
   -3    9   60     -1.80     -4.17
   -2    8   60      2.33     -3.26
   -1    7   60      0.65      3.65
    0    6   60      0.72      1.02
   -6   12   60      1.31      1.19
   -5   12   60      6.89      1.17
   -4   11   60     -8.17      0.96
   -3   10   60     -0.13     -1.34
   -2    9   60     -0.89      4.60
   -1    8   60     -4.07     -0.30
    0    7   60     -2.35      0.77
   -4   12   60     -5.88     -0.96
   -3   11   60      1.10     -2.34
   -2   10   60      0.70      2.31
   -1    9   60     -0.66      4.76
    0    8   60     10.70     -1.23
   -3   12   60     -3.35      1.24
   -2   11   60      4.37     -5.03
   -1   10   60      4.81     -1.02
    0    9   60     -8.91      2.88
   -1   11   60     -5.09      3.06
    0   10   60     -4.41     -0.79
    0    1   61      0.46     -0.69
   -1    2   61      0.47      1.49
   -1    3   61     -0.43      2.77
    0    2   61      0.13      0.37
   -2    4   61     -1.43     -0.82
   -2    5   61     -2.17     -1.85
   -1    4   61      2.35     -1.57
    0    3   61      2.53     -0.80
   -3    6   61     -2.16      0.96
   -3    7   61      5.36     -0.67
   -2    6   61     -1.22     -3.07
   -1    5   61      5.34      5.18
    0    4   61     -9.31     -0.13
   -4    8   61     -2.89      2.77
   -4    9   61      0.78     -2.84
   -3    8   61     -6.81      0.46
   -2    7   61     -0.14     -0.27
   -1    6   61     -8.82      1.79
    0    5   61      9.58     -0.04
   -5   10   61      0.35      0.91
   -5   11   61     -0.22      6.47
   -4   10   61      3.11      0.40
   -3    9   61      1.37     -2.27
   -2    8   61      2.31     -1.11
   -1    7   61      4.44     -0.15
    0    6   61      2.58      1.15
   -6   12   61     12.88     -5.52
   -5   12   61     -3.46      3.34
   -4   11   61     -6.90      5.30
   -3   10   61     -0.77     -2.06
   -2    9   61      2.97     -2.47
   -1    8   61     -2.57      7.06
    0    7   61     -3.08      0.34
   -4   12   61      2.47     -6.09
   -3   11   61     -3.75      0.01
   -2   10   61      3.65     -6.28
   -1    9   61      1.18      2.04
    0    8   61     -1.32      0.59
   -3   12   61     -0.37      2.46
   -2   11   61     -1.85      2.45
   -1   10   61      0.25      6.76
    0    9   61     -2.16     -1.85
   -1   11   61     -2.64     -0.69
    0   10   61     -0.70      0.32
    0    1   62      5.31      2.24
   -1    2   62     -6.99      9.00
   -1    3   62     -0.80     -4.64
    0    2   62      5.82     -1.60
   -2    4   62      0.79      1.68
   -2    5   62      3.02      0.62
   -1    4   62      3.87      2.49
    0    3   62      1.39     -0.68
   -3    6   62      1.19     -1.78
   -3    7   62      4.22      7.57
   -2    6   62     -9.42     -0.62
   -1    5   62      2.05      4.06
    0    4   62     -5.55      0.05
   -4    8   62      5.51     -7.63
   -4    9   62      1.89      3.30
   -3    8   62      0.27     -2.27
   -2    7   62      3.18     -2.85
   -1    6   62     -1.92     -3.06
    0    5   62      3.95     -0.66
   -5   10   62      1.42     -2.54
   -5   11   62      1.61      3.19
   -4   10   62     -4.67      2.27
   -3    9   62      0.56     -0.82
   -2    8   62     -5.23      0.19
   -1    7   62      2.57      2.59
    0    6   62     -2.71      0.13
   -6   12   62      0.37     -2.21
   -5   12   62      7.95      0.14
   -4   11   62     -6.72     -5.17
   -3   10   62     -1.06     -0.23
   -2    9   62      3.97     -4.69
   -1    8   62     -1.22      7.59
    0    7   62     -0.08     -0.18
   -4   12   62      5.41      2.48
   -3   11   62      2.06      0.09
   -2   10   62      3.31      0.70
   -1    9   62     -0.51      2.00
    0    8   62     -2.15      0.33
   -2   11   62     -1.94     -0.57
   -1   10   62     -4.44      1.63
    0    9   62      9.74      1.17
   -1   11   62     -0.18      0.59
    0   10   62     -2.29      0.28
    0    1   63      7.64     -0.56
   -1    2   63      0.65     -1.89
   -1    3   63    -13.92     -0.13
    0    2   63      2.03      0.01
   -2    4   63     -0.24     -0.48
   -2    5   63      0.25     -5.49
   -1    4   63      3.46      5.63
    0    3   63      3.62     -0.70
   -3    6   63     -0.09      4.29
   -3    7   63     -0.75     -2.84
   -2    6   63     -6.41      4.06
   -1    5   63     -2.69      0.69
    0    4   63      4.27      0.89
   -4    8   63      0.01      7.13
   -4    9   63     -3.01     -2.19
   -3    8   63      6.19     -3.38
   -2    7   63     -0.15      0.91
   -1    6   63      4.88      1.62
    0    5   63      0.75     -0.27
   -5   10   63      0.54      1.51
   -5   11   63     -5.70     -1.13
   -4   10   63     -0.54     -2.56
   -3    9   63     -4.32     -3.47
   -2    8   63      0.71     -3.34
   -1    7   63     -2.74     -0.99
    0    6   63     -1.68      0.21
   -6   12   63      0.22     -2.57
   -5   12   63      1.02      6.80
   -4   11   63      3.92      1.50
   -3   10   63     -0.82      1.98
   -2    9   63      2.83      6.79
   -1    8   63     -0.06      1.82
    0    7   63      4.92     -0.90
   -4   12   63     -1.77      2.41
   -3   11   63      0.08     -1.71
   -2   10   63     -1.08     -1.31
   -1    9   63      0.78      2.52
    0    8   63     -6.39     -0.07
   -2   11   63      0.37     -0.33
   -1   10   63      2.01      0.63
    0    9   63      0.58     -0.52
   -1   11   63      1.97     -1.01
    0   10   63     -9.40     -2.06
    0    1   64     -4.67      0.01
   -1    2   64      4.29      5.26
   -1    3   64     -4.58      6.32
    0    2   64      3.36     -0.56
   -2    4   64      2.24      3.98
   -2    5   64      0.84     -4.61
   -1    4   64      1.99     -6.03
    0    3   64     -1.26     -0.54
   -3    6   64      0.14     -2.62
   -3    7   64      1.23      0.89
   -2    6   64     -1.78      0.96
   -1    5   64     -1.36      6.33
    0    4   64      1.68     -0.79
   -4    8   64     -2.65     -3.71
   -4    9   64      2.80      2.90
   -3    8   64      0.17      0.74
   -2    7   64      1.35     -0.60
   -1    6   64      0.17     -1.82
    0    5   64     -1.06     -0.79
   -5   10   64     -1.88     -3.45
   -5   11   64     -1.00      3.46
   -4   10   64     -0.05     -1.59
   -3    9   64      3.50     -0.81
   -2    8   64     -2.25      0.92
   -1    7   64     -2.26      4.18
    0    6   64      4.11     -0.14
   -6   12   64      1.34      1.99
   -5   12   64      2.48      1.10
   -4   11   64     -6.79      0.97
   -3   10   64      1.15     -2.70
   -2    9   64      0.89     -1.01
   -1    8   64     -0.24     -1.60
    0    7   64      1.45     -0.29
   -4   12   64     -0.67      1.55
   -3   11   64     -1.72     -2.38
   -2   10   64      3.02      0.22
   -1    9   64     -2.29      3.22
    0    8   64     -0.09      1.01
   -2   11   64     -0.56     -1.73
   -1   10   64      1.58      2.89
    0    9   64     -0.96     -2.34
   -1   11   64     -0.60     -0.97
    0   10   64     -1.98      2.58
    0    1   65      7.80      2.34
   -1    2   65     -5.56     -3.92
   -1    3   65      6.62     -6.03
    0    2   65     -5.35     -0.96
   -2    4   65     -1.72      0.43
   -2    5   65      5.43     -3.10
   -1    4   65     -5.25      5.83
    0    3   65      5.13      1.91
   -3    6   65     -2.58     -2.23
   -3    7   65      4.66      1.91
   -2    6   65     -6.68      1.49
   -1    5   65      3.14     -1.71
    0    4   65     -7.19      1.18
   -4    8   65     -6.51     -2.44
   -4    9   65      0.17      1.99
   -3    8   65      3.91     -4.95
   -2    7   65     -4.95     -1.48
   -1    6   65      4.54      2.29
    0    5   65      1.92     -0.82
   -5   10   65      6.36      2.28
   -5   11   65      0.45      5.95
   -4   10   65     -3.35      2.44
   -3    9   65     -2.46      2.63
   -2    8   65      3.30     -0.19
   -1    7   65     -1.84      2.79
    0    6   65      0.46      1.26
   -6   12   65     -0.96     -0.60
   -5   12   65     -3.60      1.02
   -4   11   65     -0.48     -1.06
   -3   10   65     -0.34     -4.73
   -2    9   65     -0.92     -8.05
   -1    8   65      1.47      8.05
    0    7   65     -0.47     -1.02
   -3   11   65      3.04      3.38
   -2   10   65      0.72     -3.03
   -1    9   65     -1.68      4.32
    0    8   65     -0.67     -1.10
   -2   11   65      3.26     -0.65
   -1   10   65      2.96      3.97
    0    9   65     -2.70      0.72
    0   10   65      2.69      1.43
    0    0   66     16.89     -0.67
    0    1   66     -5.76     -0.63
   -1    2   66      1.91     -1.67
   -1    3   66     -3.24      3.85
    0    2   66      8.67      1.08
   -2    4   66      3.50      1.19
   -2    5   66     -5.08      0.25
   -1    4   66      0.58      1.85
    0    3   66     -4.92      0.86
   -3    6   66      1.37     -0.06
   -3    7   66      4.11     -0.14
   -2    6   66      2.31     -0.16
   -1    5   66      0.98     -1.22
    0    4   66      1.79     -0.91
   -4    8   66     -3.00     -0.60
   -4    9   66      0.07      1.82
   -3    8   66     -4.53     -1.10
   -2    7   66      0.14      2.37
   -1    6   66     -2.29      2.24
    0    5   66      0.31      0.80
   -5   10   66     -3.96     -0.43
   -5   11   66      4.88     -5.98
   -4   10   66     -1.71      3.95
   -3    9   66      0.46     -1.85
   -2    8   66      2.26     -4.34
   -1    7   66      2.16      2.89
    0    6   66      1.25      0.74
   -6   12   66     -0.96      0.44
   -5   12   66     -0.36     -2.32
   -4   11   66     -3.03      3.25
   -3   10   66      2.72     -2.18
   -2    9   66      3.00     -3.05
   -1    8   66      3.00      5.96
    0    7   66     -2.86     -0.39
   -3   11   66     -3.88     -0.91
   -2   10   66     -2.53      3.35
   -1    9   66     -5.41     -4.06
    0    8   66     -1.83     -0.25
   -2   11   66      0.87     -0.92
   -1   10   66      4.12      7.78
    0    9   66      0.08     -1.46
    0   10   66     -3.12      1.12
    0    1   67     -4.75      1.61
   -1    2   67      5.42     -5.17
   -1    3   67     -7.26    -10.74
    0    2   67     -2.35      1.68
   -2    4   67      5.17     -3.46
   -2    5   67     -3.85     -2.42
   -1    4   67     -2.68      3.79
    0    3   67      4.14     -1.09
   -3    6   67      2.24     -1.16
   -3    7   67     -1.10     -6.97
   -2    6   67     -3.47      1.15
   -1    5   67      3.07      2.24
    0    4   67      6.58      0.18
   -4    8   67      1.14     -1.57
   -4    9   67     -2.95      2.42
   -3    8   67      1.14      2.49
   -2    7   67     -2.20     -4.38
   -1    6   67      4.59      3.19
    0    5   67     -9.36     -0.05
   -5   10   67      3.59     -1.46
   -5   11   67     -0.02      1.85
   -4   10   67     -1.96      0.99
   -3    9   67      3.58      1.63
   -2    8   67      1.99     -0.28
   -1    7   67     -3.73      8.07
    0    6   67      9.07     -1.78
   -4   11   67      1.34     -0.46
   -3   10   67     -3.77     -4.93
   -2    9   67     -1.46      1.86
   -1    8   67      1.24     -0.07
    0    7   67     -7.33      1.29
   -3   11   67      2.39      0.08
   -2   10   67      2.27      3.96
   -1    9   67      0.34     -4.10
    0    8   67      0.96      0.86
   -2   11   67     -2.44     -1.20
   -1   10   67      0.73      1.55
    0    9   67      0.54     -3.33
    0   10   67     -1.59      0.00
    0    1   68     -1.56     -0.12
   -1    2   68     -5.98      5.47
   -1    3   68      3.01      4.64
    0    2   68     -3.51     -0.72
   -2    4   68      0.64     -1.29
   -2    5   68      2.54      4.87
   -1    4   68      6.88      0.33
    0    3   68     10.14     -0.01
   -3    6   68     -3.23      5.58
   -3    7   68     -2.84     -3.48
   -2    6   68      2.93     -2.20
   -1    5   68     -3.52     -1.12
    0    4   68    -12.35      0.97
   -4    8   68      1.14     -2.89
   -4    9   68      1.74     -2.66
   -3    8   68     -2.78      1.01
   -2    7   68      3.70      2.74
   -1    6   68     -2.87     -3.84
    0    5   68      7.26     -1.76
   -5   10   68     -0.96      0.90
   -5   11   68     -3.69      0.72
   -4   10   68     -6.24      2.65
   -3    9   68      2.00      1.72
   -2    8   68      2.37     -3.60
   -1    7   68     -0.48      2.67
    0    6   68     -3.24      1.02
   -4   11   68      2.88      0.56
   -3   10   68      3.49     -2.89
   -2    9   68     -1.20      1.59
   -1    8   68     -4.10      3.26
    0    7   68      2.53     -2.00
   -3   11   68      1.86      2.76
   -2   10   68     -2.75     -4.74
   -1    9   68      0.15      6.24
    0    8   68      2.41      0.00
   -2   11   68      0.83     -1.87
   -1   10   68      2.46     -2.16
    0    9   68      2.05      0.06
    0   10   68      0.18      0.39
    0    1   69      4.55      0.58
   -1    2   69      0.87      4.09
   -1    3   69      0.12     -1.18
    0    2   69     -5.00      0.37
   -2    4   69      1.45      6.02
   -2    5   69     -1.93     -3.74
   -1    4   69     -3.29      1.14
    0    3   69      0.79     -0.14
   -3    6   69     -1.41      5.33
   -3    7   69      7.75     -3.17
   -2    6   69     -3.10      0.22
   -1    5   69      3.10     -2.75
    0    4   69      3.85      1.15
   -4    8   69      0.06      7.56
   -4    9   69      0.02     -0.70
   -3    8   69      0.13     -2.65
   -2    7   69     -2.89      0.39
   -1    6   69     -2.29      4.68
    0    5   69     -0.45      0.71
   -5   10   69     -0.37     -0.08
   -5   11   69      0.22      2.11
   -4   10   69     -0.75     -3.97
   -3    9   69     -4.54      1.33
   -2    8   69      2.33     -2.00
   -1    7   69      0.56     -0.94
    0    6   69      2.72      0.20
   -4   11   69     -6.22      5.10
   -3   10   69      1.77     -1.65
   -2    9   69     -0.48     -0.10
   -1    8   69      1.52      2.97
    0    7   69     -1.40     -0.24
   -3   11   69      7.71     -2.09
   -2   10   69     -0.70     -4.59
   -1    9   69     -0.58      7.04
    0    8   69      3.15     -0.62
   -2   11   69     -4.50     -1.64
   -1   10   69     -2.84     -0.29
    0    9   69     -0.86      0.99
    0   10   69     -3.44      0.17
    0    1   70      5.09      2.48
   -1    2   70      0.01     -1.74
   -1    3   70     -0.44      4.22
    0    2   70     -1.91      0.76
   -2    4   70     -1.18      3.58
   -2    5   70      3.86     -2.63
   -1    4   70      5.83     -3.25
    0    3   70     -3.41      0.91
   -3    6   70     -0.89     -1.95
   -3    7   70      1.34     -5.34
   -2    6   70     -4.18      5.19
   -1    5   70     -1.51      3.47
    0    4   70     -6.92      0.57
   -4    8   70      1.96      0.79
   -4    9   70      0.06      5.47
   -3    8   70     -1.28     -1.88
   -2    7   70      4.54     -1.83
   -1    6   70     -2.72     -4.83
    0    5   70      8.06      0.48
   -5   10   70     -1.17     -7.95
   -5   11   70     -4.57      0.92
   -4   10   70     -1.54      3.40
   -3    9   70     -3.70      2.46
   -2    8   70      4.13     -3.13
   -1    7   70     -2.56      3.02
    0    6   70      0.93     -0.21
   -4   11   70      3.16      2.81
   -3   10   70     -3.20     -0.37
   -2    9   70     -2.95     -2.51
   -1    8   70      2.34      9.72
    0    7   70     -1.18      0.11
   -3   11   70      4.90     -1.59
   -2   10   70     10.18     -0.66
   -1    9   70      0.65     -1.75
    0    8   70     -2.70      0.05
   -1   10   70      0.46     -2.17
    0    9   70     -5.61     -0.37
    0   10   70     -0.13     -0.76
    0    1   71     -3.48      0.48
   -1    2   71      6.04      2.51
   -1    3   71      0.41     -6.31
    0    2   71      1.70      2.22
   -2    4   71      6.90      2.34
   -2    5   71     -1.69      0.61
   -1    4   71     -0.92     -6.65
    0    3   71     -2.27     -1.04
   -3    6   71      2.27      1.13
   -3    7   71     -0.91     -3.17
   -2    6   71      1.69     -0.44
   -1    5   71     -4.39      7.56
    0    4   71     -0.33      1.26
   -4    8   71      1.70      0.23
   -4    9   71      0.86      1.78
   -3    8   71     -1.49      0.74
   -2    7   71     -0.65      5.04
   -1    6   71      5.42     -1.52
    0    5   71      1.19     -0.33
   -5   10   71      2.36      0.96
   -5   11   71      2.24     -1.88
   -4   10   71     -0.69     -1.02
   -3    9   71     -3.74     -1.34
   -2    8   71      1.70     -8.35
   -1    7   71     -3.19      4.90
    0    6   71     -5.76     -0.63
   -4   11   71     -2.49     -1.05
   -3   10   71      3.11     -0.66
   -2    9   71      2.05      5.10
   -1    8   71     -1.15     -2.11
    0    7   71      6.86      0.54
   -3   11   71      0.63     -0.50
   -2   10   71      0.31      0.48
   -1    9   71     -3.85     -1.80
    0    8   71      1.90     -1.16
   -1   10   71      1.00      1.51
    0    9   71     -0.63     -0.29
    0    0   72     -4.72      0.66
    0    1   72      2.22      0.52
   -1    2   72     -2.04      0.49
   -1    3   72      1.24     -1.71
    0    2   72      2.07     -1.39
   -2    4   72     -4.59     -1.37
   -2    5   72      3.30     -2.46
   -1    4   72     -5.29      9.57
    0    3   72     -1.95     -1.13
   -3    6   72     -6.14      0.24
   -3    7   72     -1.96      3.29
   -2    6   72      1.83     -2.52
   -1    5   72      2.24      0.66
    0    4   72      6.83      0.45
   -4    8   72     -0.54      0.94
   -4    9   72     -1.79     -0.29
   -3    8   72     -0.35      2.04
   -2    7   72      5.11      0.39
   -1    6   72     -1.34      3.75
    0    5   72     -4.45      0.84
   -5   10   72      3.76      1.21
   -5   11   72     -3.15     -3.58
   -4   10   72      0.34     -1.49
   -3    9   72     -0.44     -1.43
   -2    8   72      1.46      2.35
   -1    7   72     -0.66     -2.22
    0    6   72     -0.21     -0.62
   -4   11   72      1.63     -1.81
   -3   10   72      5.11      4.41
   -2    9   72      0.40     -6.97
   -1    8   72     -2.45      1.16
    0    7   72      2.35      0.30
   -3   11   72     -5.74      0.04
   -2   10   72     -1.53     -3.77
   -1    9   72      1.24      1.15
    0    8   72     -2.64     -0.60
   -1   10   72     -6.70      7.12
    0    9   72      6.04     -0.58
    0    1   73     -4.74     -0.36
   -1    2   73      2.48      1.73
   -1    3   73     -0.22      1.08
    0    2   73     -1.08     -2.01
   -2    4   73      4.30     -2.45
   -2    5   73      0.29      8.13
   -1    4   73     -4.36     -4.34
    0    3   73      1.81      1.15
   -3    6   73      3.97     -2.19
   -3    7   73     -2.86      1.74
   -2    6   73      0.22     -1.63
   -1    5   73     -0.39     -3.74
    0    4   73      4.57      1.81
   -4    8   73     -0.14     -3.91
   -4    9   73      2.42      3.83
   -3    8   73      1.95      0.11
   -2    7   73      1.38     -1.05
   -1    6   73      0.28      0.91
    0    5   73      0.68     -0.66
   -5   10   73     -1.66      0.30
   -5   11   73      3.48     -2.74
   -4   10   73     -4.35      3.77
   -3    9   73      2.56     -1.06
   -2    8   73     -3.31      0.67
   -1    7   73     -3.87      2.54
    0    6   73      6.86     -0.91
   -4   11   73      0.53     -1.59
   -3   10   73     -1.36      0.15
   -2    9   73      1.53     -1.70
   -1    8   73     -0.84      0.67
    0    7   73     -1.92     -0.03
   -2   10   73     -2.71      1.50
   -1    9   73      2.19     -0.72
    0    8   73     -0.73     -0.03
   -1   10   73     -0.10      1.24
    0    9   73      6.71      0.65
    0    1   74     -7.25      0.26
   -1    2   74     -1.85      0.57
   -1    3   74     -1.05     -1.18
    0    2   74     -3.91      0.83
   -2    4   74      0.13     -1.22
   -2    5   74      2.69      5.10
   -1    4   74      1.07      1.81
    0    3   74      2.46      0.76
   -3    6   74     -0.88      0.95
   -3    7   74      0.33     -3.05
   -2    6   74      2.30      1.83
   -1    5   74     -0.21     -6.86
    0    4   74      5.23      0.84
   -4    8   74     -5.21      7.11
   -4    9   74     -1.67     -5.03
   -3    8   74     -1.38     -1.64
   -2    7   74      1.14      3.25
   -1    6   74      2.12      3.87
    0    5   74     -4.38     -0.02
   -5   10   74     -1.89      3.92
   -5   11   74     -2.14     -7.22
   -4   10   74      2.95      3.99
   -3    9   74     -1.61      1.28
   -2    8   74      0.82     -3.09
   -1    7   74     -2.63     -2.03
    0    6   74     -1.79     -0.55
   -4   11   74     -1.94     -0.52
   -3   10   74     -1.03      1.57
   -2    9   74      4.80     -6.83
   -1    8   74     -0.07      1.75
    0    7   74     -2.42      1.96
   -2   10   74     -2.28      9.04
   -1    9   74      1.19      2.27
    0    8   74      1.71     -0.14
   -1   10   74      0.80     -5.22
    0    9   74     -3.65     -0.93
    0    1   75    -21.61      0.40
   -1    2   75     -0.43     -2.94
   -1    3   75      3.74      3.80
    0    2   75      2.74     -1.16
   -2    4   75      0.57      3.37
   -2    5   75      1.99      4.99
   -1    4   75     -3.07     -0.60
    0    3   75      2.12      0.75
   -3    6   75      0.84     -7.29
   -3    7   75     -0.57      2.62
   -2    6   75      3.68     -3.29
   -1    5   75     -4.89     -2.97
    0    4   75     -1.58      1.11
   -4    8   75     -0.33      0.49
   -4    9   75     -0.67      1.57
   -3    8   75     -5.87     -0.03
   -2    7   75     -0.15     -1.61
   -1    6   75     -2.71     -0.27
    0    5   75      8.87     -2.16
   -5   10   75     -0.40     -2.90
   -5   11   75      4.42      1.28
   -4   10   75     -1.93     -2.50
   -3    9   75      3.71      1.69
   -2    8   75      0.68     -0.46
   -1    7   75      6.66      2.51
    0    6   75     -4.75      1.85
   -3   10   75     -3.78     -0.85
   -2    9   75      6.61      1.44
   -1    8   75     -9.48     -1.86
    0    7   75      2.20      0.09
   -2   10   75     -0.24      2.46
   -1    9   75     -3.59     -0.62
    0    8   75      8.10     -0.95
   -1   10   75     -2.79     -1.74
    0    9   75      5.84      0.25
    0    1   76      1.12     -1.22
   -1    2   76      0.81      1.32
   -1    3   76     -4.64      4.59
    0    2   76      7.54      1.03
   -2    4   76     -1.57     -2.87
   -2    5   76      1.38     -1.84
   -1    4   76     -0.64      7.07
    0    3   76      0.83     -2.65
   -3    6   76      1.11      2.29
   -3    7   76      1.24     -1.20
   -2    6   76      2.61     -2.01
   -1    5   76      1.54     -0.48
    0    4   76     -4.00      0.53
   -4    8   76     -0.68     -3.97
   -4    9   76     -6.59      0.51
   -3    8   76     -0.84      4.67
   -2    7   76     -0.87     -5.50
   -1    6   76     -0.08      2.23
    0    5   76     -1.22      0.15
   -5   10   76     -0.74     -0.13
   -4   10   76     -3.02     -1.62
   -3    9   76      2.83      0.73
   -2    8   76      2.47      2.08
   -1    7   76     -1.54      2.22
    0    6   76      0.93     -0.72
   -3   10   76     -0.08     -1.88
   -2    9   76     -0.55      2.79
   -1    8   76      0.61     -1.12
    0    7   76     -1.53      0.44
   -2   10   76     -1.13     -3.30
   -1    9   76     -0.08      1.05
    0    8   76     -0.44     -0.47
    0    9   76      4.12     -0.13
    0    1   77     -5.40     -0.81
   -1    2   77      2.94      2.81
   -1    3   77     -2.40      4.21
    0    2   77      4.46      0.05
   -2    4   77     -2.09     -0.77
   -2    5   77     -0.52      0.09
   -1    4   77      1.98     -2.95
    0    3   77      1.34     -1.17
   -3    6   77     -6.43     -3.92
   -3    7   77     -0.18      1.03
   -2    6   77      3.59      8.37
   -1    5   77      0.36     -4.26
    0    4   77     -0.43     -1.67
   -4    8   77     -1.12      0.52
   -4    9   77     -0.66     -0.36
   -3    8   77     -0.31      5.08
   -2    7   77      3.76     -2.37
   -1    6   77     -5.39     -0.84
    0    5   77     -2.21      4.17
   -5   10   77     -3.71      4.21
   -4   10   77      4.38     -1.00
   -3    9   77     -4.71     -2.21
   -2    8   77     -0.32     -0.65
   -1    7   77      0.58     -0.99
    0    6   77      3.90     -3.74
   -3   10   77      2.29      1.34
   -2    9   77     -0.76     -0.60
   -1    8   77      1.85     -0.76
    0    7   77     -1.56      0.72
   -2   10   77      0.90      4.29
   -1    9   77     -2.53     -2.28
    0    8   77      2.42      0.22
    0    9   77     -2.90      0.44
    0    0   78    -12.47      0.91
    0    1   78      4.43     -1.86
   -1    2   78     -4.75      0.83
   -1    3   78     -1.68     -5.72
    0    2   78      3.62      0.82
   -2    4   78      8.18     -0.28
   -2    5   78     -3.19      4.37
   -1    4   78     -0.05     -1.84
    0    3   78     -3.61      0.24
   -3    6   78      1.18     -0.38
   -3    7   78     -2.96     -1.36
   -2    6   78     -0.78      3.03
   -1    5   78      4.72     -0.63
    0    4   78     -6.15      0.06
   -4    8   78     -7.96      1.28
   -4    9   78      0.06      1.77
   -3    8   78      4.45     -0.22
   -2    7   78      1.24     -0.67
   -1    6   78     -1.33      1.76
    0    5   78      0.28     -1.45
   -5   10   78     -0.09     -3.49
   -4   10   78      5.56     -1.54
   -3    9   78     -2.81      5.44
   -2    8   78      0.28     -1.08
   -1    7   78      1.65     -1.13
    0    6   78      2.46      0.87
   -3   10   78      3.06     -4.02
   -2    9   78     -1.29     -2.43
   -1    8   78      1.23     -0.12
    0    7   78     -3.10     -0.84
   -2   10   78      2.73     -0.70
   -1    9   78     -4.21      1.46
    0    8   78      2.21      0.03
    0    9   78      3.57      0.06
    0    1   79     -8.97     -1.11
   -1    2   79      3.10     -1.29
   -1    3   79     -3.07      3.74
    0    2   79     -0.27      0.90
   -2    4   79      3.15     -1.50
   -2    5   79     -0.19      1.42
   -1    4   79     -4.16     -2.18
    0    3   79     10.57      0.64
   -3    6   79      0.11     -1.61
   -3    7   79     -2.56      5.23
   -2    6   79     -2.39      0.71
   -1    5   79      1.86     -4.27
    0    4   79      4.13     -0.12
   -4    8   79     -4.28      2.76
   -4    9   79      1.55     -4.32
   -3    8   79      4.83     -2.01
   -2    7   79      4.72     -4.42
   -1    6   79      0.98      1.40
    0    5   79     -0.24      0.69
   -5   10   79     -1.28     -0.15
   -4   10   79      1.38      5.78
   -3    9   79     -2.90     -1.11
   -2    8   79     -2.20      6.04
   -1    7   79     -2.71     -1.48
    0    6   79     -5.42      0.08
   -3   10   79     -1.70      3.24
   -2    9   79      2.96     -3.08
   -1    8   79     -1.88     -0.50
    0    7   79      8.12     -0.89
   -1    9   79     -3.54     -5.17
    0    8   79     -0.71      0.73
    0    9   79      2.57     -0.11
    0    1   80     -5.25     -2.01
   -1    2   80     -0.16      4.01
   -1    3   80     -8.43     -2.67
    0    2   80      5.89      0.33
   -2    4   80      2.48     -2.94
   -2    5   80     -1.20     -3.97
   -1    4   80     -0.88      7.77
    0    3   80      3.78      1.55
   -3    6   80     -2.01     -0.76
   -3    7   80      3.59      4.63
   -2    6   80      3.95      0.32
   -1    5   80      1.37      2.24
    0    4   80      4.22     -6.93
   -4    8   80     -2.37      2.90
   -4    9   80     -7.17     -3.56
   -3    8   80      6.37     -1.24
   -2    7   80     -4.41      0.42
   -1    6   80      2.09      1.38
    0    5   80     -3.93      1.26
   -5   10   80      0.26      0.82
   -4   10   80      0.81     -0.49
   -3    9   80     -0.88      1.68
   -2    8   80      2.54     -4.28
   -1    7   80     -1.48      0.45
    0    6   80     -7.69      0.38
   -3   10   80     -3.76      0.31
   -2    9   80     -0.67      1.59
   -1    8   80     -0.99     -0.12
    0    7   80      7.31     -0.03
   -1    9   80      0.44     -4.26
    0    8   80     -1.49     -0.16
    0    9   80     -0.56      0.70
    0    1   81     -7.97      1.21
   -1    2   81     -1.34     -2.90
   -1    3   81     -2.03      1.29
    0    2   81      3.98     -1.86
   -2    4   81     -0.68     -1.60
   -2    5   81      5.45      3.72
   -1    4   81      4.39      0.93
    0    3   81     -7.02      0.96
   -3    6   81      0.10     -0.39
   -3    7   81     -3.44     -1.27
   -2    6   81     -2.87      0.17
   -1    5   81     -1.95     -0.68
    0    4   81      3.17      0.70
   -4    8   81     -0.47     -2.65
   -4    9   81     -2.59      2.26
   -3    8   81     -3.65      1.00
   -2    7   81     -1.09      0.83
   -1    6   81      4.60     -4.93
    0    5   81     -3.29     -1.29
   -5   10   81      0.19     -3.08
   -4   10   81      1.66     -0.54
   -3    9   81      5.30      1.42
   -2    8   81      3.93      0.09
   -1    7   81     -2.31      0.41
    0    6   81      0.72      0.13
   -3   10   81     -2.45      0.11
   -2    9   81     -1.16      1.06
   -1    8   81      1.46     -2.43
    0    7   81     -2.98      0.05
   -1    9   81     -1.38     -1.26
    0    8   81      0.25     -0.19
    0    1   82     13.74      0.72
   -1    2   82     -1.83      0.73
   -1    3   82      4.58     -0.30
    0    2   82     -4.60     -0.75
   -2    4   82      2.14      2.89
   -2    5   82      1.47      3.30
   -1    4   82     -1.62     -7.58
    0    3   82     -2.06      0.01
   -3    6   82     -0.14     -0.35
   -3    7   82      3.68     -4.61
   -2    6   82      3.43     -1.92
   -1    5   82     -2.63     -0.25
    0    4   82      2.84      0.33
   -4    8   82      0.84      2.22
   -4    9   82     -0.66     -6.61
   -3    8   82      0.47      5.38
   -2    7   82     -2.94     -0.23
   -1    6   82      5.64      0.56
    0    5   82     -6.56     -0.94
   -5   10   82      1.41      2.14
   -4   10   82     -3.60     -3.83
   -3    9   82      0.47      2.77
   -2    8   82     -1.22     -0.32
   -1    7   82     -3.01      2.48
    0    6   82     -1.03     -1.10
   -2    9   82      1.15      0.88
   -1    8   82     -0.74     -1.32
    0    7   82      3.84      0.12
   -1    9   82     -0.83     -1.09
    0    8   82      1.95     -0.35
    0    1   83     10.16      0.42
   -1    2   83     -2.82     -2.74
   -1    3   83     -1.50      1.51
    0    2   83      0.07     -0.76
   -2    4   83     -2.31     -0.71
   -2    5   83      0.62     -0.01
   -1    4   83     -5.87      1.30
    0    3   83      8.29      0.31
   -3    6   83      2.60      1.53
   -3    7   83      0.21     -0.65
   -2    6   83      1.69     -4.42
   -1    5   83     -3.04     -3.29
    0    4   83      6.82      0.16
   -4    8   83     -4.60     -3.88
   -4    9   83     -2.76      7.54
   -3    8   83      2.58      3.65
   -2    7   83      0.09      5.42
   -1    6   83     -0.02      3.32
    0    5   83      2.09      1.06
   -3    9   83     -2.76     -0.15
   -2    8   83     -0.56     -3.24
   -1    7   83      2.04     -8.75
    0    6   83     -4.73     -0.03
   -2    9   83      0.17     -0.09
   -1    8   83     -1.97      2.98
    0    7   83      0.36      0.13
   -1    9   83      0.79     -0.51
    0    8   83      6.55     -0.56
    0    0   84     -8.93     -2.15
    0    1   84     -0.96      1.17
   -1    2   84      3.04     -0.60
   -1    3   84     -1.26      5.15
    0    2   84      1.70      0.09
   -2    4   84      6.26     -0.73
   -2    5   84     -1.47     -1.38
   -1    4   84     -0.75     -1.97
    0    3   84     -1.95     -3.22
   -3    6   84      0.55     -0.68
   -3    7   84     -0.29      1.38
   -2    6   84      1.59      1.07
   -1    5   84     -4.46      3.83
    0    4   84      2.20     -1.10
   -4    8   84     -3.88      1.50
   -4    9   84     -0.72     -2.73
   -3    8   84     -2.24      0.38
   -2    7   84      2.34     -1.83
   -1    6   84      0.64      0.69
    0    5   84      1.72     -1.20
   -3    9   84      2.53      0.95
   -2    8   84      0.62     -1.39
   -1    7   84     -0.12     -0.44
    0    6   84      1.70      0.16
   -2    9   84      0.76      2.21
   -1    8   84     -0.86      1.16
    0    7   84     -1.68      0.01
    0    8   84     -2.22      0.59
    0    1   85     -2.26      0.33
   -1    2   85     -3.78     -1.06
   -1    3   85      0.35      2.59
    0    2   85     -0.17      1.48
   -2    4   85     -1.07     -0.50
   -2    5   85     -2.87     -7.26
   -1    4   85      6.73      0.00
    0    3   85     -0.59     -0.03
   -3    6   85     -5.85      3.57
   -3    7   85      0.05      0.39
   -2    6   85      0.97      6.49
   -1    5   85     -0.16     -1.99
    0    4   85     -5.03     -0.54
   -4    8   85     -1.70     -2.37
   -4    9   85      3.19     -3.43
   -3    8   85     -2.66      0.18
   -2    7   85      2.90     -0.19
   -1    6   85      0.87     -2.32
    0    5   85     -0.43      0.02
   -3    9   85     -1.73      1.16
   -2    8   85      3.99     -3.16
   -1    7   85     -3.09      4.44
    0    6   85      0.56      2.35
   -2    9   85     -2.48      1.37
   -1    8   85      1.21     -5.20
    0    7   85      2.44     -1.07
    0    8   85     -2.24      0.11
    0    1   86     13.83      1.02
   -1    2   86     -3.34      5.91
   -1    3   86      2.81     -0.01
    0    2   86      2.81      0.44
   -2    4   86      0.19      1.18
   -2    5   86      4.27      4.36
   -1    4   86      2.52      0.41
    0    3   86     -2.36     -0.30
   -3    6   86     -0.63     -0.41
   -3    7   86      7.77      8.09
   -2    6   86     -1.62     -3.09
   -1    5   86      1.26      0.71
    0    4   86     -8.77     -0.50
   -4    8   86      0.03     -2.39
   -4    9   86      4.35      5.16
   -3    8   86      2.21     -1.22
   -2    7   86     -1.75     -3.19
   -1    6   86     -2.39      0.49
    0    5   86      3.67     -0.07
   -3    9   86     -2.16      1.37
   -2    8   86     -0.06     -0.15
   -1    7   86      2.24      1.67
    0    6   86     -4.01      0.08
   -2    9   86     -0.14      1.13
   -1    8   86      0.19     -4.18
    0    7   86      2.13     -0.18
    0    8   86     -1.05     -0.02
    0    1   87     11.13      1.21
   -1    2   87     -0.09      2.62
   -1    3   87     -4.72     -1.08
    0    2   87      2.18     -0.32
   -2    4   87     -0.07      1.23
   -2    5   87     -0.17     -0.23
   -1    4   87     -4.23     -1.04
    0    3   87      4.86      0.13
   -3    6   87      1.17      1.00
   -3    7   87      2.95      3.62
   -2    6   87      2.39     -0.76
   -1    5   87      2.37      1.60
    0    4   87      6.46     -0.47
   -4    8   87     -0.21     -2.58
   -4    9   87     -2.91     -1.03
   -3    8   87     -5.42      1.05
   -2    7   87     -3.26     -5.19
   -1    6   87     -4.71      0.65
    0    5   87     -0.44      1.00
   -3    9   87      3.96      0.22
   -2    8   87      3.81      4.98
   -1    7   87      0.44     -3.88
    0    6   87      3.78     -0.35
   -1    8   87     -0.24     -3.20
    0    7   87     -0.71      0.47
    0    8   87     -1.95      0.02
    0    1   88     -6.11     -0.81
   -1    2   88      1.10      2.54
   -1    3   88      0.00     -0.35
    0    2   88     -4.77     -0.42
   -2    4   88      1.45      2.26
   -2    5   88      2.89     -4.51
   -1    4   88     -1.59     -1.56
    0    3   88      3.45      0.16
   -3    6   88      1.94      2.68
   -3    7   88      1.67     -0.06
   -2    6   88     -1.68     -4.18
   -1    5   88     -2.10      6.59
    0    4   88      5.37     -1.12
   -4    8   88      0.79     -1.35
   -4    9   88      0.99      0.89
   -3    8   88     -0.11     -2.15
   -2    7   88      1.79      0.73
   -1    6   88     -2.29     -0.40
    0    5   88      2.29     -0.89
   -3    9   88     -5.08      2.69
   -2    8   88      4.53     -0.82
   -1    7   88      0.73      4.91
    0    6   88     -1.96      0.34
   -1    8   88     -1.46     -2.36
    0    7   88     -1.56     -0.69
    0    1   89      7.38      1.30
   -1    2   89      1.66      0.47
   -1    3   89      3.30     -1.53
    0    2   89     -5.22     -0.92
   -2    4   89     -1.12     -1.12
   -2    5   89     -2.39      1.74
   -1    4   89     -3.09      0.29
    0    3   89      1.25     -0.32
   -3    6   89      7.49      4.16
   -3    7   89     -4.90      0.58
   -2    6   89      3.23     -6.03
   -1    5   89     -0.72      1.83
    0    4   89     -3.18      0.08
   -4    8   89      0.58      0.11
   -3    8   89     -4.08      0.57
   -2    7   89      4.14      3.67
   -1    6   89      0.60     -1.17
    0    5   89     -0.06      0.04
   -2    8   89     -2.13     -2.97
   -1    7   89      0.21      0.48
    0    6   89     -0.10      0.91
   -1    8   89     -2.63      0.28
    0    7   89      3.72      0.07
    0    0   90     34.20      0.49
    0    1   90     -8.41      0.59
   -1    2   90      3.85      0.48
   -1    3   90      2.03      2.97
    0    2   90     -3.36      0.27
   -2    4   90      2.87      0.78
   -2    5   90     -3.06     -5.94
   -1    4   90     -0.49      3.15
    0    3   90     -2.45      0.02
   -3    6   90      0.96      1.78
   -3    7   90      0.08      2.83
   -2    6   90      1.23     -0.93
   -1    5   90      2.18     -0.61
    0    4   90      0.33      0.07
   -4    8   90     -7.14     -1.70
   -3    8   90      2.99      0.27
   -2    7   90      2.04     -1.89
   -1    6   90     -1.47      3.06
    0    5   90     -3.57      0.75
   -2    8   90     -2.56      1.36
   -1    7   90      0.85     -2.53
    0    6   90      2.78     -0.53
   -1    8   90      0.71      1.05
    0    7   90     -3.53     -0.05
    0    1   91      3.52     -0.45
   -1    2   91     -2.51      0.66
   -1    3   91     -1.99     -2.13
    0    2   91      1.57     -0.15
   -2    4   91     -1.00      1.61
   -2    5   91      3.19     -3.21
   -1    4   91      0.57      0.12
    0    3   91     -0.07     -1.43
   -3    6   91     -1.21      1.53
   -3    7   91      0.26      0.34
   -2    6   91     -3.06     -0.83
   -1    5   91     -3.06      2.66
    0    4   91      2.01      0.63
   -4    8   91     -0.92      1.56
   -3    8   91      3.69      1.92
   -2    7   91      1.73      1.14
   -1    6   91     -0.79      0.24
    0    5   91      0.54      0.62
   -2    8   91      0.67      0.09
   -1    7   91     -0.70     -2.63
    0    6   91      5.39      0.10
    0    7   91      0.85     -0.04
    0    1   92     -0.32      1.02
   -1    2   92      1.79     -5.71
   -1    3   92      2.63      1.84
    0    2   92     -3.58      0.11
   -2    4   92      3.13     -6.78
   -2    5   92     -1.47     -0.04
   -1    4   92     -0.61      2.03
    0    3   92      2.21     -2.46
   -3    6   92     -3.69      4.03
   -3    7   92      2.09     -1.70
   -2    6   92     -0.34     -3.20
   -1    5   92     -0.22      3.39
    0    4   92     -3.78      2.37
   -4    8   92     -5.68      7.38
   -3    8   92     -0.67     -3.06
   -2    7   92      3.66     -3.50
   -1    6   92     -3.01      7.43
    0    5   92      5.28     -0.49
   -2    8   92     -0.92      4.47
   -1    7   92     -2.13     -3.32
    0    6   92     -0.16     -1.14
    0    7   92      4.32      0.53
    0    1   93     -1.12     -1.31
   -1    2   93      0.32      4.68
   -1    3   93      3.94      0.19
    0    2   93     -2.49      0.08
   -2    4   93      0.76      3.88
   -2    5   93     -0.71      1.15
   -1    4   93     -5.07      0.94
    0    3   93      4.29     -1.90
   -3    6   93      0.29     -2.01
   -3    7   93      1.56      0.96
   -2    6   93      0.54     -0.99
   -1    5   93      7.03     -1.53
    0    4   93     -3.14      0.47
   -4    8   93      1.00     -0.46
   -3    8   93     -5.99      3.40
   -2    7   93      5.67     -1.01
   -1    6   93     -3.34     -2.75
    0    5   93     -2.49     -0.05
   -1    7   93     -3.18     -0.51
    0    6   93     -0.19     -0.20
    0    7   93     -1.73     -1.25
    0    1   94      3.63     -1.22
   -1    2   94      1.64     -0.17
   -1    3   94     -0.63     -0.03
    0    2   94     -3.95      1.16
   -2    4   94     -0.50     -1.23
   -2    5   94      6.63     -4.63
   -1    4   94      1.28      1.41
    0    3   94     -1.42     -0.32
   -3    6   94      0.09     -0.28
   -3    7   94      3.32     -1.91
   -2    6   94     -1.74     -1.21
   -1    5   94      0.91      5.10
    0    4   94     -0.27     -0.65
   -4    8   94     -2.62     -4.87
   -2    7   94     -2.73      0.53
   -1    6   94     -0.89      0.36
    0    5   94      0.74      0.08
   -1    7   94      0.58     -3.02
    0    6   94     -2.13      1.21
    0    1   95     -3.73     -0.33
   -1    2   95      2.07      0.54
   -1    3   95      0.07      0.12
    0    2   95     -0.79     -0.62
   -2    4   95      2.83      1.09
   -2    5   95     -2.27      0.40
   -1    4   95      0.39      0.92
    0    3   95      2.60      0.21
   -3    6   95      2.30      1.32
   -3    7   95      0.66     -2.49
   -2    6   95      1.07      1.38
   -1    5   95     -0.62     -2.70
    0    4   95     -4.14     -0.83
   -2    7   95     -2.16      1.44
   -1    6   95      1.01     -1.49
    0    5   95     -2.41     -0.14
   -1    7   95     -7.06      2.05
    0    6   95     10.83     -0.43
    0    0   96      3.49     -2.68
    0    1   96      1.18      0.38
   -1    2   96      1.88     -0.73
   -1    3   96      0.50     -1.54
    0    2   96     -2.27      0.29
   -2    4   96     -0.03      0.61
   -2    5   96     -0.20     -6.65
   -1    4   96     -0.99      4.71
    0    3   96     -1.96      1.09
   -3    6   96     -0.64      1.00
   -3    7   96     -2.42     -4.48
   -2    6   96      2.50     -1.03
   -1    5   96      0.82      2.89
    0    4   96     -3.16      0.12
   -2    7   96     -2.78      1.94
   -1    6   96      0.06      0.49
    0    5   96      1.05     -0.49
   -1    7   96      0.79     -0.66
    0    6   96      4.80     -0.66
    0    1   97     -2.64     -2.07
   -1    2   97      7.18      4.34
   -1    3   97     -3.15     -3.02
    0    2   97      0.74     -3.26
   -2    4   97     -0.08      1.06
   -2    5   97      1.70      0.53
   -1    4   97      0.42      0.48
    0    3   97     -3.41     -0.20
   -3    6   97      0.10      0.52
   -3    7   97     -3.55     -2.15
   -2    6   97      4.04      4.26
   -1    5   97     -1.54     -2.69
    0    4   97      3.22      1.09
   -2    7   97     -3.13      0.76
   -1    6   97     -0.50     -1.05
    0    5   97      1.42      0.08
    0    6   97     -9.60     -2.03
    0    1   98     -0.74     -2.07
   -1    2   98      0.69      3.06
   -1    3   98      1.77      0.40
    0    2   98      1.29     -0.27
   -2    4   98      1.04     -2.73
   -2    5   98      4.72     -1.18
   -1    4   98     -1.87      1.64
    0    3   98     -4.26     -0.39
   -3    6   98     -1.82      2.92
   -3    7   98      0.47      1.95
   -2    6   98      1.32     -0.03
   -1    5   98     -2.52     -1.24
    0    4   98      2.60     -0.27
   -1    6   98      1.98      0.90
    0    5   98     -1.72      0.94
    0    6   98      3.43     -0.55
    0    1   99     -1.10     -1.25
   -1    2   99     -0.53      1.09
   -1    3   99      0.38     -2.05
    0    2   99     -1.01      0.24
   -2    4   99      0.53      2.62
   -2    5   99     -1.95      4.46
   -1    4   99     -0.05      0.55
    0    3   99      0.01     -1.05
   -3    6   99     -0.09     -4.73
   -2    6   99     -0.33      1.69
   -1    5   99     -0.12     -3.08
    0    4   99      1.41      0.85
   -1    6   99     -1.58     -4.57
    0    5   99     -1.04      0.54
    0    1  100     -1.03     -1.09
   -1    2  100      1.22      2.51
   -1    3  100     -0.46      3.34
    0    2  100     -0.32      0.00
   -2    4  100     -0.84     -2.44
   -2    5  100      3.12     -0.63
   -1    4  100      0.82      1.37
    0    3  100     -1.98     -1.35
   -3    6  100     -0.12     -2.60
   -2    6  100     -4.85     -0.56
   -1    5  100      2.61     -1.62
    0    4  100     -0.15      1.23
   -1    6  100     -1.12      0.65
    0    5  100      1.69     -0.56
    0    1  101     -2.15     -1.91
   -1    2  101     -1.48      2.20
   -1    3  101      0.32      2.08
    0    2  101      1.01     -2.15
   -2    4  101      2.86      1.12
   -2    5  101      0.70      0.56
   -1    4  101      0.73     -3.73
    0    3  101     -1.83      0.22
   -3    6  101     -0.44      0.20
   -2    6  101     -1.55      0.50
   -1    5  101     -0.24     -0.92
    0    4  101      1.06      0.59
    0    5  101     -1.05     -0.54
    0    0  102      1.18     -1.46
    0    1  102     -0.72      2.82
   -1    2  102      0.29     -0.86
   -1    3  102     -1.62      2.38
    0    2  102      1.90     -4.02
   -2    4  102      2.25     -0.47
   -2    5  102     -0.33      1.14
   -1    4  102     -1.39     -0.30
    0    3  102      2.18      0.57
   -3    6  102     -4.65     -0.31
   -1    5  102     -2.83      0.84
    0    4  102      1.58      0.89
    0    5  102     -2.39     -0.48
    0    1  103      0.33      0.00
   -1    2  103     -1.42      1.08
   -1    3  103      0.86      2.26
    0    2  103      0.82     -0.63
   -2    4  103     -3.93      1.22
   -2    5  103      2.98      3.33
   -1    4  103     -1.69     -5.56
    0    3  103     -1.79      0.34
   -1    5  103      0.51     -1.19
    0    4  103      2.22      0.14
    0    1  104     -4.22     -1.47
   -1    2  104     -0.82     -0.29
   -1    3  104     -2.83     -1.08
    0    2  104      1.13      0.28
   -2    4  104     -0.68     -0.24
   -2    5  104     -2.31     -1.96
   -1    4  104      1.97      2.32
    0    3  104      1.86      1.01
   -1    5  104     -2.41     -4.47
    0    4  104      1.09     -1.30
    0    1  105     -2.36     -5.68
   -1    2  105      0.61     -0.94
   -1    3  105     -0.57      0.61
    0    2  105     -0.99     -0.09
   -2    4  105      0.07     -0.73
   -1    4  105      5.09     -2.16
    0    3  105     -2.07      1.69
    0    4  105     -2.97     -0.14
    0    1  106      3.24     -0.80
   -1    2  106     -7.59     -1.87
   -1    3  106     -1.50      1.57
    0    2  106      5.57     -0.78
   -2    4  106     -1.70     -1.52
   -1    4  106      2.32     -0.98
    0    3  106      0.01      1.66
    0    4  106     -0.37     -0.51
    0    1  107      1.80     -0.30
   -1    2  107      0.58      2.28
   -1    3  107      2.22     -4.96
    0    2  107     -2.99     -0.75
   -2    4  107     -2.03     -0.42
   -1    4  107      1.14      2.48
    0    3  107     -0.17      0.04
    0    0  108     -4.09      1.13
    0    1  108      1.31      0.20
   -1    2  108     -1.85      1.14
   -1    3  108      0.06     -2.80
    0    2  108      0.58     -1.19
    0    3  108     -1.14      0.59
    0    1  109     -3.96     -0.82
   -1    2  109     -0.14     -0.51
   -1    3  109      2.55      2.31
    0    2  109     -1.97     -1.15
    0    1  110      5.73     -3.10
   -1    2  110     -0.78     -1.16
    0    2  110     -3.63      5.23
    0    1  111      5.40     -1.23
    0   10    0     14.36      0.68
    0   13    0     12.12     -0.54
   -2   14    0      3.10      0.06
   -1   14    0     -2.96      0.69
    0   14    0     -5.06      0.34
    0   13    1     -6.34     -2.96
   -2   14    1      6.49     -4.57
   -1   14    1      6.08     -6.90
    0   14    1      5.17      2.28
    0   13    2     12.70      1.12
   -2   14    2     -6.77      4.52
   -1   14    2     -0.25      5.08
    0   14    2      2.94      0.10
    0   13    3      1.52     -1.41
   -2   14    3      4.43      0.58
   -1   14    3      4.40      9.05
    0   14    3     -4.88     -0.16
    0   13    4      5.01      1.20
   -2   14    4      0.23      2.56
   -1   14    4      2.06     -0.93
    0   14    4      5.27      2.75
    0   13    5     13.65      1.30
   -2   14    5      2.77     -3.50
   -1   14    5     -7.44     -0.69
    0   14    5     -6.60      0.06
    0   13    6    -12.02     -0.64
   -2   14    6      0.24      1.30
   -1   14    6     -0.98     -0.58
    0   14    6      7.93      1.23
    0   13    7      0.81      0.29
   -2   14    7      1.97     -8.62
   -1   14    7     -5.21      0.05
    0   14    7     -4.15     -3.36
    0   13    8      2.39     -0.54
   -2   14    8     -2.48     -5.58
   -1   14    8     -2.37      5.49
    0   14    8     -5.05     -1.45
    0   13    9     -1.77      0.56
   -2   14    9      5.44      5.74
   -1   14    9     -0.41      1.53
    0   14    9     -0.39      0.87
    0   13   10      3.33     -0.20
   -2   14   10     -3.89     -1.16
   -1   14   10      1.23     -3.15
    0   14   10     -1.89     -2.06
    0   13   11     -4.94      1.48
   -2   14   11     -3.79      7.62
   -1   14   11      2.44      4.34
    0   14   11      4.49     -3.38
    0   13   12    -16.59      0.08
   -2   14   12      4.72     -0.10
   -1   14   12      0.07      0.87
    0   14   12      7.35      0.71
    0   13   13     -0.66     -2.71
   -2   14   13      2.06      5.97
   -1   14   13      0.44     -0.46
    0   14   13     -1.39      0.34
    0   13   14     -1.66     -1.58
   -2   14   14      2.43     -2.90
   -1   14   14     -1.57      0.81
    0   14   14     -1.53     -0.09
    0   13   15     -4.05      0.42
   -2   14   15     -7.41     -0.29
   -1   14   15      1.97     -0.72
    0   14   15      3.51      1.79
    0   13   16      1.60     -0.79
   -2   14   16     -3.72     -1.24
   -1   14   16     -2.34     -4.74
    0   14   16     -1.86     -0.05
    0   13   17     -3.99     -1.45
   -2   14   17     -2.83      1.29
   -1   14   17      1.58     -2.24
    0   14   17     -2.93      0.19
    0   13   18     13.06      0.27
   -2   14   18      3.16     -1.19
   -1   14   18     -2.92      1.09
    0   14   18     -0.22      0.51
    0   13   19     -5.08      0.30
   -2   14   19      1.46     -5.24
   -1   14   19      2.67     -1.11
    0   14   19      6.01      0.51
    0   13   20      0.41      1.14
   -3   14   20     -3.56     -1.10
   -2   14   20     -0.86      0.04
   -1   14   20      6.40      0.26
    0   14   20     -0.71     -0.16
    0   13   21     -0.23     -1.98
   -3   14   21     -1.52      0.21
   -2   14   21     -3.09     -2.30
   -1   14   21      2.91      6.59
    0   14   21      0.77      1.00
    0   13   22      2.81     -1.86
   -3   14   22     -2.56     -0.22
   -2   14   22      5.59     -4.94
   -1   14   22     -3.30      2.25
    0   14   22      3.03      1.93
    0   13   23     10.52     -0.11
   -3   14   23     -4.28     -0.64
   -2   14   23      1.74      0.36
   -1   14   23     -3.10      0.25
    0   14   23     -9.87      0.21
    0   13   24      8.07     -0.39
   -3   14   24     -3.82     -2.44
   -2   14   24     -1.15     -1.02
   -1   14   24      0.61      2.47
    0   14   24     -4.04      1.00
    0   13   25     -3.00     -0.78
   -3   14   25      3.98      1.10
   -2   14   25      4.80      0.84
   -1   14   25     -3.65     -2.65
    0   14   25     -0.02      0.40
    0   13   26      9.14      0.72
   -3   14   26     -0.81     -2.65
   -2   14   26      3.65      3.74
   -1   14   26     -2.95     -2.71
    0   14   26     -3.74     -1.88
    0   13   27     -4.52     -1.10
   -3   14   27      1.99      0.94
   -2   14   27      0.56     -0.46
   -1   14   27      0.20      5.47
    0   14   27      4.56     -0.37
    0   13   28    -13.04      2.18
   -3   14   28      2.57      0.43
   -2   14   28      2.84      2.29
   -1   14   28     -0.69      1.97
    0   14   28      4.42     -0.61
   -1   13   29      0.33      2.43
    0   13   29      7.62      0.94
   -3   14   29      3.54     -0.57
   -2   14   29      0.20     -1.33
   -1   14   29     -2.22      0.40
    0   14   29     -0.29     -1.27
   -1   13   30     -1.42     -7.68
    0   13   30     -7.85      0.14
   -4   14   30      4.77     -3.79
   -3   14   30     -1.45      2.81
   -2   14   30     -4.27     -0.50
   -1   14   30      4.68      3.47
    0   14   30      0.52     -0.57
   -1   13   31      5.33     -0.01
    0   13   31      2.45     -0.39
   -4   14   31      2.83     -1.26
   -3   14   31      1.27     -4.09
   -2   14   31     -1.38      0.92
   -1   14   31     -4.88      1.23
    0   14   31      0.52     -1.52
   -1   13   32      2.39      4.03
    0   13   32     -0.61     -1.27
   -4   14   32     -3.21      0.69
   -3   14   32      3.25      3.40
   -2   14   32     -0.32     -0.62
   -1   14   32     -0.14     -3.96
    0   14   32     -2.54     -0.21
   -1   13   33      2.47      1.88
    0   13   33     -0.83      1.98
   -4   14   33     -2.11     -0.91
   -3   14   33     -0.06     -0.72
   -2   14   33     -4.00      2.51
   -1   14   33      2.83      0.50
    0   14   33     -1.17     -0.50
   -1   13   34     10.24      4.07
    0   13   34    -10.26      0.35
   -4   14   34      5.42     -0.85
   -3   14   34      0.40      3.78
   -2   14   34     -3.98      0.90
   -1   14   34     -0.06     -6.33
    0   14   34      0.30     -0.73
   -1   13   35      3.92     -1.08
    0   13   35     -2.07     -1.06
   -4   14   35      3.99      2.98
   -3   14   35     -1.50     -0.52
   -2   14   35     -0.44      2.52
   -1   14   35     -0.56      3.04
    0   14   35      6.88     -1.48
   -1   13   36     -1.36     -1.67
    0   13   36      2.02      1.17
   -5   14   36      6.37      0.66
   -4   14   36      2.50     -3.43
   -3   14   36     -5.66      2.28
   -2   14   36      5.06      1.43
   -1   14   36     -0.72     -2.06
    0   14   36      1.32     -0.72
   -1   13   37      2.86      4.42
    0   13   37     -5.90     -2.56
   -5   14   37      6.24      1.35
   -4   14   37     -1.07      4.36
   -3   14   37     -1.89      1.22
   -2   14   37     -4.04     -5.04
   -1   14   37      5.30      1.29
    0   14   37      1.05     -0.18
   -1   13   38     -2.39      0.39
    0   13   38      3.12      1.12
   -5   14   38      0.27    -10.94
   -4   14   38      5.84     -2.13
   -3   14   38     -3.77      3.60
   -2   14   38     -1.10     -2.09
   -1   14   38      2.03     -2.90
    0   14   38     -1.65      0.05
   -1   13   39      5.32      5.92
    0   13   39     -5.39     -0.14
   -6   14   39     -1.80      6.53
   -5   14   39      0.46     -4.31
   -4   14   39     -0.85      0.08
   -3   14   39      4.14      1.67
   -2   14   39      0.15     -0.34
   -1   14   39     -4.40     -1.67
    0   14   39      6.36      0.32
   -2   13   40      4.83      1.34
   -1   13   40     -0.84     -5.20
    0   13   40     -1.73      0.39
   -7   14   40     -4.24     -6.21
   -6   14   40     -1.05     -5.44
   -5   14   40      1.75      2.90
   -4   14   40      2.76      0.62
   -3   14   40     -1.86     -2.13
   -2   14   40     -1.37      2.44
   -1   14   40      4.21     -2.04
    0   14   40     -3.39     -0.60
   -2   13   41     -1.60     -6.80
   -1   13   41     -0.29      6.02
    0   13   41      4.30     -3.11
   -7   14   41     -7.68     -4.57
   -6   14   41      0.20     -3.89
   -5   14   41      5.88     -0.97
   -4   14   41     -1.30      2.08
   -3   14   41      2.07     -2.22
   -2   14   41     -1.75     -1.94
   -1   14   41     -0.79      2.26
    0   14   41     -1.04      1.21
   -2   13   42      3.93      1.07
   -1   13   42     11.19      0.48
    0   13   42     -1.26     -0.39
   -7   14   42     -2.34     -1.51
   -6   14   42     -5.33      2.86
   -5   14   42      2.62      0.42
   -4   14   42     -3.29      0.92
   -3   14   42     -6.57      3.07
   -2   14   42     -1.70     -1.57
   -1   14   42     -0.62      2.08
    0   14   42     -2.22     -1.17
    0   12   43     -1.36     -1.31
   -2   13   43     -0.20      3.13
   -1   13   43      1.52      2.80
    0   13   43     -1.57      0.17
   -7   14   43      7.02     -3.78
   -6   14   43      2.44      1.11
   -5   14   43     -1.47     -5.06
   -4   14   43      1.18      4.28
   -3   14   43     -2.67     -2.26
   -2   14   43     -2.42     -2.24
   -1   14   43      5.49     -1.45
    0   14   43     -0.67      0.31
    0   12   44      2.93      0.00
   -2   13   44      2.55      0.97
   -1   13   44      2.63      3.73
    0   13   44     -5.70     -0.15
   -7   14   44     -1.09      2.25
   -6   14   44     -3.74      2.21
   -5   14   44      3.58      3.82
   -4   14   44     -0.88     -3.45
   -3   14   44      0.24     -0.65
   -2   14   44     -3.45     -1.19
   -1   14   44     -0.15     -2.85
    0   14   44      3.06      0.18
    0   12   45     -1.61     -0.72
   -2   13   45     -2.16      2.99
   -1   13   45      3.33     -1.89
    0   13   45     -2.77     -0.24
   -7   14   45     -0.17     -1.04
   -6   14   45     -4.23      3.11
   -5   14   45      6.54     -0.27
   -4   14   45     -3.65     -0.55
   -3   14   45     -1.03      1.17
   -2   14   45      0.18     -2.33
   -1   14   45     -1.23      5.49
    0   14   45      1.14     -0.09
    0   12   46    -10.33     -0.97
   -2   13   46     -1.59    -10.49
   -1   13   46     -3.14     -0.70
    0   13   46     -3.77     -0.62
   -7   14   46      0.91      0.97
   -6   14   46     -1.40     -0.54
   -5   14   46      2.74     -0.26
   -4   14   46      2.43      1.94
   -3   14   46     -2.35      1.31
   -2   14   46      3.95      4.63
   -1   14   46      3.19      1.40
    0   14   46      1.29     -0.05
    0   12   47      1.40     -0.58
   -3   13   47     -2.75     -5.20
   -2   13   47     -0.36     -3.58
   -1   13   47      5.18      1.67
    0   13   47     -5.71     -0.87
   -7   14   47     -1.23     -0.02
   -6   14   47     -1.93      2.51
   -5   14   47     -0.46      4.19
   -4   14   47     -3.13      0.00
   -3   14   47      2.35      1.50
   -2   14   47     -2.12     -1.76
   -1   14   47     -1.03      0.79
    0   14   47     -3.21     -0.27
    0   12   48     -1.57     -0.79
   -3   13   48     -0.17     -5.49
   -2   13   48      4.32      5.29
   -1   13   48     -0.51     -2.78
    0   13   48      3.57      0.79
   -7   14   48      2.34      0.65
   -6   14   48      3.65     -2.32
   -5   14   48     -1.18     -0.46
   -4   14   48     -1.69      1.04
   -3   14   48     -1.44      0.21
   -2   14   48     -0.93      0.83
   -1   14   48      0.99     -0.47
    0   14   48     -1.85     -0.35
    0   12   49     -1.27     -0.14
   -3   13   49     -0.84      2.09
   -2   13   49     -5.55      1.48
   -1   13   49      0.95      1.76
    0   13   49     -2.59      0.67
   -7   14   49     -1.76      1.27
   -6   14   49     -0.73      0.55
   -5   14   49      1.73     -1.68
   -4   14   49     -3.84     -2.60
   -3   14   49      4.06      0.08
   -2   14   49      3.46      1.53
   -1   14   49     -0.72     -2.65
    0   14   49      1.06     -0.37
    0   12   50     -5.22     -0.49
   -3   13   50     -2.06      0.21
   -2   13   50      1.18      2.51
   -1   13   50     -1.68      0.24
    0   13   50     -2.69     -0.28
   -7   14   50     -2.50      4.96
   -6   14   50      4.06     -2.21
   -5   14   50     -1.79      1.47
   -4   14   50     -0.90     -1.19
   -3   14   50      1.45     -1.08
   -2   14   50      0.32     -2.36
   -1   14   50      1.59      1.30
    0   14   50      0.28     -0.41
   -1   12   51      2.07      3.32
    0   12   51     -0.58      0.87
   -4   13   51     -4.40     -8.43
   -3   13   51     -1.45      1.42
   -2   13   51     -4.86     -1.08
   -1   13   51     -0.47      3.32
    0   13   51     -2.92      0.25
   -7   14   51      0.47     -8.59
   -6   14   51      3.82     -0.50
   -5   14   51      0.61      0.93
   -4   14   51      5.57      1.30
   -3   14   51     -1.16     -2.88
   -2   14   51      1.81      4.11
   -1   14   51      2.59     -0.95
    0   14   51     -1.86     -0.46
   -1   12   52     -7.18      1.22
    0   12   52      1.20     -1.02
   -4   13   52     -3.53      2.91
   -3   13   52      0.05     -2.49
   -2   13   52      0.24      0.44
   -1   13   52      1.39     -2.15
    0   13   52      0.13      1.42
   -7   14   52     -1.14     -2.60
   -6   14   52     -0.27      1.98
   -5   14   52      2.56      0.34
   -4   14   52     -0.35     -0.90
   -3   14   52     -1.09     -0.30
   -2   14   52     -0.23      1.68
   -1   14   52     -1.09      1.84
   -1   12   53      2.16     -3.72
    0   12   53     -3.90     -0.25
   -4   13   53      0.61     -1.71
   -3   13   53      7.28     -2.99
   -2   13   53      1.28      6.79
   -1   13   53      0.43     -2.02
    0   13   53      3.09      0.74
   -7   14   53      4.34      3.05
   -6   14   53     -2.10      3.59
   -5   14   53      0.50      1.55
   -4   14   53     -1.16     -1.19
   -3   14   53     -0.91     -1.47
   -2   14   53     -2.39      2.26
   -1   14   53     -0.09     -0.84
   -1   12   54     -6.13      1.48
    0   12   54     -2.42     -0.14
   -5   13   54      4.62      3.39
   -4   13   54      4.73     -2.56
   -3   13   54     -0.60      2.96
   -2   13   54     -1.31      1.52
   -1   13   54      6.27     -0.74
    0   13   54     -3.63      0.44
   -7   14   54     -0.76     -0.01
   -6   14   54      0.33      0.19
   -5   14   54     -1.56      0.50
   -4   14   54      0.81      1.44
   -3   14   54      3.71     -1.35
   -2   14   54     -1.88      0.94
   -1   14   54      0.41     -1.63
   -1   12   55      3.83      1.90
    0   12   55     -1.04      0.10
   -5   13   55     -0.29      2.21
   -4   13   55      3.70      3.10
   -3   13   55     -2.28      4.07
   -2   13   55      4.29      0.61
   -1   13   55     -4.92      4.16
    0   13   55      4.84     -0.27
   -7   14   55      2.99     -1.93
   -6   14   55     -6.18      1.38
   -5   14   55      0.79      1.90
   -4   14   55     -1.34     -3.88
   -3   14   55     -0.16     -0.63
   -2   14   55     -1.95     -1.58
   -1   14   55      1.40     -2.16
   -1   12   56      3.15     -3.57
    0   12   56      5.68     -0.43
   -6   13   56      0.60      5.54
   -5   13   56      3.25     -2.10
   -4   13   56     -3.97     -0.91
   -3   13   56     -0.39      2.50
   -2   13   56      4.27     -0.65
   -1   13   56     -2.58      0.03
    0   13   56     -2.96     -1.12
   -7   14   56      1.60     -3.81
   -6   14   56      0.02     -2.74
   -5   14   56     -0.09     -0.17
   -4   14   56      0.98      0.44
   -3   14   56     -0.71     -1.31
   -2   14   56     -0.80      0.28
   -1   14   56      2.57     -0.78
   -1   12   57     -0.12      0.19
    0   12   57     -1.68     -0.14
   -6   13   57      3.74      3.51
   -5   13   57     -5.67      3.30
   -4   13   57     -0.23     -1.58
   -3   13   57     -0.74     -3.57
   -2   13   57      2.30      4.85
   -1   13   57      0.31     -4.05
    0   13   57     -0.85      0.26
   -7   14   57     -1.44      3.26
   -6   14   57     -0.12     -3.51
   -5   14   57      0.06     -3.67
   -4   14   57      0.96     -0.75
   -3   14   57      0.29      1.37
   -2   14   57      0.40      1.52
   -1   14   57      0.55     -2.55
   -2   12   58      0.15      2.84
   -1   12   58      0.03      1.23
    0   12   58      4.79     -0.73
   -6   13   58     -3.45     -5.66
   -5   13   58     -0.30     -1.24
   -4   13   58      6.63     -6.33
   -3   13   58     -2.60     -0.19
   -2   13   58     -2.66      0.05
   -1   13   58     -1.92      0.29
    0   13   58      0.38     -0.32
   -7   14   58      3.48      5.26
   -6   14   58     -0.60     -0.93
   -5   14   58     -0.46      0.74
   -4   14   58     -1.80     -1.14
   -3   14   58      1.53     -1.25
   -2   14   58      0.42     -0.97
   -1   14   58      1.03      1.55
   -2   12   59      0.82      1.21
   -1   12   59     -3.74     -3.99
    0   12   59     -0.73      0.36
   -6   13   59      0.64      0.27
   -5   13   59      2.38      2.48
   -4   13   59      2.15     -0.45
   -3   13   59     -0.26     -3.30
   -2   13   59      1.52      2.05
   -1   13   59      3.21     -3.43
    0   13   59      2.60     -0.32
   -7   14   59      3.10      0.14
   -6   14   59     -1.03      0.64
   -5   14   59     -2.22     -1.73
   -4   14   59      3.10     -0.86
   -3   14   59     -0.63      2.75
   -2   14   59      0.38     -0.38
   -1   14   59     -2.35      2.44
    0   11   60      5.88     -0.74
   -2   12   60      4.01      2.31
   -1   12   60      2.05     -4.53
    0   12   60     -4.58      1.93
   -6   13   60      0.09     -0.31
   -5   13   60      3.46      1.61
   -4   13   60      3.73     -1.02
   -3   13   60     -1.19     -1.65
   -2   13   60     -1.48      1.16
   -1   13   60      1.14      0.48
    0   13   60      2.22     -1.23
   -7   14   60     -5.25      0.07
   -6   14   60     -2.29     -0.46
   -5   14   60      0.37      1.29
   -4   14   60     -0.50     -0.99
   -3   14   60     -0.31      2.12
   -2   14   60     -1.84     -2.15
   -1   14   60      0.99      0.52
    0   11   61      4.25      0.20
   -2   12   61      4.39     -1.33
   -1   12   61     -4.30      3.80
    0   12   61      2.10      0.10
   -6   13   61     -0.26      1.81
   -5   13   61      0.04     -6.55
   -4   13   61      2.90      2.40
   -3   13   61      5.95     -0.88
   -2   13   61     -3.34     -3.95
   -1   13   61      1.14     -1.94
    0   13   61     -1.19      0.58
   -7   14   61     -2.96      0.76
   -6   14   61      0.70     -1.19
   -5   14   61     -2.81      3.52
   -4   14   61     -1.07      1.97
   -3   14   61     -2.85     -1.60
   -2   14   61      0.18      2.52
    0   11   62     -0.07     -0.32
   -3   12   62      0.92     -1.13
   -2   12   62      1.75     -2.35
   -1   12   62     -1.20      0.15
    0   12   62      3.54      1.43
   -6   13   62     -3.60      5.45
   -5   13   62     -4.43     -0.17
   -4   13   62     -1.51     -1.29
   -3   13   62     -3.47      0.94
   -2   13   62     -0.12      1.91
   -1   13   62      2.13      2.23
    0   13   62      2.06     -0.73
   -7   14   62      1.79     -1.73
   -6   14   62     -0.03     -2.95
   -5   14   62      1.46     -0.15
   -4   14   62      0.85      0.59
   -3   14   62      1.43     -0.07
   -2   14   62     -1.19     -3.32
    0   11   63      7.07     -1.73
   -3   12   63      0.76      0.10
   -2   12   63      0.37      4.54
   -1   12   63     -1.68     -0.28
    0   12   63     -0.05     -1.06
   -6   13   63      1.01     -1.49
   -5   13   63     -1.10     -6.73
   -4   13   63      3.29     -0.18
   -3   13   63     -2.57      1.00
   -2   13   63     -0.25     -0.66
   -1   13   63      0.20     -1.83
    0   13   63     -2.88     -0.09
   -7   14   63      0.53      4.52
   -6   14   63      0.18      2.01
   -5   14   63     -4.18     -3.06
   -4   14   63      1.49     -0.52
   -3   14   63     -0.11     -1.48
   -2   14   63      0.93      0.32
    0   11   64      0.97      0.99
   -3   12   64      2.81      1.65
   -2   12   64     -0.53     -1.57
   -1   12   64      0.68      0.25
    0   12   64      1.98      0.37
   -6   13   64     -2.38     -3.17
   -5   13   64      3.87     -4.00
   -4   13   64     -1.32      0.20
   -3   13   64     -0.69      0.64
   -2   13   64     -2.39      1.98
   -1   13   64      0.39     -2.55
    0   13   64      0.60     -0.82
   -7   14   64     -0.78      0.28
   -6   14   64      0.16      4.88
   -5   14   64     -0.22     -1.63
   -4   14   64      1.24      1.35
   -3   14   64     -0.85     -0.04
   -2   14   64      0.91     -0.63
   -1   11   65     -5.28      3.06
    0   11   65     -0.12     -0.76
   -4   12   65      2.32      0.03
   -3   12   65     -2.83     -2.68
   -2   12   65     -1.59     -1.19
   -1   12   65      1.51     -0.12
    0   12   65      5.35      0.53
   -6   13   65      2.61     -6.61
   -5   13   65     -2.20     -2.40
   -4   13   65     -1.32      3.42
   -3   13   65      0.09      0.88
   -2   13   65     -0.99     -2.01
   -1   13   65     -2.47      1.68
    0   13   65     -0.75     -0.75
   -7   14   65     -0.33     -0.36
   -6   14   65      3.40      1.81
   -5   14   65     -0.62     -0.24
   -4   14   65      0.30     -0.22
   -3   14   65      2.03      2.00
   -2   14   65     -0.30     -2.30
   -1   11   66      1.61      0.89
    0   11   66      0.30     -0.14
   -4   12   66     -2.19     -3.01
   -3   12   66      4.12      0.68
   -2   12   66     -1.62     -2.95
   -1   12   66     -0.29     -2.09
    0   12   66      2.21     -0.21
   -6   13   66      2.15      0.81
   -5   13   66      2.23      1.91
   -4   13   66      1.14      3.79
   -3   13   66     -1.30     -3.38
   -2   13   66      0.39      1.62
   -1   13   66      2.17      0.34
    0   13   66     -0.76      0.32
   -7   14   66     -3.84      0.27
   -6   14   66     -2.17      2.90
   -5   14   66     -0.72     -2.53
   -4   14   66      0.62      0.52
   -3   14   66     -1.33      0.03
   -2   14   66     -2.31      0.26
   -1   11   67     -2.42     -1.82
    0   11   67     -2.99     -0.51
   -6   12   67      6.45     -3.63
   -5   12   67     -0.71     -2.42
   -4   12   67     -1.67      1.07
   -3   12   67      0.58     -2.05
   -2   12   67      3.38      2.74
   -1   12   67      4.63     -1.90
    0   12   67     -1.68     -0.04
   -6   13   67     -4.55     -3.22
   -5   13   67     -3.55      0.14
   -4   13   67      2.29      1.16
   -3   13   67     -2.04      1.17
   -2   13   67     -1.06     -0.13
   -1   13   67      0.88      1.91
    0   13   67     -1.59     -0.76
   -7   14   67     -1.34      0.98
   -6   14   67      1.13      1.61
   -5   14   67      1.59     -2.27
   -4   14   67     -1.40      1.49
   -3   14   67      1.62     -0.24
   -1   11   68     -4.91      2.71
    0   11   68      2.75      0.74
   -6   12   68      2.97     -3.71
   -5   12   68     -0.29     -3.85
   -4   12   68      0.10      0.29
   -3   12   68     -1.80      0.01
   -2   12   68      0.37      1.78
   -1   12   68     -0.55     -3.30
    0   12   68      1.04      0.86
   -6   13   68     -2.01      2.20
   -5   13   68      1.70      1.37
   -4   13   68      0.45      0.62
   -3   13   68      3.11     -1.58
   -2   13   68     -3.97     -1.51
   -1   13   68      2.14     -0.19
    0   13   68     -1.03      0.83
   -7   14   68      0.66     -2.64
   -6   14   68     -1.94      1.88
   -5   14   68      0.19     -2.70
   -4   14   68     -1.21      2.78
   -3   14   68      0.09     -1.07
   -1   11   69      6.97      3.11
    0   11   69      4.33      0.44
   -6   12   69     -1.26     -0.45
   -5   12   69      6.36     -2.13
   -4   12   69     -0.58      3.75
   -3   12   69     -1.38      3.48
   -2   12   69     -0.20     -0.52
   -1   12   69     -3.39     -2.06
    0   12   69      2.18     -1.72
   -6   13   69      1.84     -1.75
   -5   13   69     -0.71      2.13
   -4   13   69      0.35     -3.51
   -3   13   69     -1.35      1.31
   -2   13   69     -0.02     -3.01
   -1   13   69     -1.08      3.29
   -7   14   69      0.33      4.24
   -6   14   69     -0.51     -2.80
   -5   14   69     -2.43     -0.78
   -4   14   69      1.85     -0.19
   -3   14   69      0.70      1.31
   -2   11   70     -5.27      3.66
   -1   11   70      1.97      0.42
    0   11   70      0.06      0.71
   -6   12   70      3.26      3.86
   -5   12   70     -1.35      0.28
   -4   12   70     -1.79     -3.01
   -3   12   70     -6.51     -2.98
   -2   12   70     -0.39      0.28
   -1   12   70      3.69     -1.36
    0   12   70     -5.43     -0.79
   -6   13   70      1.49     -0.28
   -5   13   70      0.76     -4.28
   -4   13   70     -2.05      3.98
   -3   13   70      4.32      0.56
   -2   13   70     -2.20     -0.31
   -1   13   70      1.37     -1.05
   -7   14   70      0.55      0.83
   -6   14   70     -1.31      0.95
   -5   14   70      3.12      0.16
   -4   14   70      0.71     -1.04
   -3   14   70     -1.99      0.47
    0   10   71      3.47      0.02
   -2   11   71      1.59     -0.44
   -1   11   71     -1.08      1.53
    0   11   71     -1.86     -0.40
   -6   12   71     -4.01     -1.26
   -5   12   71     -1.30      1.98
   -4   12   71     -3.01      3.75
   -3   12   71      2.41     -0.67
   -2   12   71     -2.28     -1.71
   -1   12   71      0.48     -1.08
    0   12   71     -3.55      0.12
   -6   13   71      3.16     -0.94
   -5   13   71      0.37     -1.12
   -4   13   71      0.95      0.42
   -3   13   71     -0.22     -0.51
   -2   13   71     -0.91      1.73
   -1   13   71      2.45     -0.42
   -7   14   71      2.58      2.07
   -6   14   71     -0.21     -3.28
   -5   14   71      0.81      0.19
   -4   14   71     -1.72     -0.98
   -3   14   71     -0.01      1.74
    0   10   72      4.79      0.19
   -2   11   72     -0.05      5.48
   -1   11   72      1.05     -3.09
    0   11   72      1.33      1.38
   -6   12   72      3.27     -0.34
   -5   12   72     -3.37      2.92
   -4   12   72      0.33      0.28
   -3   12   72      5.98     -2.54
   -2   12   72     -0.62     -1.11
   -1   12   72     -0.36     -1.45
    0   12   72      1.38     -0.47
   -6   13   72      0.36     -1.76
   -5   13   72      0.01      0.36
   -4   13   72     -1.29      0.47
   -3   13   72     -2.18      0.30
   -2   13   72      0.38     -1.72
   -1   13   72     -1.76      1.65
   -7   14   72      1.72     -0.16
   -6   14   72     -0.68      2.67
   -5   14   72      2.29     -2.13
   -4   14   72     -0.09      0.28
    0   10   73     -6.80      0.19
   -3   11   73      1.36      3.20
   -2   11   73     -1.13     -3.43
   -1   11   73     -0.12     -2.94
    0   11   73      5.52     -0.39
   -6   12   73      3.60     -1.73
   -5   12   73      0.86     -1.35
   -4   12   73     -3.29     -1.78
   -3   12   73      2.82     -1.83
   -2   12   73     -0.78     -1.43
   -1   12   73      1.04      4.48
    0   12   73     -3.17      0.01
   -6   13   73     -3.86     -1.82
   -5   13   73     -0.05      2.93
   -4   13   73      0.27      1.72
   -3   13   73     -1.48      1.90
   -2   13   73      0.60      3.22
   -1   13   73     -0.10     -2.38
   -7   14   73     -3.29      2.54
   -6   14   73      1.79     -0.82
   -5   14   73      1.23     -0.80
   -4   14   73      0.64     -0.39
    0   10   74     -0.82     -0.59
   -3   11   74     -3.63     -2.57
   -2   11   74      4.65     -3.72
   -1   11   74      1.54     -0.84
    0   11   74     -1.21      0.05
   -6   12   74     -2.29      0.72
   -5   12   74     -0.64      1.22
   -4   12   74      1.39      1.42
   -3   12   74      1.98      3.48
   -2   12   74     -2.28     -0.02
   -1   12   74     -1.06      0.60
    0   12   74     -1.54     -0.23
   -6   13   74     -0.69     -1.42
   -5   13   74      2.94      0.12
   -4   13   74     -1.38     -0.60
   -3   13   74     -0.83     -0.81
   -2   13   74      0.68      2.07
   -1   13   74      0.12     -1.88
   -7   14   74     -1.59      3.44
   -6   14   74      0.87     -0.33
   -5   14   74     -0.78      0.26
   -4   14   74      0.38      1.01
    0   10   75     -3.85      0.02
   -4   11   75      0.81     -0.84
   -3   11   75     -0.95     -1.40
   -2   11   75     -1.06     -2.67
   -1   11   75      1.76      2.54
    0   11   75      1.41     -0.24
   -6   12   75     -0.16      2.63
   -5   12   75     -0.87      2.44
   -4   12   75      0.49      0.90
   -3   12   75      3.89      0.97
   -2   12   75     -1.32     -1.48
   -1   12   75      1.84      0.38
    0   12   75     -0.70      0.20
   -6   13   75      3.51     -1.99
   -5   13   75     -0.71     -1.11
   -4   13   75     -2.47      1.76
   -3   13   75      1.36     -0.19
   -2   13   75     -1.15     -0.57
   -7   14   75     -1.00      0.29
   -6   14   75     -1.59     -1.03
   -5   14   75      1.17      0.56
   -4   14   75     -0.21     -0.27
   -1   10   76     -5.28      0.76
    0   10   76      6.68     -1.35
   -5   11   76     -0.31      1.92
   -4   11   76      2.52      3.59
   -3   11   76      5.45      2.49
   -2   11   76      2.50     -1.52
   -1   11   76     -0.07      0.48
    0   11   76      1.90      0.14
   -6   12   76      0.57      3.04
   -5   12   76     -2.90      2.39
   -4   12   76      0.33     -5.60
   -3   12   76     -3.70     -1.65
   -2   12   76     -2.98      3.25
   -1   12   76     -1.67      0.60
    0   12   76     -1.23      1.29
   -6   13   76      0.05      0.09
   -5   13   76     -1.07     -0.74
   -4   13   76      0.84     -0.98
   -3   13   76     -2.03      1.08
   -2   13   76      4.92     -1.02
   -7   14   76      0.08     -0.47
   -6   14   76     -1.14     -1.08
   -5   14   76      0.75      1.12
   -1   10   77      0.69     -4.17
    0   10   77      3.39      1.14
   -5   11   77     -1.27     -0.92
   -4   11   77     -1.58      1.08
   -3   11   77      1.84     -2.12
   -2   11   77      1.66      2.65
   -1   11   77      2.90     -2.35
    0   11   77     -9.97     -1.57
   -6   12   77      0.96      0.40
   -5   12   77     -0.39     -1.97
   -4   12   77     -2.67     -0.29
   -3   12   77     -2.52      2.79
   -2   12   77     -2.52     -0.45
   -1   12   77      0.21      1.27
    0   12   77      4.46      0.01
   -6   13   77      2.49     -0.61
   -5   13   77      2.76      1.02
   -4   13   77      0.19     -1.64
   -3   13   77      1.66     -0.59
   -2   13   77     -0.64     -1.01
   -7   14   77     -0.82     -0.66
   -6   14   77     -0.97     -0.45
   -5   14   77     -0.51     -0.79
   -1   10   78     -2.96     -3.50
    0   10   78     -0.20     -0.01
   -5   11   78     -1.87      3.04
   -4   11   78     -2.95      1.50
   -3   11   78     -3.64      1.35
   -2   11   78      2.23      4.93
   -1   11   78      0.93      0.60
    0   11   78     -1.37      0.55
   -6   12   78     -2.27     -0.94
   -5   12   78      2.42     -1.34
   -4   12   78      0.41      0.27
   -3   12   78     -3.73     -1.81
   -2   12   78      1.71      1.57
   -1   12   78      0.16     -1.41
    0   12   78     -1.73     -0.72
   -6   13   78     -1.23      0.59
   -5   13   78      0.69     -0.09
   -4   13   78     -0.90      0.13
   -3   13   78      2.78      1.13
   -2   13   78      0.23     -2.67
   -7   14   78     -1.26     -0.24
   -6   14   78      3.07     -0.43
   -2   10   79      4.30      0.22
   -1   10   79      0.36      4.11
    0   10   79      4.64     -1.22
   -5   11   79      0.42     -1.68
   -4   11   79     -1.13     -0.03
   -3   11   79     -5.28     -1.90
   -2   11   79     -1.22      0.51
   -1   11   79     -2.15      1.04
    0   11   79      0.66      0.20
   -6   12   79      2.40     -2.16
   -5   12   79     -0.20      1.31
   -4   12   79      2.33     -3.58
   -3   12   79      4.76     -0.12
   -2   12   79     -3.29     -1.30
   -1   12   79     -1.80     -0.04
    0   12   79      2.84     -0.16
   -6   13   79     -0.49     -0.90
   -5   13   79      0.90      0.85
   -4   13   79     -1.20      3.01
   -3   13   79      1.29     -0.76
   -2   13   79      0.00      0.29
   -7   14   79     -1.16      0.25
   -6   14   79     -0.01      0.31
   -2   10   80      2.40      5.49
   -1   10   80      0.71     -0.29
    0   10   80      0.67     -0.89
   -5   11   80     -0.76     -0.46
   -4   11   80      0.40     -3.13
   -3   11   80      1.48     -2.78
   -2   11   80     -1.10      0.17
   -1   11   80      0.08     -1.41
    0   11   80     -5.49     -0.69
   -6   12   80      0.47     -0.64
   -5   12   80     -3.06     -1.90
   -4   12   80      1.54     -0.19
   -3   12   80     -0.30      2.26
   -2   12   80      3.78      0.05
   -1   12   80      0.06      2.40
    0   12   80      4.22     -0.33
   -6   13   80      1.70      0.39
   -5   13   80     -0.04      4.11
   -4   13   80      0.10      0.94
   -3   13   80     -2.52     -1.40
    0    9   81      4.15     -0.24
   -2   10   81      1.94      2.42
   -1   10   81     -0.50     -3.50
    0   10   81     -6.54      1.14
   -5   11   81     -4.66      0.45
   -4   11   81      2.18     -2.16
   -3   11   81     -3.84      0.10
   -2   11   81     -0.85      0.30
   -1   11   81      1.92     -0.72
    0   11   81     -1.45      0.23
   -6   12   81      1.16      0.85
   -5   12   81     -1.59      1.28
   -4   12   81      0.99     -0.05
   -3   12   81      2.43      2.13
   -2   12   81      1.69      1.37
   -1   12   81      0.49     -1.55
   -6   13   81     -1.42      0.65
   -5   13   81      1.48     -1.06
   -4   13   81     -0.56     -0.24
   -3   13   81     -0.02     -1.71
    0    9   82      0.08     -0.07
   -3   10   82     -0.09      1.94
   -2   10   82     -2.04      0.07
   -1   10   82      1.34      3.49
    0   10   82      1.48      0.10
   -5   11   82     -1.00      2.45
   -4   11   82      4.64      4.90
   -3   11   82      0.25     -6.27
   -2   11   82      1.43     -2.06
   -1   11   82     -2.67     -1.76
    0   11   82     -1.63     -0.85
   -6   12   82     -1.04     -2.57
   -5   12   82     -0.52     -0.47
   -4   12   82      0.73      1.81
   -3   12   82      0.73      1.63
   -2   12   82     -0.07      0.16
   -1   12   82      1.64      3.68
   -6   13   82     -0.14     -0.16
   -5   13   82     -1.58     -0.95
   -4   13   82     -0.19     -2.30
   -3   13   82     -2.40      0.42
    0    9   83     -4.97     -0.17
   -5   10   83      2.00     -0.56
   -4   10   83      1.05     -1.03
   -3   10   83     -3.14     -0.32
   -2   10   83      6.57      0.81
   -1   10   83     -4.87     -6.53
    0   10   83      0.96     -0.47
   -5   11   83      0.34      0.93
   -4   11   83      0.41     -0.73
   -3   11   83      1.57      2.30
   -2   11   83     -1.09      4.15
   -1   11   83      2.51      2.69
    0   11   83      3.37      0.13
   -6   12   83     -4.11     -1.18
   -5   12   83      1.69     -0.24
   -4   12   83      1.12     -2.63
   -3   12   83     -2.94      0.03
   -2   12   83     -2.15     -2.59
   -1   12   83     -0.77      0.82
   -6   13   83      0.88     -1.39
   -5   13   83     -0.94      2.08
   -4   13   83     -0.83     -0.62
   -3   13   83      1.83     -0.32
   -1    9   84      4.44     -2.25
    0    9   84     -0.36     -0.63
   -5   10   84      2.81     -1.19
   -4   10   84      0.55      1.01
   -3   10   84      1.28     -1.88
   -2   10   84     -1.81      2.02
   -1   10   84     -0.99      0.61
    0   10   84     -6.30     -0.49
   -5   11   84     -0.77      1.51
   -4   11   84     -0.32     -1.60
   -3   11   84     -3.66     -0.72
   -2   11   84      1.83      1.25
   -1   11   84      1.95     -0.03
    0   11   84     -0.64      0.32
   -6   12   84     -2.14     -1.41
   -5   12   84     -0.17      2.03
   -4   12   84      0.43     -0.63
   -3   12   84     -0.82      1.63
   -2   12   84     -0.30      0.20
   -1   12   84      3.40     -3.59
   -6   13   84      3.66     -1.36
   -5   13   84     -1.10      0.64
   -4   13   84      0.42     -2.25
   -1    9   85     -1.66     -1.02
    0    9   85     -2.65      0.15
   -5   10   85     -1.38      0.34
   -4   10   85     -2.65      1.26
   -3   10   85      2.32      0.38
   -2   10   85      1.81      1.67
   -1   10   85      1.57      0.52
    0   10   85      1.96     -0.50
   -5   11   85     -1.20      1.13
   -4   11   85      0.93      0.90
   -3   11   85     -0.39     -0.48
   -2   11   85     -1.26      1.18
   -1   11   85      0.51      0.94
    0   11   85     -0.86      0.41
   -6   12   85     -0.75      0.33
   -5   12   85      0.40     -2.57
   -4   12   85      0.64     -0.07
   -3   12   85      0.88     -0.98
   -2   12   85     -1.01     -1.17
   -1   12   85     -0.18     -0.06
   -6   13   85      1.23     -1.83
   -5   13   85     -1.94      0.48
   -4   13   85     -0.90     -0.50
   -1    9   86     -1.53      4.64
    0    9   86      3.18     -1.30
   -5   10   86     -1.44      5.08
   -4   10   86     -2.20     -7.70
   -3   10   86     -2.19      2.12
   -2   10   86      0.60     -3.60
   -1   10   86     -0.38     -1.02
    0   10   86     -0.89      0.55
   -5   11   86      3.76     -0.23
   -4   11   86      0.50     -3.25
   -3   11   86      2.93      0.46
   -2   11   86     -1.61      3.27
   -1   11   86      0.40      3.67
    0   11   86     -2.19     -0.87
   -6   12   86      0.85      1.25
   -5   12   86     -4.70     -0.25
   -4   12   86      2.09      3.06
   -3   12   86     -0.01     -1.16
   -2   12   86      0.88     -3.17
   -6   13   86      0.41      0.60
   -5   13   86     -0.12      0.49
   -2    9   87     -1.05     -0.42
   -1    9   87      0.60      0.21
    0    9   87     -0.50     -1.20
   -5   10   87     -0.20     -0.12
   -4   10   87      0.90      3.48
   -3   10   87     -0.98     -0.70
   -2   10   87     -0.55      0.63
   -1   10   87      2.06      0.51
    0   10   87     -2.70     -0.20
   -5   11   87     -0.40     -4.43
   -4   11   87      0.37     -1.96
   -3   11   87     -0.74      3.86
   -2   11   87      3.22     -1.38
   -1   11   87     -1.98     -3.53
    0   11   87      1.57      0.14
   -6   12   87      0.40     -0.28
   -5   12   87      2.38      2.28
   -4   12   87     -2.16     -0.54
   -3   12   87     -1.40     -0.90
   -2   12   87     -0.08      2.92
   -6   13   87     -0.66      1.43
   -5   13   87      0.16      1.35
    0    8   88      2.79      0.61
   -2    9   88     -2.05      0.21
   -1    9   88      0.75      0.47
    0    9   88     -7.04      0.40
   -5   10   88      0.47      1.93
   -4   10   88     -1.25     -4.03
   -3   10   88      1.17     -0.49
   -2   10   88      1.77      1.97
   -1   10   88      2.31      0.36
    0   10   88      0.84     -0.47
   -5   11   88      2.33     -0.67
   -4   11   88      0.07      1.93
   -3   11   88      0.61      0.63
   -2   11   88     -2.60     -0.71
   -1   11   88      4.59     -1.48
    0   11   88     -2.38      0.48
   -6   12   88      0.85     -0.25
   -5   12   88     -1.31      0.58
   -4   12   88      1.16     -1.43
   -3   12   88     -1.11     -1.61
   -2   12   88     -0.59     -0.27
   -6   13   88     -0.09     -1.29
    0    8   89     -3.93      0.15
   -4    9   89     -0.24     -1.20
   -3    9   89      2.13      3.52
   -2    9   89      1.90      1.73
   -1    9   89      2.23     -0.80
    0    9   89     -1.03     -0.50
   -5   10   89      3.51      0.85
   -4   10   89     -1.78      0.98
   -3   10   89      2.34     -2.57
   -2   10   89     -1.18      0.03
   -1   10   89      1.18      0.43
    0   10   89     -3.27      0.38
   -5   11   89      0.49     -2.34
   -4   11   89     -0.69      1.54
   -3   11   89     -0.07      0.08
   -2   11   89     -0.53     -2.91
   -1   11   89     -1.03      2.38
    0   11   89      4.94      0.52
   -6   12   89     -1.90     -0.62
   -5   12   89     -0.56     -0.49
   -4   12   89     -1.05     -0.09
   -3   12   89      1.06      0.45
   -2   12   89      0.58     -0.38
    0    8   90     -0.69     -0.36
   -4    9   90     -0.98     -0.20
   -3    9   90      2.06     -1.96
   -2    9   90      1.54      2.57
   -1    9   90     -0.08     -2.80
    0    9   90      2.94     -0.32
   -5   10   90     -2.55      1.42
   -4   10   90      2.55     -1.93
   -3   10   90     -0.55      3.79
   -2   10   90     -0.71      0.34
   -1   10   90     -1.21      3.93
    0   10   90     -3.14     -0.48
   -5   11   90     -2.62      1.61
   -4   11   90     -0.03     -3.53
   -3   11   90      0.97     -0.97
   -2   11   90     -1.42     -1.26
   -1   11   90      1.54     -0.40
    0   11   90      0.75      0.48
   -6   12   90      1.71      0.59
   -5   12   90      1.28     -1.66
   -4   12   90     -1.74      1.09
   -3   12   90      1.89     -0.90
   -1    8   91     -1.89     -2.32
    0    8   91      0.26     -1.44
   -4    9   91     -1.58     -2.88
   -3    9   91     -4.35      0.80
   -2    9   91      0.35      1.46
   -1    9   91      1.90     -0.15
    0    9   91     -5.22      0.00
   -5   10   91      6.07     -3.29
   -4   10   91      0.92     -0.59
   -3   10   91      1.54      1.37
   -2   10   91     -1.83     -0.93
   -1   10   91     -0.21     -0.37
    0   10   91      2.71      0.39
   -5   11   91     -3.20      0.77
   -4   11   91     -1.10     -0.13
   -3   11   91      0.53      0.96
   -2   11   91      0.66      1.79
   -1   11   91      0.66     -1.41
   -6   12   91      2.14     -0.40
   -5   12   91     -0.43      0.44
   -4   12   91     -0.64     -0.53
   -3   12   91      0.47     -1.02
   -1    8   92     -0.31     -0.09
    0    8   92     -2.78     -0.76
   -4    9   92      1.39     -0.10
   -3    9   92      2.09      0.72
   -2    9   92      1.92     -1.65
   -1    9   92     -0.71      1.68
    0    9   92      0.25      0.42
   -5   10   92     -0.74     -1.03
   -4   10   92     -0.89     -0.39
   -3   10   92      0.03     -0.46
   -2   10   92     -1.75      0.58
   -1   10   92      3.39     -1.07
    0   10   92     -1.70      0.96
   -5   11   92      1.71     -0.23
   -4   11   92      0.62     -0.47
   -3   11   92     -2.65     -0.49
   -2   11   92     -0.52     -0.92
   -1   11   92     -0.19      1.17
   -6   12   92     -0.14      1.97
   -5   12   92     -0.60     -0.76
   -4   12   92     -0.84      1.21
   -3   12   92      2.24      0.43
   -2    8   93     -0.56      1.76
   -1    8   93      2.55      4.86
    0    8   93     -0.12      0.60
   -4    9   93     -0.55     -3.00
   -3    9   93     -0.04     -1.30
   -2    9   93      1.25     -0.30
   -1    9   93      1.13     -2.55
    0    9   93     -3.33     -0.53
   -5   10   93      0.45     -1.38
   -4   10   93     -0.98      1.64
   -3   10   93      1.40     -1.36
   -2   10   93     -1.03     -1.71
   -1   10   93      1.14      2.10
    0   10   93      0.34      0.60
   -5   11   93      1.95     -1.31
   -4   11   93     -0.27      3.22
   -3   11   93      0.96     -0.62
   -2   11   93     -0.32      0.58
   -1   11   93     -0.22     -0.79
   -6   12   93      0.73      1.84
   -5   12   93     -0.44     -1.11
   -4   12   93     -1.45      1.33
    0    7   94     -2.06     -0.55
   -3    8   94      6.30      2.34
   -2    8   94     -1.10      1.74
   -1    8   94      0.79     -0.30
    0    8   94      0.97      0.01
   -4    9   94     -0.72      1.30
   -3    9   94     -1.44     -2.64
   -2    9   94      1.13      1.50
   -1    9   94     -2.12      0.97
    0    9   94      1.84     -0.20
   -5   10   94     -3.10     -3.84
   -4   10   94      0.15      1.79
   -3   10   94      1.91     -0.85
   -2   10   94      1.62      0.39
   -1   10   94     -0.60      0.66
    0   10   94     -0.65      0.11
   -5   11   94      0.73      0.57
   -4   11   94     -2.06     -0.90
   -3   11   94     -0.30      0.96
   -2   11   94     -0.83     -0.18
   -1   11   94      2.06     -1.21
   -6   12   94      0.51      1.16
   -5   12   94      1.64      0.03
   -4   12   94     -2.03     -0.11
    0    7   95      1.11     -0.47
   -4    8   95      0.75     -0.12
   -3    8   95     -1.27      0.98
   -2    8   95      1.06     -0.19
   -1    8   95      2.88     -2.74
    0    8   95     -3.02      0.25
   -4    9   95      0.34      0.31
   -3    9   95      3.46      0.97
   -2    9   95     -1.03      0.19
   -1    9   95     -0.13      0.53
    0    9   95      0.53      0.02
   -5   10   95     -2.70     -1.32
   -4   10   95     -1.27     -1.53
   -3   10   95     -2.03      1.44
   -2   10   95      0.34      1.33
   -1   10   95      0.34     -1.88
    0   10   95     -0.64     -0.20
   -5   11   95      1.52     -1.11
   -4   11   95      1.19      0.60
   -3   11   95      1.95     -2.83
   -2   11   95      0.53      1.32
   -6   12   95      2.87      0.74
   -5   12   95     -1.39     -0.94
    0    7   96     -1.80      0.82
   -4    8   96     -0.92     -0.80
   -3    8   96      4.38      2.35
   -2    8   96     -0.27      0.87
   -1    8   96     -3.68      1.14
    0    8   96      1.87     -0.48
   -4    9   96     -0.97      0.68
   -3    9   96      0.11     -0.50
   -2    9   96      2.10     -1.20
   -1    9   96      0.88     -0.17
    0    9   96     -1.80     -0.21
   -5   10   96     -0.13     -0.26
   -4   10   96     -2.57      0.99
   -3   10   96     -0.65      0.62
   -2   10   96     -0.51     -2.04
   -1   10   96      1.13     -0.89
    0   10   96      0.22      0.45
   -5   11   96     -0.72     -2.31
   -4   11   96      2.16      0.12
   -3   11   96      0.91      0.87
   -2   11   96      0.42      1.76
   -1    7   97      5.28      1.40
    0    7   97      1.24      0.49
   -4    8   97     -1.19      1.44
   -3    8   97      4.99      1.09
   -2    8   97      3.75     -1.09
   -1    8   97     -1.78     -1.53
    0    8   97     -0.69     -1.11
   -4    9   97      1.18     -0.77
   -3    9   97     -3.90     -0.11
   -2    9   97     -1.78      0.07
   -1    9   97      0.03      1.54
    0    9   97      1.54      0.44
   -5   10   97      2.94     -1.36
   -4   10   97     -0.97      0.80
   -3   10   97     -1.65     -0.09
   -2   10   97     -1.06      0.72
   -1   10   97      1.23     -1.13
    0   10   97     -0.89     -0.08
   -5   11   97     -1.86     -1.88
   -4   11   97      0.83      0.84
   -3   11   97      1.46      0.38
   -2   11   97      0.24     -1.62
   -2    7   98     -4.44      3.19
   -1    7   98     -1.07      0.76
    0    7   98     -4.29      0.06
   -4    8   98      0.54     -1.23
   -3    8   98      1.32     -1.17
   -2    8   98      2.98     -2.30
   -1    8   98      1.21      0.59
    0    8   98     -0.47      0.04
   -4    9   98     -2.13      0.03
   -3    9   98      4.56     -3.00
   -2    9   98     -1.26      0.68
   -1    9   98     -0.58      0.14
    0    9   98     -0.02      0.35
   -5   10   98      0.90      0.37
   -4   10   98     -0.51      1.79
   -3   10   98     -0.47     -0.01
   -2   10   98     -0.98     -0.22
   -1   10   98      0.17     -0.08
    0   10   98      2.43     -0.39
   -5   11   98     -0.43     -0.83
   -4   11   98     -2.60      1.07
   -3   11   98      1.12      0.16
    0    6   99      2.14     -1.09
   -3    7   99      2.04      1.71
   -2    7   99      3.67     -0.12
   -1    7   99     -0.82      2.31
    0    7   99      0.75      0.70
   -4    8   99      0.46     -0.35
   -3    8   99     -1.06     -1.21
   -2    8   99     -1.87      0.62
   -1    8   99     -2.06     -0.35
    0    8   99      2.76     -0.11
   -4    9   99     -0.44     -1.02
   -3    9   99     -2.32     -0.46
   -2    9   99      3.59      1.51
   -1    9   99     -1.64     -0.57
    0    9   99      2.00     -0.15
   -5   10   99      0.25     -2.83
   -4   10   99      2.26      2.27
   -3   10   99      1.35      0.47
   -2   10   99     -1.52      1.62
   -1   10   99      0.38     -2.74
   -5   11   99     -0.91      0.23
   -4   11   99     -1.91     -1.52
   -3   11   99      0.11     -0.24
    0    6  100     -3.19      0.32
   -3    7  100     -0.29      3.44
   -2    7  100      0.88     -0.77
   -1    7  100     -1.52     -0.45
    0    7  100     -0.40      0.04
   -4    8  100      3.03      2.68
   -3    8  100     -0.30     -1.66
   -2    8  100      1.04      0.35
   -1    8  100      3.12      1.39
    0    8  100      0.97     -0.37
   -4    9  100     -4.08     -1.39
   -3    9  100      2.37     -0.10
   -2    9  100     -2.14     -1.20
   -1    9  100      0.42      1.71
    0    9  100     -1.89      0.39
   -5   10  100      0.71     -0.03
   -4   10  100      0.04      1.06
   -3   10  100     -1.03      1.89
   -2   10  100      1.97      0.18
   -1   10  100     -0.87     -1.77
   -5   11  100     -1.25     -0.52
   -4   11  100      1.29     -0.26
   -3   11  100     -0.27     -0.76
   -1    6  101     -0.76     -0.10
    0    6  101     -5.74      0.10
   -3    7  101     -0.30      3.62
   -2    7  101      3.74     -0.14
   -1    7  101      2.49     -3.20
    0    7  101      2.24      0.30
   -4    8  101      2.32      1.26
   -3    8  101     -0.50     -2.75
   -2    8  101     -3.60      0.96
   -1    8  101     -1.28      2.27
    0    8  101      2.24     -0.34
   -4    9  101     -4.20      3.75
   -3    9  101     -0.30     -0.65
   -2    9  101      2.30      0.10
   -1    9  101      0.40     -2.16
    0    9  101     -0.50     -0.44
   -5   10  101     -0.62     -0.07
   -4   10  101      2.70     -1.30
   -3   10  101      0.47      2.15
   -2   10  101     -2.76     -1.53
   -1   10  101      0.73      1.32
   -5   11  101      0.44     -0.83
   -4   11  101      0.77     -0.27
   -2    6  102      1.47      0.29
   -1    6  102      2.89     -2.39
    0    6  102     -4.64      0.26
   -3    7  102      3.33      2.27
   -2    7  102      1.58     -2.69
   -1    7  102      1.27      5.11
    0    7  102      4.09     -0.04
   -4    8  102     -1.17     -0.46
   -3    8  102     -1.23      1.82
   -2    8  102     -0.95     -0.15
   -1    8  102     -2.48     -0.96
    0    8  102     -1.63      0.17
   -4    9  102     -2.38     -0.73
   -3    9  102     -0.72      0.09
   -2    9  102     -1.58      0.25
   -1    9  102      1.42     -2.91
    0    9  102      0.71     -0.14
   -5   10  102      0.49     -0.95
   -4   10  102      0.57      2.04
   -3   10  102      3.69     -0.56
   -2   10  102      1.02     -0.19
   -1   10  102     -0.75      0.01
   -5   11  102      0.82      0.84
    0    5  103      2.06      0.18
   -3    6  103     -2.12      1.38
   -2    6  103      2.38      1.37
   -1    6  103     -0.13     -0.45
    0    6  103     -2.38      0.56
   -3    7  103     -1.22     -0.99
   -2    7  103     -1.17      0.95
   -1    7  103     -0.83     -1.05
    0    7  103      3.14      0.58
   -4    8  103     -1.84      0.52
   -3    8  103      1.75      0.46
   -2    8  103      1.32      2.39
   -1    8  103     -3.39     -1.16
    0    8  103      1.04      0.53
   -4    9  103      1.58      0.06
   -3    9  103     -0.31     -0.24
   -2    9  103      0.62     -0.80
   -1    9  103     -0.32     -2.32
    0    9  103      3.60     -0.24
   -5   10  103     -2.01      0.57
   -4   10  103     -0.14     -0.87
   -3   10  103     -0.75      0.13
   -2   10  103     -0.16      0.64
    0    5  104     -0.85     -0.37
   -3    6  104      0.83      2.46
   -2    6  104      1.39      2.11
   -1    6  104      2.44      4.39
    0    6  104     -0.10      0.39
   -3    7  104     -1.87     -0.22
   -2    7  104     -0.78     -1.26
   -1    7  104      1.38      1.93
    0    7  104     -2.77     -0.18
   -4    8  104      0.57      0.01
   -3    8  104      0.27     -1.24
   -2    8  104      0.29     -2.70
   -1    8  104     -1.22     -2.11
    0    8  104     -0.97      0.19
   -4    9  104      0.43      1.48
   -3    9  104      1.01      1.31
   -2    9  104      1.77      0.35
   -1    9  104     -0.61      0.79
    0    9  104      2.96      0.06
   -5   10  104      1.57      0.12
   -4   10  104      0.24     -0.35
   -3   10  104     -1.08     -0.32
   -2   10  104     -1.58      0.72
   -2    5  105     -0.40      1.18
   -1    5  105     -4.30     -1.10
    0    5  105      2.43     -0.21
   -3    6  105      2.00      4.86
   -2    6  105      0.52     -1.17
   -1    6  105      0.38      3.32
    0    6  105      2.27      0.24
   -3    7  105     -0.25     -1.62
   -2    7  105     -0.09     -0.52
   -1    7  105      2.93     -3.22
    0    7  105     -6.79      1.10
   -4    8  105     -0.09      1.47
   -3    8  105     -0.58     -0.96
   -2    8  105      1.18     -0.16
   -1    8  105     -1.43     -2.00
    0    8  105      4.65     -0.34
   -4    9  105      0.39      0.80
   -3    9  105      2.03      1.60
   -2    9  105     -3.08     -0.57
   -1    9  105      0.65      1.05
    0    9  105     -1.60      0.45
   -5   10  105      0.58     -0.54
   -4   10  105     -0.27     -0.60
   -3   10  105     -0.90      1.75
   -2    5  106      0.97      0.89
   -1    5  106     -1.69      1.74
    0    5  106      1.15     -0.12
   -3    6  106     -0.57      0.97
   -2    6  106      1.78      0.37
   -1    6  106     -2.00     -1.95
    0    6  106     -1.13     -0.23
   -3    7  106     -5.31     -1.68
   -2    7  106      0.83      0.22
   -1    7  106      0.66     -0.89
    0    7  106      0.68      0.00
   -4    8  106     -0.90     -1.04
   -3    8  106      1.23      2.73
   -2    8  106     -0.91     -1.59
   -1    8  106      0.75      0.52
    0    8  106      1.53      0.21
   -4    9  106     -0.33      1.06
   -3    9  106      1.50      2.60
   -2    9  106     -1.15      1.02
   -1    9  106     -0.44     -0.41
   -5   10  106     -0.14     -1.44
   -4   10  106     -0.72     -2.56
   -3   10  106     -0.27     -1.05
    0    4  107      0.78     -0.28
   -2    5  107      1.19     -3.64
   -1    5  107     -2.99      0.21
    0    5  107      3.43      0.79
   -3    6  107     -1.71     -0.91
   -2    6  107      3.40      2.43
   -1    6  107     -3.14     -2.31
    0    6  107     -3.78      0.48
   -3    7  107      2.50      1.16
   -2    7  107     -3.42      1.52
   -1    7  107      2.48     -2.87
    0    7  107      0.76      0.61
   -4    8  107     -2.81     -1.95
   -3    8  107      1.39     -1.13
   -2    8  107      1.37      1.49
   -1    8  107      0.94      0.51
    0    8  107      4.03      0.29
   -4    9  107      0.16     -0.04
   -3    9  107     -2.78      0.20
   -2    9  107      0.17     -0.08
   -1    9  107     -2.66     -1.40
   -5   10  107      0.37     -0.16
   -4   10  107      0.61      1.02
   -2    4  108      0.82      0.25
   -1    4  108     -1.43     -2.45
    0    4  108      3.97      0.03
   -2    5  108     -0.67      0.75
   -1    5  108     -0.14      3.23
    0    5  108     -2.57     -0.32
   -3    6  108      1.22     -0.59
   -2    6  108      1.32     -0.68
   -1    6  108     -0.90     -1.69
    0    6  108      0.69      0.12
   -3    7  108      0.98     -0.52
   -2    7  108      0.28     -1.49
   -1    7  108     -0.35      2.44
    0    7  108      0.69     -0.07
   -4    8  108     -0.78      0.75
   -3    8  108      0.43      1.12
   -2    8  108     -2.68     -0.08
   -1    8  108      1.45     -0.38
    0    8  108      1.54      0.28
   -4    9  108      0.15      1.81
   -3    9  108     -0.11     -1.27
   -2    9  108      0.81      1.13
   -1    9  108     -0.85     -2.65
    0    3  109     -0.42      0.13
   -2    4  109     -1.76      0.43
   -1    4  109     -0.30     -0.56
    0    4  109     -3.11      0.15
   -2    5  109     -1.66      0.41
   -1    5  109      1.96     -0.98
    0    5  109     -0.12     -0.19
   -3    6  109      1.48     -1.27
   -2    6  109      0.91     -0.51
   -1    6  109      0.00     -0.37
    0    6  109      3.13      0.31
   -3    7  109      0.92      2.45
   -2    7  109      1.03     -2.30
   -1    7  109     -1.96      1.77
    0    7  109     -1.39     -0.04
   -4    8  109      0.01     -0.05
   -3    8  109     -2.51      0.67
   -2    8  109     -1.52      1.77
   -1    8  109      2.84     -2.55
    0    8  109     -2.40      0.84
   -4    9  109      0.45      0.04
   -3    9  109      0.61     -0.13
   -2    9  109      0.58     -0.54
   -1    3  110      0.45     -0.58
    0    3  110      6.28     -0.92
   -2    4  110      0.65     -1.80
   -1    4  110     -3.73      1.91
    0    4  110     -0.92     -0.62
   -2    5  110      1.74      1.41
   -1    5  110      1.25     -1.31
    0    5  110      1.64      0.08
   -3    6  110     -0.32     -2.34
   -2    6  110     -0.77      1.27
   -1    6  110     -0.96     -0.35
    0    6  110     -0.16      0.10
   -3    7  110      1.31      1.95
   -2    7  110      0.92     -0.45
   -1    7  110     -0.31     -0.69
    0    7  110     -0.14      0.46
   -4    8  110      1.88     -2.55
   -3    8  110     -2.85      1.13
   -2    8  110     -0.30     -0.95
   -1    8  110      0.50     -0.80
    0    8  110      0.39      0.07
   -4    9  110      0.93     -1.42
   -3    9  110      1.41      1.60
   -2    9  110     -0.51      0.89
   -1    2  111     -0.26      1.96
    0    2  111     -2.62     -0.51
   -1    3  111      5.17     -0.64
    0    3  111     -5.19      1.11
   -2    4  111     -0.26      1.87
   -1    4  111      0.73     -1.10
    0    4  111      2.27     -0.98
   -2    5  111      2.71     -0.22
   -1    5  111     -2.85      1.39
    0    5  111      2.12     -0.21
   -3    6  111      0.25      1.52
   -2    6  111     -2.70      0.31
   -1    6  111     -0.11     -1.38
    0    6  111      2.26      0.03
   -3    7  111      2.05     -1.34
   -2    7  111      0.15      1.42
   -1    7  111      1.08     -0.69
    0    7  111     -2.29      0.21
   -4    8  111     -0.41      2.14
   -3    8  111      1.48     -0.54
   -2    8  111     -0.69     -2.74
   -1    8  111     -1.07     -1.60
    0    8  111     -0.71      0.70
   -4    9  111      0.48      0.36
   -3    9  111     -0.50      1.20
    0    0    0      0.00      0.00
# SQUEEZE RESULTS (Version =  71116)
# Note: Data are Listed for all Voids in the P1 Unit Cell
# i.e. Centre of Gravity, Solvent Accessible Volume,
# Recovered number of Electrons in the Void and
# Details about the Squeezed Material
loop_
  _platon_squeeze_void_nr
  _platon_squeeze_void_average_x
  _platon_squeeze_void_average_y
  _platon_squeeze_void_average_z
  _platon_squeeze_void_volume
  _platon_squeeze_void_count_electrons
  _platon_squeeze_void_content
   1 -0.027  0.483  0.107      7774      2299 ' '
_platon_squeeze_void_probe_radius                  1.20
_platon_squeeze_details
)
TITL cu_csh240_0m_a.res in P6(5)22
CELL   13.4720   13.4720  100.2746     90.00     90.00    120.00
SPGR P6522
# Solvent Accessible Volume =      7769
# Electrons Found in S.A.V. =      2278
# Note: Atoms in Void as Cxxx and Qxxx all others
C101 0.764 0.769 0.833 !       3.28 eA-3
C102 0.482 0.089 0.789 !       2.40 eA-3
C103 0.079 0.500 0.715 !       2.22 eA-3
C104 0.129 0.477 0.874 !       2.16 eA-3
C105 0.185 0.589 0.418 !       2.16 eA-3
C106 0.315 0.992 0.211 !       2.13 eA-3
C107 0.138 0.687 0.960 !       2.06 eA-3
C108 1.000 0.531 0.621 !       2.05 eA-3
C109 0.296 0.476 0.289 !       2.02 eA-3
C110 0.126 0.447 0.883 !       2.00 eA-3
C111 0.497 0.071 0.954 !       1.99 eA-3
C112 0.315 0.669 0.035 !       1.81 eA-3
C113 0.155 0.551 0.609 !       1.81 eA-3
C114 0.187 0.684 0.426 !       1.74 eA-3
C115 0.952 0.358 0.203 !       1.74 eA-3
C116 0.406 0.359 0.297 !       1.72 eA-3
C117 0.595 0.643 0.796 !       1.71 eA-3
C118 0.518 0.690 0.879 !       1.70 eA-3
C119 0.285 0.578 0.804 !       1.69 eA-3
C120 0.595 0.504 0.784 !       1.68 eA-3
C121 0.325 0.535 0.090 !       1.67 eA-3
C122 0.234 0.614 0.465 !       1.65 eA-3
C123 0.063 0.344 0.653 !       1.64 eA-3
C124 0.260 0.460 0.810 !       1.64 eA-3
C125 0.530 0.362 0.882 !       1.64 eA-3
C126 0.643 0.248 0.539 !       1.63 eA-3
C127 0.609 0.244 0.966 !       1.61 eA-3
C128 0.170 0.338 0.857 !       1.60 eA-3
C129 0.364 0.654 0.819 !       1.59 eA-3
C130 0.201 0.536 0.719 !       1.59 eA-3
C131 0.032 0.761 0.954 !       1.59 eA-3
C132 0.661 0.366 0.589 !       1.58 eA-3
C133 0.612 0.234 0.550 !       1.58 eA-3
C134 0.249 0.553 0.718 !       1.58 eA-3
C135 0.486 0.268 0.976 !       1.56 eA-3
C136 0.596 0.187 0.547 !       1.55 eA-3
C137 0.563 0.247 0.875 !       1.55 eA-3
C138 0.295 0.556 0.814 !       1.54 eA-3
C139 0.626 0.340 0.980 !       1.54 eA-3
C140 0.512 0.238 0.024 !       1.52 eA-3
C141 0.519 0.271 0.261 !       1.51 eA-3
C142 0.681 0.895 0.282 !       1.51 eA-3
C143 0.715 0.636 0.125 !       1.49 eA-3
C144 0.239 0.931 0.214 !       1.48 eA-3
C145 0.094 0.596 0.422 !       1.48 eA-3
C146 0.019 0.417 0.878 !       1.48 eA-3
C147 0.561 0.284 0.261 !       1.47 eA-3
C148 0.264 0.730 0.738 !       1.46 eA-3
C149 0.330 0.544 0.777 !       1.45 eA-3
C150 0.271 0.525 0.855 !       1.44 eA-3
C151 0.565 0.320 0.957 !       1.43 eA-3
C152 0.623 0.234 0.948 !       1.43 eA-3
C153 0.660 0.143 0.027 !       1.42 eA-3
Q154 0.328 1.001 0.459 !       1.42 eA-3
C155 0.538 0.211 0.944 !       1.42 eA-3
C156 0.312 0.627 0.749 !       1.42 eA-3
C157 0.668 0.703 0.870 !       1.41 eA-3
C158 0.662 0.044 0.030 !       1.40 eA-3
C159 0.577 0.233 0.988 !       1.40 eA-3
C160 0.283 0.591 0.714 !       1.38 eA-3
C161 0.372 0.926 0.454 !       1.38 eA-3
C162 0.714 0.091 0.032 !       1.38 eA-3
C163 0.179 0.821 0.979 !       1.37 eA-3
C164 0.624 0.248 0.748 !       1.37 eA-3
C165 0.645 0.624 0.338 !       1.36 eA-3
C166 0.562 0.286 0.019 !       1.36 eA-3
C167 0.610 0.183 0.560 !       1.36 eA-3
C168 0.145 0.674 0.635 !       1.35 eA-3
C169 0.300 0.511 0.867 !       1.35 eA-3
C170 0.190 0.580 0.188 !       1.34 eA-3
C171 0.235 0.629 0.047 !       1.33 eA-3
C172 0.048 0.651 0.646 !       1.33 eA-3
C173 0.625 0.013 0.035 !       1.33 eA-3
C174 0.611 0.661 0.857 !       1.33 eA-3
Q175 0.763 0.602 0.790 !       1.32 eA-3
C176 0.190 0.564 0.905 !       1.31 eA-3
C177 0.232 0.632 0.031 !       1.31 eA-3
C178 0.336 0.557 0.808 !       1.30 eA-3
C179 0.043 0.308 0.665 !       1.29 eA-3
C180 0.621 0.620 0.555 !       1.29 eA-3
C181 0.074 0.713 0.946 !       1.29 eA-3
C182 0.484 0.520 0.083 !       1.28 eA-3
C183 0.186 0.571 0.199 !       1.28 eA-3
C184 0.495 0.282 0.367 !       1.28 eA-3
C185 0.701 0.700 0.556 !       1.27 eA-3
C186 0.596 0.737 0.312 !       1.27 eA-3
C187 0.045 0.607 0.624 !       1.27 eA-3
Q188 0.340 0.169 0.468 !       1.27 eA-3
C189 0.064 0.424 0.165 !       1.27 eA-3
C190 0.281 0.486 0.852 !       1.26 eA-3
C191 0.536 0.323 0.964 !       1.25 eA-3
C192 0.625 0.722 0.863 !       1.25 eA-3
C193 0.299 0.577 0.468 !       1.25 eA-3
C194 0.645 0.185 0.472 !       1.25 eA-3
C195 0.415 0.235 0.028 !       1.25 eA-3
C196 0.468 0.430 0.339 !       1.25 eA-3
Q197 0.061 0.315 0.188 !       1.25 eA-3
C198 0.860 0.540 0.690 !       1.24 eA-3
Q199 0.718 0.179 0.686 !       1.23 eA-3
)
;
_shelx_fab_checksum              82486
_olex2_submission_special_instructions 'No special instructions were received'
loop_
_space_group_symop_operation_xyz
'x, y, z'
'-y, x-y, z+2/3'
'-x+y, -x, z+1/3'
'-x, -y, z+1/2'
'y, -x+y, z+1/6'
'x-y, x, z+5/6'
'y, x, -z+2/3'
'x-y, -y, -z'
'-x, -x+y, -z+1/3'
'-y, -x, -z+1/6'
'-x+y, y, -z+1/2'
'x, x-y, -z+5/6'
loop_
_atom_site_label
_atom_site_type_symbol
_atom_site_fract_x
_atom_site_fract_y
_atom_site_fract_z
_atom_site_U_iso_or_equiv
_atom_site_adp_type
_atom_site_occupancy
_atom_site_site_symmetry_order
_atom_site_calc_flag
_atom_site_refinement_flags_posn
_atom_site_refinement_flags_adp
_atom_site_refinement_flags_occupancy
_atom_site_disorder_assembly
_atom_site_disorder_group
Cd1 Cd 0.08459(5) 0.07416(5) 0.38111(2) 0.0498(2) Uani 1 1 d . . . . .
O1 O 0.2338(5) 0.1864(5) 0.39376(5) 0.0580(15) Uani 1 1 d . . . . .
O2 O 0.0750(6) 0.1443(6) 0.40546(5) 0.0631(15) Uani 1 1 d . . . . .
O3 O 0.9739(6) 0.8156(6) 0.53616(6) 0.080(2) Uani 1 1 d . . . . .
O4 O 1.0009(12) 0.9829(11) 0.52605(12) 0.069(4) Uani 0.5 1 d . U P A -1
O5 O 1.0520(18) 0.9512(13) 0.52415(15) 0.104(7) Uani 0.5 1 d . U P A -2
N1 N 0.9243(6) 0.9277(6) 0.38856(6) 0.0659(18) Uani 1 1 d . . . . .
N2 N 0.7929(7) 0.8034(7) 0.40199(6) 0.068(2) Uani 1 1 d . . . . .
N3 N 0.5785(7) 0.5349(7) 0.44741(6) 0.071(2) Uani 1 1 d . . . . .
N4 N 0.5869(7) 0.5209(7) 0.48158(6) 0.076(3) Uani 1 1 d . . . . .
N5 N 0.3276(7) 0.3026(7) 0.52757(6) 0.066(2) Uani 1 1 d . . . . .
N6 N 0.2086(6) 0.1662(7) 0.54106(6) 0.065(2) Uani 1 1 d . . . . .
C1 C 0.1819(10) 0.1912(8) 0.40423(7) 0.063(3) Uani 1 1 d . . . . .
C2 C 0.2605(8) 0.2591(7) 0.41556(7) 0.060(2) Uani 1 1 d . . . . .
C3 C 0.2120(9) 0.2725(8) 0.42745(7) 0.066(3) Uani 1 1 d . . . . .
H3 H 0.1312 0.2383 0.4283 0.079 Uiso 1 1 calc R . . . .
C4 C 0.2828(8) 0.3355(7) 0.43782(7) 0.058(2) Uani 1 1 d . . . . .
H4 H 0.2499 0.3466 0.4457 0.069 Uiso 1 1 calc R . . . .
C5 C 0.3982(9) 0.3822(8) 0.43709(8) 0.064(2) Uani 1 1 d . . . . .
C6 C 0.4435(8) 0.3633(8) 0.42526(7) 0.062(2) Uani 1 1 d . . . . .
H6 H 0.5237 0.3921 0.4246 0.075 Uiso 1 1 calc R . . . .
C7 C 0.3746(8) 0.3046(8) 0.41474(7) 0.061(2) Uani 1 1 d . . . . .
H7 H 0.4077 0.2959 0.4068 0.073 Uiso 1 1 calc R . . . .
C8 C 0.4674(7) 0.4378(8) 0.44858(7) 0.061(2) Uani 1 1 d . . . . .
C9 C 0.4436(8) 0.4093(8) 0.46197(7) 0.071(3) Uani 1 1 d . . . . .
H9 H 0.3742 0.3504 0.4657 0.085 Uiso 1 1 calc R . . . .
C10 C 0.5454(9) 0.4874(9) 0.46893(8) 0.079(3) Uani 1 1 d . . . . .
C11 C 0.6271(8) 0.5665(8) 0.46055(8) 0.072(3) Uani 1 1 d . . . . .
C12 C 0.7203(9) 0.6434(8) 0.46787(7) 0.081(3) Uani 1 1 d . . . . .
H12 H 0.7907 0.7035 0.4645 0.097 Uiso 1 1 calc R . . . .
C13 C 0.6927(8) 0.6173(8) 0.48071(7) 0.072(3) Uani 1 1 d . . . . .
C14 C 0.760(2) 0.6832(14) 0.49235(19) 0.049(4) Uani 0.5 1 d D U P A -1
C15 C 0.789(2) 0.6334(18) 0.5026(2) 0.068(7) Uani 0.5 1 d D U P A -1
H15 H 0.7580 0.5528 0.5024 0.082 Uiso 0.5 1 calc R . P A -1
C16 C 0.860(2) 0.6939(13) 0.51320(18) 0.060(5) Uani 0.5 1 d D U P A -1
H16 H 0.8855 0.6582 0.5194 0.072 Uiso 0.5 1 calc R . P A -1
C17 C 0.8917(18) 0.8083(13) 0.51433(15) 0.060(5) Uani 0.5 1 d D U P A -1
C18 C 0.8659(17) 0.8627(15) 0.50421(13) 0.072(5) Uani 0.5 1 d D U P A -1
H18 H 0.8903 0.9420 0.5049 0.086 Uiso 0.5 1 calc R . P A -1
C19 C 0.8044(18) 0.8006(13) 0.49309(15) 0.069(6) Uani 0.5 1 d D U P A -1
H19 H 0.7928 0.8395 0.4859 0.083 Uiso 0.5 1 calc R . P A -1
C20 C 0.9586(17) 0.8708(17) 0.52606(17) 0.052(4) Uani 0.5 1 d . U P A -1
C21 C 0.782(3) 0.6636(15) 0.4924(3) 0.072(9) Uani 0.5 1 d D U P A -2
C22 C 0.774(2) 0.6027(18) 0.50377(19) 0.054(5) Uani 0.5 1 d D U P A -2
H22 H 0.7265 0.5218 0.5041 0.064 Uiso 0.5 1 calc R . P A -2
C23 C 0.837(2) 0.6629(14) 0.5146(2) 0.054(4) Uani 0.5 1 d D U P A -2
H23 H 0.8286 0.6237 0.5228 0.065 Uiso 0.5 1 calc R . P A -2
C24 C 0.9132(14) 0.7789(12) 0.51395(14) 0.040(3) Uani 0.5 1 d D U P A -2
C25 C 0.9273(17) 0.8343(15) 0.50194(13) 0.070(5) Uani 0.5 1 d D U P A -2
H25 H 0.9878 0.9111 0.5009 0.084 Uiso 0.5 1 calc R . P A -2
C26 C 0.8547(14) 0.7799(14) 0.49142(15) 0.055(4) Uani 0.5 1 d D U P A -2
H26 H 0.8546 0.8211 0.4837 0.065 Uiso 0.5 1 calc R . P A -2
C27 C 0.9858(18) 0.8464(17) 0.5257(2) 0.046(4) Uani 0.5 1 d . U P A -2
C28 C 0.9004(7) 0.8858(7) 0.40085(7) 0.055(2) Uani 1 1 d . . . . .
H28 H 0.9542 0.9120 0.4080 0.066 Uiso 1 1 calc R . . . .
C29 C 0.8198(8) 0.8756(11) 0.38174(9) 0.094(4) Uani 1 1 d . . . . .
H29 H 0.8082 0.8946 0.3730 0.113 Uiso 1 1 calc R . . . .
C30 C 0.7341(10) 0.7905(10) 0.38989(8) 0.101(5) Uani 1 1 d . . . . .
H30 H 0.6564 0.7377 0.3878 0.121 Uiso 1 1 calc R . . . .
C31 C 0.7358(8) 0.7326(9) 0.41396(7) 0.069(3) Uani 1 1 d . . . . .
C32 C 0.6222(7) 0.6889(9) 0.41564(8) 0.063(2) Uani 1 1 d . . . . .
H32 H 0.5791 0.7018 0.4091 0.075 Uiso 1 1 calc R . . . .
C33 C 0.5679(9) 0.6251(8) 0.42696(8) 0.067(3) Uani 1 1 d . . . . .
H33 H 0.4879 0.5936 0.4283 0.080 Uiso 1 1 calc R . . . .
C34 C 0.6342(9) 0.6094(9) 0.43613(7) 0.073(3) Uani 1 1 d . . . . .
C35 C 0.7476(9) 0.6560(10) 0.43433(8) 0.084(3) Uani 1 1 d . . . . .
H35 H 0.7918 0.6442 0.4408 0.101 Uiso 1 1 calc R . . . .
C36 C 0.8006(9) 0.7205(10) 0.42327(8) 0.087(4) Uani 1 1 d . . . . .
H36 H 0.8813 0.7558 0.4222 0.104 Uiso 1 1 calc R . . . .
C37 C 0.5161(8) 0.4638(8) 0.49338(8) 0.069(3) Uani 1 1 d . . . . .
C38 C 0.4596(10) 0.3458(9) 0.49428(8) 0.084(4) Uani 1 1 d . . . . .
H38 H 0.4640 0.3015 0.4872 0.101 Uiso 1 1 calc R . . . .
C39 C 0.3967(10) 0.2925(9) 0.50551(8) 0.079(3) Uani 1 1 d . . . . .
H39 H 0.3580 0.2114 0.5063 0.095 Uiso 1 1 calc R . . . .
C40 C 0.3909(9) 0.3605(8) 0.51568(7) 0.063(2) Uani 1 1 d . . . . .
C41 C 0.4447(10) 0.4771(9) 0.51476(8) 0.076(3) Uani 1 1 d . . . . .
H41 H 0.4388 0.5213 0.5218 0.091 Uiso 1 1 calc R . . . .
C42 C 0.5069(9) 0.5288(9) 0.50366(7) 0.072(3) Uani 1 1 d . . . . .
H42 H 0.5444 0.6098 0.5029 0.087 Uiso 1 1 calc R . . . .
C43 C 0.3588(9) 0.3432(8) 0.54069(8) 0.067(3) Uani 1 1 d . . . . .
H43 H 0.4215 0.4146 0.5435 0.080 Uiso 1 1 calc R . . . .
C44 C 0.2806(8) 0.2591(8) 0.54847(8) 0.071(3) Uani 1 1 d . . . . .
H44 H 0.2764 0.2639 0.5579 0.085 Uiso 1 1 calc R . . . .
C45 C 0.2387(8) 0.1978(9) 0.52819(7) 0.070(3) Uani 1 1 d . . . . .
H45 H 0.2011 0.1510 0.5207 0.084 Uiso 1 1 calc R . . . .
loop_
_atom_site_aniso_label
_atom_site_aniso_U_11
_atom_site_aniso_U_22
_atom_site_aniso_U_33
_atom_site_aniso_U_23
_atom_site_aniso_U_13
_atom_site_aniso_U_12
Cd1 0.0606(4) 0.0504(3) 0.0356(3) -0.0001(2) -0.0029(2) 0.0256(3)
O1 0.068(4) 0.055(4) 0.045(3) -0.007(2) -0.008(3) 0.026(3)
O2 0.058(4) 0.078(4) 0.045(3) -0.002(3) -0.011(3) 0.028(3)
O3 0.105(6) 0.088(5) 0.056(3) -0.024(3) -0.041(3) 0.055(4)
O4 0.083(9) 0.052(5) 0.047(5) 0.000(4) -0.009(5) 0.014(5)
O5 0.141(13) 0.055(5) 0.058(7) 0.001(4) -0.033(8) 0.006(6)
N1 0.070(5) 0.072(5) 0.043(3) 0.003(3) -0.004(3) 0.026(4)
N2 0.082(6) 0.073(5) 0.032(3) 0.006(3) 0.004(3) 0.025(5)
N3 0.077(6) 0.069(5) 0.039(3) -0.003(3) -0.008(3) 0.016(4)
N4 0.063(5) 0.073(5) 0.035(3) 0.000(3) 0.006(3) -0.008(4)
N5 0.062(5) 0.070(5) 0.040(3) 0.008(3) 0.008(3) 0.014(4)
N6 0.063(4) 0.067(5) 0.042(3) 0.009(3) 0.012(3) 0.016(4)
C1 0.098(8) 0.067(6) 0.039(4) -0.001(4) -0.013(4) 0.052(6)
C2 0.083(7) 0.044(5) 0.047(4) 0.005(4) 0.002(4) 0.027(5)
C3 0.070(6) 0.061(6) 0.045(4) -0.005(4) 0.001(4) 0.016(5)
C4 0.059(6) 0.054(5) 0.040(4) 0.000(3) -0.003(4) 0.013(4)
C5 0.072(7) 0.052(5) 0.049(4) -0.002(4) -0.007(4) 0.017(5)
C6 0.062(6) 0.056(6) 0.047(4) 0.008(4) 0.002(4) 0.013(5)
C7 0.061(6) 0.068(6) 0.041(4) -0.003(4) 0.005(4) 0.022(5)
C8 0.038(4) 0.071(6) 0.039(4) -0.004(4) -0.005(3) 0.000(4)
C9 0.061(6) 0.069(6) 0.041(4) 0.000(4) -0.005(4) 0.001(5)
C10 0.071(7) 0.078(7) 0.039(4) 0.003(4) 0.002(4) 0.001(5)
C11 0.043(5) 0.067(6) 0.048(4) 0.007(4) 0.005(4) -0.015(4)
C12 0.069(7) 0.070(7) 0.040(4) -0.001(4) -0.008(4) -0.012(5)
C13 0.067(6) 0.065(6) 0.043(4) -0.007(4) -0.005(4) 0.002(5)
C14 0.045(8) 0.049(5) 0.027(4) 0.005(4) 0.008(5) 0.005(5)
C15 0.086(15) 0.052(5) 0.040(7) 0.000(4) -0.014(9) 0.016(6)
C16 0.071(12) 0.050(5) 0.034(6) 0.004(4) -0.004(7) 0.011(6)
C17 0.071(10) 0.051(5) 0.033(4) 0.004(3) -0.005(6) 0.012(5)
C18 0.097(12) 0.050(5) 0.042(5) 0.000(4) -0.021(7) 0.016(6)
C19 0.090(13) 0.051(5) 0.039(5) 0.001(4) -0.017(7) 0.014(6)
C20 0.052(9) 0.052(5) 0.031(4) 0.002(3) 0.002(5) 0.010(5)
C21 0.082(14) 0.057(6) 0.054(6) -0.001(4) -0.014(7) 0.017(6)
C22 0.056(9) 0.054(5) 0.047(5) -0.004(4) 0.000(5) 0.024(5)
C23 0.058(8) 0.054(5) 0.050(5) -0.006(3) -0.004(5) 0.028(5)
C24 0.037(6) 0.051(5) 0.047(4) -0.009(3) 0.003(4) 0.034(4)
C25 0.076(8) 0.059(5) 0.055(4) -0.002(4) -0.012(5) 0.020(5)
C26 0.055(8) 0.056(6) 0.048(5) -0.003(4) -0.001(5) 0.024(5)
C27 0.047(8) 0.050(5) 0.050(5) -0.006(3) -0.002(5) 0.029(5)
C28 0.044(5) 0.053(5) 0.046(4) 0.003(3) 0.000(3) 0.009(4)
C29 0.044(5) 0.136(11) 0.068(6) 0.013(6) -0.004(4) 0.020(6)
C30 0.084(8) 0.098(8) 0.049(5) 0.025(5) -0.010(5) -0.009(7)
C31 0.069(6) 0.079(7) 0.038(4) 0.014(4) 0.005(4) 0.022(5)
C32 0.044(5) 0.081(7) 0.055(4) 0.003(4) 0.006(4) 0.025(5)
C33 0.076(7) 0.070(6) 0.048(4) -0.011(4) -0.004(4) 0.032(5)
C34 0.075(7) 0.075(7) 0.035(4) 0.005(4) -0.008(4) 0.012(6)
C35 0.067(7) 0.101(8) 0.043(4) 0.013(5) -0.004(4) 0.011(6)
C36 0.062(7) 0.117(9) 0.051(5) 0.018(5) -0.008(4) 0.023(6)
C37 0.060(6) 0.064(6) 0.040(4) 0.007(4) 0.004(4) -0.001(5)
C38 0.098(8) 0.069(7) 0.041(4) 0.005(4) 0.007(5) 0.010(6)
C39 0.091(8) 0.064(6) 0.048(5) -0.009(4) 0.007(5) 0.013(6)
C40 0.081(7) 0.053(5) 0.042(4) 0.003(4) 0.001(4) 0.024(5)
C41 0.103(8) 0.067(7) 0.050(5) 0.004(4) 0.003(5) 0.035(6)
C42 0.081(7) 0.073(7) 0.044(4) 0.001(4) 0.003(4) 0.025(6)
C43 0.071(6) 0.062(6) 0.047(4) 0.001(4) 0.007(4) 0.017(5)
C44 0.072(6) 0.062(6) 0.039(4) -0.006(4) 0.002(4) 0.004(5)
C45 0.056(5) 0.076(7) 0.044(4) 0.008(4) 0.004(4) 0.008(5)
loop_
_atom_type_symbol
_atom_type_description
_atom_type_scat_dispersion_real
_atom_type_scat_dispersion_imag
_atom_type_scat_source
C C 0.0181 0.0091 'International Tables Vol C Tables 4.2.6.8 and 6.1.1.4'
H H 0.0000 0.0000 'International Tables Vol C Tables 4.2.6.8 and 6.1.1.4'
Cd Cd 0.1185 4.6533 'International Tables Vol C Tables 4.2.6.8 and 6.1.1.4'
N N 0.0311 0.0180 'International Tables Vol C Tables 4.2.6.8 and 6.1.1.4'
O O 0.0492 0.0322 'International Tables Vol C Tables 4.2.6.8 and 6.1.1.4'
loop_
_geom_angle_atom_site_label_1
_geom_angle_atom_site_label_2
_geom_angle_atom_site_label_3
_geom_angle
_geom_angle_site_symmetry_1
_geom_angle_site_symmetry_3
O1 Cd1 O2 54.3(2) . .
O1 Cd1 O3 100.2(2) . 6_544
O1 Cd1 N6 97.4(3) . 6_554
O1 Cd1 C1 27.4(3) . .
O2 Cd1 C1 26.9(3) . .
O3 Cd1 O2 140.7(2) 6_544 .
O3 Cd1 C1 122.2(3) 6_544 .
N1 Cd1 O1 124.5(2) 1_445 .
N1 Cd1 O2 78.8(2) 1_445 .
N1 Cd1 O3 99.2(3) 1_445 6_544
N1 Cd1 N6 107.0(3) 1_445 6_554
N1 Cd1 C1 101.6(3) 1_445 .
N6 Cd1 O2 84.9(2) 6_554 .
N6 Cd1 O3 131.6(2) 6_554 6_544
N6 Cd1 C1 91.7(3) 6_554 .
C1 O1 Cd1 99.9(6) . .
C1 O2 Cd1 80.8(5) . .
C20 O3 Cd1 89.6(9) . 5_665
C27 O3 Cd1 101.0(11) . 5_665
C28 N1 Cd1 128.1(6) . 1_665
C28 N1 C29 105.8(7) . .
C29 N1 Cd1 125.0(6) . 1_665
C28 N2 C30 110.0(7) . .
C28 N2 C31 127.5(7) . .
C30 N2 C31 122.5(8) . .
C8 N3 C11 108.2(6) . .
C8 N3 C34 130.3(7) . .
C11 N3 C34 120.6(7) . .
C10 N4 C13 108.3(7) . .
C10 N4 C37 121.4(7) . .
C13 N4 C37 129.9(7) . .
C43 N5 C40 125.5(8) . .
C45 N5 C40 126.3(7) . .
C45 N5 C43 107.8(7) . .
C44 N6 Cd1 129.5(5) . 5
C45 N6 Cd1 124.8(6) . 5
C45 N6 C44 105.5(7) . .
O1 C1 Cd1 52.7(4) . .
O1 C1 C2 114.4(9) . .
O2 C1 Cd1 72.3(5) . .
O2 C1 O1 124.9(8) . .
O2 C1 C2 120.7(8) . .
C2 C1 Cd1 166.9(8) . .
C3 C2 C1 118.9(9) . .
C7 C2 C1 121.7(8) . .
C7 C2 C3 119.4(8) . .
C2 C3 H3 120.2 . .
C4 C3 C2 119.5(10) . .
C4 C3 H3 120.2 . .
C3 C4 H4 119.2 . .
C5 C4 C3 121.6(9) . .
C5 C4 H4 119.2 . .
C4 C5 C6 117.4(8) . .
C4 C5 C8 119.6(8) . .
C6 C5 C8 122.7(9) . .
C5 C6 H6 119.3 . .
C7 C6 C5 121.5(9) . .
C7 C6 H6 119.3 . .
C2 C7 C6 120.5(8) . .
C2 C7 H7 119.7 . .
C6 C7 H7 119.7 . .
N3 C8 C5 121.8(7) . .
C9 C8 N3 109.0(7) . .
C9 C8 C5 129.2(8) . .
C8 C9 H9 127.3 . .
C8 C9 C10 105.4(8) . .
C10 C9 H9 127.3 . .
N4 C10 C9 141.3(8) . .
N4 C10 C11 106.0(8) . .
C11 C10 C9 112.1(7) . .
C10 C11 N3 105.2(7) . .
C10 C11 C12 109.6(7) . .
C12 C11 N3 145.3(8) . .
C11 C12 H12 126.7 . .
C13 C12 C11 106.7(8) . .
C13 C12 H12 126.7 . .
N4 C13 C14 123.8(11) . .
N4 C13 C21 123.9(11) . .
C12 C13 N4 109.4(7) . .
C12 C13 C14 126.8(11) . .
C12 C13 C21 123.8(14) . .
C15 C14 C13 122.2(14) . .
C19 C14 C13 121.2(13) . .
C19 C14 C15 116.5(16) . .
C14 C15 H15 117.9 . .
C16 C15 C14 124.2(18) . .
C16 C15 H15 117.9 . .
C15 C16 H16 121.4 . .
C17 C16 C15 117.1(18) . .
C17 C16 H16 121.4 . .
C16 C17 C18 120.5(15) . .
C16 C17 C20 117.8(14) . .
C18 C17 C20 121.7(14) . .
C17 C18 H18 120.1 . .
C19 C18 C17 119.8(16) . .
C19 C18 H18 120.1 . .
C14 C19 C18 121.2(16) . .
C14 C19 H19 119.4 . .
C18 C19 H19 119.4 . .
O3 C20 C17 120.8(15) . .
O4 C20 O3 122.7(14) . .
O4 C20 C17 116.6(14) . .
C22 C21 C13 124.4(16) . .
C26 C21 C13 111.3(13) . .
C26 C21 C22 122.7(19) . .
C21 C22 H22 121.2 . .
C23 C22 C21 117.7(19) . .
C23 C22 H22 121.2 . .
C22 C23 H23 119.3 . .
C22 C23 C24 121.3(18) . .
C24 C23 H23 119.3 . .
C23 C24 C25 118.8(15) . .
C23 C24 C27 122.2(13) . .
C25 C24 C27 118.9(14) . .
C24 C25 H25 119.6 . .
C26 C25 C24 120.8(15) . .
C26 C25 H25 119.6 . .
C21 C26 C25 117.5(16) . .
C21 C26 H26 121.2 . .
C25 C26 H26 121.2 . .
O3 C27 O5 115.6(17) . .
O3 C27 C24 125.7(18) . .
O5 C27 C24 117.6(16) . .
N1 C28 H28 124.2 . .
N2 C28 N1 111.7(7) . .
N2 C28 H28 124.2 . .
N1 C29 H29 125.3 . .
N1 C29 C30 109.5(8) . .
C30 C29 H29 125.3 . .
N2 C30 C29 102.5(9) . .
N2 C30 H30 128.7 . .
C29 C30 H30 128.7 . .
C32 C31 N2 119.4(9) . .
C36 C31 N2 118.7(9) . .
C36 C31 C32 121.7(8) . .
C31 C32 H32 119.9 . .
C31 C32 C33 120.3(9) . .
C33 C32 H32 119.9 . .
C32 C33 H33 121.3 . .
C34 C33 C32 117.4(10) . .
C34 C33 H33 121.3 . .
C33 C34 N3 118.6(10) . .
C35 C34 N3 120.3(9) . .
C35 C34 C33 121.0(9) . .
C34 C35 H35 119.4 . .
C34 C35 C36 121.1(10) . .
C36 C35 H35 119.4 . .
C31 C36 C35 118.4(10) . .
C31 C36 H36 120.8 . .
C35 C36 H36 120.8 . .
C38 C37 N4 119.7(9) . .
C38 C37 C42 120.2(8) . .
C42 C37 N4 120.2(9) . .
C37 C38 H38 120.1 . .
C39 C38 C37 119.7(10) . .
C39 C38 H38 120.1 . .
C38 C39 H39 120.8 . .
C38 C39 C40 118.4(10) . .
C40 C39 H39 120.8 . .
C39 C40 N5 117.2(9) . .
C41 C40 N5 120.5(8) . .
C41 C40 C39 122.2(8) . .
C40 C41 H41 120.6 . .
C42 C41 C40 118.8(9) . .
C42 C41 H41 120.6 . .
C37 C42 H42 119.7 . .
C41 C42 C37 120.6(10) . .
C41 C42 H42 119.7 . .
N5 C43 H43 127.5 . .
C44 C43 N5 105.0(8) . .
C44 C43 H43 127.5 . .
N6 C44 H44 124.5 . .
C43 C44 N6 110.9(7) . .
C43 C44 H44 124.5 . .
N5 C45 N6 110.5(8) . .
N5 C45 H45 124.7 . .
N6 C45 H45 124.7 . .
loop_
_geom_bond_atom_site_label_1
_geom_bond_atom_site_label_2
_geom_bond_distance
_geom_bond_site_symmetry_2
Cd1 O1 2.213(6) .
Cd1 O2 2.645(5) .
Cd1 O3 2.347(6) 6_544
Cd1 N1 2.203(7) 1_445
Cd1 N6 2.255(7) 6_554
Cd1 C1 2.741(8) .
O1 C1 1.280(11) .
O2 C1 1.257(12) .
O3 Cd1 2.346(6) 5_665
O3 C20 1.33(2) .
O3 C27 1.11(2) .
O4 C20 1.32(2) .
O5 C27 1.25(2) .
N1 Cd1 2.203(7) 1_665
N1 C28 1.327(10) .
N1 C29 1.398(11) .
N2 C28 1.318(11) .
N2 C30 1.411(11) .
N2 C31 1.486(10) .
N3 C8 1.417(11) .
N3 C11 1.438(10) .
N3 C34 1.448(11) .
N4 C10 1.369(10) .
N4 C13 1.369(12) .
N4 C37 1.472(10) .
N5 C40 1.446(10) .
N5 C43 1.406(10) .
N5 C45 1.319(12) .
N6 Cd1 2.255(7) 5
N6 C44 1.358(11) .
N6 C45 1.356(9) .
C1 C2 1.511(12) .
C2 C3 1.414(12) .
C2 C7 1.343(13) .
C3 H3 0.9500 .
C3 C4 1.379(12) .
C4 H4 0.9500 .
C4 C5 1.357(13) .
C5 C6 1.414(12) .
C5 C8 1.435(11) .
C6 H6 0.9500 .
C6 C7 1.366(11) .
C7 H7 0.9500 .
C8 C9 1.390(10) .
C9 H9 0.9500 .
C9 C10 1.426(13) .
C10 C11 1.370(12) .
C11 C12 1.374(11) .
C12 H12 0.9500 .
C12 C13 1.337(11) .
C13 C14 1.47(2) .
C13 C21 1.57(2) .
C14 C15 1.389(12) .
C14 C19 1.384(12) .
C15 H15 0.9500 .
C15 C16 1.387(12) .
C16 H16 0.9500 .
C16 C17 1.382(12) .
C17 C18 1.394(12) .
C17 C20 1.46(2) .
C18 H18 0.9500 .
C18 C19 1.392(12) .
C19 H19 0.9500 .
C21 C22 1.375(12) .
C21 C26 1.373(12) .
C22 H22 0.9500 .
C22 C23 1.371(12) .
C23 H23 0.9500 .
C23 C24 1.376(12) .
C24 C25 1.379(11) .
C24 C27 1.51(2) .
C25 H25 0.9500 .
C25 C26 1.374(11) .
C26 H26 0.9500 .
C28 H28 0.9500 .
C29 H29 0.9500 .
C29 C30 1.412(14) .
C30 H30 0.9500 .
C31 C32 1.347(13) .
C31 C36 1.343(14) .
C32 H32 0.9500 .
C32 C33 1.391(13) .
C33 H33 0.9500 .
C33 C34 1.371(14) .
C34 C35 1.342(15) .
C35 H35 0.9500 .
C35 C36 1.369(13) .
C36 H36 0.9500 .
C37 C38 1.380(14) .
C37 C42 1.398(13) .
C38 H38 0.9500 .
C38 C39 1.377(12) .
C39 H39 0.9500 .
C39 C40 1.399(13) .
C40 C41 1.364(14) .
C41 H41 0.9500 .
C41 C42 1.357(13) .
C42 H42 0.9500 .
C43 H43 0.9500 .
C43 C44 1.345(12) .
C44 H44 0.9500 .
C45 H45 0.9500 .
loop_
_twin_individual_id
_twin_individual_mass_fraction_refined
1 0.897(15)
2 0.103(15)
