#------------------------------------------------------------------------------
#$Date: 2019-11-23 20:02:26 +0200 (Sat, 23 Nov 2019) $
#$Revision: 234759 $
#$URL: file:///home/coder/svn-repositories/cod/cif/7/70/21/7702111.cif $
#------------------------------------------------------------------------------
#
# This file is available in the Crystallography Open Database (COD),
# http://www.crystallography.net/
#
# All data on this site have been placed in the public domain by the
# contributors.
#
data_7702111
loop_
_publ_author_name
'Feng, Hui-Jun'
'Xu, Ling'
'Liu, Bing'
'Jiao, Huan'
_publ_section_title
;
 Europium metal-organic frameworks as recyclable and selective turn-off
 fluorescent sensors for aniline detection.
;
_journal_issue                   43
_journal_name_full
'Dalton transactions (Cambridge, England : 2003)'
_journal_page_first              17392
_journal_page_last               17400
_journal_paper_doi               10.1039/c6dt03358j
_journal_volume                  45
_journal_year                    2016
_chemical_formula_moiety         'C16 H8 Cl Eu O8, C6 H11 N2'
_chemical_formula_sum            'C22 H19 Cl Eu N2 O8'
_chemical_formula_weight         626.82
_space_group_crystal_system      monoclinic
_space_group_IT_number           14
_space_group_name_Hall           '-P 2yn'
_space_group_name_H-M_alt        'P 1 21/n 1'
_symmetry_Int_Tables_number      14
_atom_sites_solution_primary     dual
_audit_creation_date             2016-09-14
_audit_creation_method
;
Olex2 1.2
(compiled 2016.08.25 svn.r3337 for OlexSys, GUI svn.r5221)
;
_audit_update_record
;
2016-09-16 deposited with the CCDC.
2016-09-29 downloaded from the CCDC.
;
_cell_angle_alpha                90
_cell_angle_beta                 104.088(3)
_cell_angle_gamma                90
_cell_formula_units_Z            4
_cell_length_a                   13.0533(4)
_cell_length_b                   13.1471(3)
_cell_length_c                   14.0537(4)
_cell_measurement_reflns_used    5906
_cell_measurement_temperature    293(2)
_cell_measurement_theta_max      28.9470
_cell_measurement_theta_min      3.9960
_cell_volume                     2339.26(12)
_computing_cell_refinement       'CrystalClear (Rigaku Corp., 2002)'
_computing_data_collection       'CrystalClear (Rigaku Corp., 2002)'
_computing_data_reduction        'CrystalClear (Rigaku Corp., 2002)'
_computing_molecular_graphics    'Olex2 (Dolomanov et al., 2009)'
_computing_publication_material  'Olex2 (Dolomanov et al., 2009)'
_computing_structure_refinement  'olex2.refine (Bourhis et al., 2015)'
_computing_structure_solution    'ShelXT (Sheldrick, 2015)'
_diffrn_ambient_temperature      293(2)
_diffrn_measured_fraction_theta_full 0.9918
_diffrn_measured_fraction_theta_max 0.9918
_diffrn_measurement_device_type  'Rigaku Mercury CCD'
_diffrn_measurement_method       \w
_diffrn_radiation_monochromator  graphite
_diffrn_radiation_type           'Mo K\a'
_diffrn_radiation_wavelength     0.71073
_diffrn_reflns_av_R_equivalents  0.0413
_diffrn_reflns_av_unetI/netI     0.0720
_diffrn_reflns_limit_h_max       15
_diffrn_reflns_limit_h_min       -17
_diffrn_reflns_limit_k_max       9
_diffrn_reflns_limit_k_min       -17
_diffrn_reflns_limit_l_max       18
_diffrn_reflns_limit_l_min       -11
_diffrn_reflns_number            12986
_diffrn_reflns_theta_full        25.0270
_diffrn_reflns_theta_max         25.03
_diffrn_reflns_theta_min         3.40
_exptl_absorpt_coefficient_mu    2.846
_exptl_absorpt_correction_T_max  1.00000
_exptl_absorpt_correction_T_min  0.67767
_exptl_absorpt_correction_type   multi-scan
_exptl_absorpt_process_details   'Sphere (CrystalClear)'
_exptl_crystal_colour            colorless
_exptl_crystal_density_diffrn    1.7797
_exptl_crystal_density_method    'not measured'
_exptl_crystal_description       block
_exptl_crystal_F_000             1237.1535
_exptl_crystal_size_max          0.50
_exptl_crystal_size_mid          0.40
_exptl_crystal_size_min          0.30
_refine_diff_density_max         2.3536
_refine_diff_density_min         -0.9735
_refine_diff_density_rms         0.2136
_refine_ls_d_res_high            0.8400
_refine_ls_d_res_low             5.9857
_refine_ls_goodness_of_fit_ref   1.0352
_refine_ls_hydrogen_treatment    mixed
_refine_ls_matrix_type           full
_refine_ls_number_constraints    33
_refine_ls_number_parameters     306
_refine_ls_number_reflns         4093
_refine_ls_number_restraints     10
_refine_ls_restrained_S_all      1.0338
_refine_ls_R_factor_all          0.0572
_refine_ls_R_factor_gt           0.0436
_refine_ls_shift/su_max          0.0008
_refine_ls_shift/su_mean         0.0000
_refine_ls_structure_factor_coef Fsqd
_refine_ls_weighting_details
'w=1/[\s^2^(Fo^2^)+(0.0632P)^2^+9.5868P] where P=(Fo^2^+2Fc^2^)/3'
_refine_ls_weighting_scheme      calc
_refine_ls_wR_factor_gt          0.1149
_refine_ls_wR_factor_ref         0.1264
_reflns_Friedel_coverage         0.0
_reflns_limit_h_max              9
_reflns_limit_h_min              -15
_reflns_limit_k_max              15
_reflns_limit_k_min              0
_reflns_limit_l_max              16
_reflns_limit_l_min              -9
_reflns_number_gt                3289
_reflns_number_total             4093
_reflns_threshold_expression     I>=2u(I)
_iucr_refine_instructions_details
;
TITL 14 in P2(1)/n
CELL 0.71073 13.0533 13.1471 14.0537 90 104.088 90
ZERR 4 0.0004 0.0003 0.0004 0 0.003 0
LATT 1
SYMM 0.5-X,0.5+Y,0.5-Z
SFAC C H N O Cl Eu
UNIT 88 76 8 32 4 4
DFIX 1.5 C5 C6
DELU 0.004 0.002 C5 C6
DELU 0.01 0.005 N2 C5
DELU 0.004 0.002 O14 C18
ISOR 0.004 0.002 C6

L.S. 200
PLAN  5
acta 
BOND 
FMAP 2
DAMP 
CONF 
bond $h
SHEL 6 0.84
OMIT -1 0 3
OMIT 1 2 0
OMIT 1 4 3
OMIT 3 2 2
OMIT -1 2 4
OMIT 0 2 1
OMIT 3 3 0
OMIT 2 1 0
OMIT 2 1 1
OMIT 0 2 3
OMIT -2 2 3
OMIT -1 4 3
OMIT -3 3 3
OMIT 1 3 4
OMIT 2 1 2
OMIT 0 4 0
OMIT 1 1 4
OMIT -4 3 3
OMIT -1 2 3
OMIT -4 1 2
OMIT -6 2 5
OMIT 1 0 5
OMIT -2 3 2
OMIT -2 1 4
WGHT 0.063219 9.58684
FVAR 0.102968
REM <olex2.extras>
REM <HklSrc "%.\\14.HKL">
REM </olex2.extras>

Eu1   6     0.59068  0.05284  0.91193  11.00000  0.01959  0.01867  0.01243 =
 -0.00033  0.00055  0.00009 
Cl1   5     0.80191  0.13799  0.92281  11.00000  0.01598  0.02226  0.02871 =
 -0.01123  0.01165 -0.00501 
O11   4     0.46324 -0.06990  0.83321  11.00000  0.03099  0.04490  0.02398 =
 -0.01243  0.00584 -0.01656 
O12   4     0.34988 -0.11239  0.92446  11.00000  0.03855  0.03877  0.01634 =
 -0.00701  0.00645 -0.01162 
O13   4     0.20330 -0.40722  0.47279  11.00000  0.03827  0.03317  0.02446 =
 -0.01625  0.01037 -0.01381 
O14   4     0.06878 -0.41405  0.54179  11.00000  0.02424  0.02477  0.02334 =
 -0.00334  0.00253 -0.01053 
C11   1     0.32141 -0.17950  0.76432  11.00000  0.02532  0.02560  0.01596 =
 -0.00680  0.00010 -0.00432 
C12   1     0.34427 -0.17853  0.67278  11.00000  0.03672  0.03481  0.02501 =
 -0.00850  0.01133 -0.02119 
AFIX 43
H12   2     0.39474 -0.13390  0.66034  11.00000 -1.20000 
AFIX 0
C13   1     0.29220 -0.24358  0.60084  11.00000  0.03961  0.03691  0.01773 =
 -0.00754  0.00504 -0.01336 
AFIX 43
H13   2     0.31015 -0.24488  0.54075  11.00000 -1.20000 
AFIX 0
C14   1     0.21308 -0.30757  0.61625  11.00000  0.02429  0.02100  0.01786 =
 -0.00207 -0.00333 -0.00850 
C15   1     0.18766 -0.30610  0.70630  11.00000  0.02885  0.03037  0.02959 =
 -0.00435  0.01336 -0.01059 
AFIX 43
H15   2     0.13383 -0.34752  0.71708  11.00000 -1.20000 
AFIX 0
C16   1     0.24247 -0.24280  0.78060  11.00000  0.03334  0.03249  0.01701 =
 -0.00671  0.00601 -0.01193 
AFIX 43
H16   2     0.22615 -0.24291  0.84143  11.00000 -1.20000 
AFIX 0
C17   1     0.38429 -0.11509  0.84751  11.00000  0.03294  0.02262  0.02068 =
 -0.00889  0.00220 -0.00736 
C18   1     0.15976 -0.37971  0.53945  11.00000  0.02285  0.02573  0.02091 =
 0.00345 -0.00283 -0.00052 
O21   4     0.55732  0.24746  0.91369  11.00000  0.04161  0.01972  0.04660 =
 -0.00647  0.00427 -0.00868 
O22   4     0.70984  0.32934  0.97565  11.00000  0.04039  0.04234  0.08383 =
 -0.02012  0.01755 -0.01078 
C21   1     0.55218  0.41588  0.97665  11.00000  0.04590  0.02042  0.03790 =
 -0.00474  0.01025 -0.00638 
C22   1     0.60915  0.49185  1.03788  11.00000  0.03953  0.03338  0.06158 =
 -0.01032  0.00411 -0.00143 
AFIX 43
H22   2     0.68163  0.48568  1.06327  11.00000 -1.20000 
AFIX 0
C23   1     0.44422  0.42494  0.94065  11.00000  0.04464  0.03735  0.04610 =
 -0.02344 -0.00427 -0.01185 
AFIX 43
H23   2     0.40718  0.37368  0.90119  11.00000 -1.20000 
AFIX 0
C24   1     0.60676  0.32136  0.95183  11.00000  0.03976  0.03162  0.03408 =
 0.00305  0.00993 -0.00625 
O31   4     0.64147 -0.01341  0.76074  11.00000  0.02793  0.04089  0.01848 =
 -0.00358  0.00378  0.00392 
O32   4     0.52721  0.11129  0.74435  11.00000  0.04244  0.03398  0.01919 =
 0.00277  0.01089  0.01183 
C31   1     0.53514  0.02026  0.59963  11.00000  0.02419  0.03149  0.01717 =
 0.00119  0.00237 -0.00125 
C32   1     0.57945 -0.05567  0.55833  11.00000  0.04094  0.04722  0.02202 =
 -0.00615  0.00247  0.01948 
AFIX 43
H32   2     0.63338 -0.09439  0.59710  11.00000 -1.20000 
AFIX 0
C33   1     0.45493  0.07661  0.54208  11.00000  0.04172  0.04715  0.02416 =
 -0.00615  0.00619  0.01784 
AFIX 43
H33   2     0.42350  0.12861  0.56978  11.00000 -1.20000 
AFIX 0
C34   1     0.57044  0.04173  0.70813  11.00000  0.02305  0.03112  0.01792 =
 0.00355  0.00545 -0.00054 

N1    3     0.93673  0.07825  0.73831  11.00000  0.07800  0.13487  0.07317 =
 -0.03732  0.02685  0.00011 
N2    3     0.95755 -0.06199  0.82106  11.00000  0.07166  0.07596  0.14019 =
 -0.03400  0.01198  0.00594 
C1    1     0.88986 -0.00030  0.76760  11.00000  0.04707  0.09503  0.09064 =
 -0.04042  0.01244  0.00762 
AFIX 43
H1    2     0.81715 -0.01029  0.75187  11.00000 -1.20000 
AFIX 0
C2    1     1.04329  0.06232  0.77507  11.00000  0.07165  0.12004  0.09866 =
 -0.02998  0.00681 -0.01062 
AFIX 43
H2    2     1.09760  0.10435  0.76639  11.00000 -1.20000 
AFIX 0
C3    1     1.05385 -0.02255  0.82424  11.00000  0.04981  0.08902  0.13683 =
 -0.01196  0.00905  0.00906 
AFIX 43
H3    2     1.11786 -0.05154  0.85656  11.00000 -1.20000 
AFIX 0
C4    1     0.87314  0.17698  0.67843  11.00000  0.33646  0.24059  0.07679 =
 0.06271  0.06432  0.11470 
AFIX 33
H4a   2     0.92327  0.22476  0.66469  11.00000 -1.50000 
H4b   2     0.82735  0.15427  0.61794  11.00000 -1.50000 
H4c   2     0.83195  0.20914  0.71794  11.00000 -1.50000 
AFIX 0
C5    1     0.93863 -0.15407  0.89340  11.00000  0.20824  0.09099  0.46924 =
 0.09604  0.16468  0.05147 
AFIX 23
H5a   2     1.00106 -0.17223  0.94373  11.00000 -1.20000 
H5b   2     0.87818 -0.14394  0.92107  11.00000 -1.20000 
AFIX 0
C6    1     0.91813 -0.22006  0.80852  11.00000  0.42667  0.42542  0.42516 =
 -0.00034  0.10372 -0.00027 
AFIX 33
H6a   2     0.90257 -0.28737  0.82747  11.00000 -1.50000 
H6b   2     0.85895 -0.19445  0.75978  11.00000 -1.50000 
H6c   2     0.97926 -0.22215  0.78197  11.00000 -1.50000 
AFIX 0
HKLF 4

END
Q1 1 0.775 0.15 0.944444 11 0.05 2.35
Q2 1 0.825 0.15 0.9 11 0.05 2.19
Q3 1 0.85 -0.2 0.822222 11 0.05 1
Q4 1 0.775 0.2 0.711111 11 0.05 0.81
Q5 1 0.9 0.2 0.655556 11 0.05 0.8
Q6 1 0.775 -0.05 0.733333 11 0.05 0.78
Q7 1 0.9 -0.125 0.8 11 0.05 0.77
Q8 1 0.875 0.225 0.722222 11 0.05 0.76
Q9 1 0.3 -0.25 0.422222 11 0.05 0.67
Q10 1 0.975 -0.15 0.822222 11 0.05 0.65
Q11 1 0.7 0.5 1.111111 11 0.05 0.64
Q12 1 1.025 0.075 0.833333 11 0.05 0.63
Q13 1 0.425 -0.075 0.844444 11 0.05 0.63
Q14 1 0.125 -0.35 0.6 11 0.05 0.62
Q15 1 0 -0.45 0.577778 11 0.05 0.62
Q16 1 0.875 0.125 0.677778 11 0.05 0.61
Q17 1 0.925 0.325 0.588889 11 0.05 0.61
Q18 1 0.025 -0.425 0.5 11 0.05 0.6
Q19 1 0.925 -0.125 0.9 11 0.05 0.6
Q20 1 0.875 -0.05 0.788889 11 0.05 0.6

  REM The information below was added by Olex2.
  REM
  REM R1 = 0.0436 for 3289 Fo > 4sig(Fo) and 0.0572 for all 4093 data
  REM 306 parameters refined using 10 restraints
  REM Highest difference peak 2.3536, deepest hole -0.9735
  REM Mean Shift 0.0000, Max Shift 0.0008.
  
  REM +++ Tabular Listing of Refinement Information +++
  REM R1_all = 0.0572
  REM R1_gt = 0.0436
  REM wR_ref = 0.1264
  REM GOOF = 1.0352
  REM Shift_max = 0.0008
  REM Shift_mean = 0.0000
  REM Reflections_all = 4093
  REM Reflections_gt = 3289
  REM Parameters = 306
  REM Hole = -0.9735
  REM Peak = 2.3536
  REM Flack = n/a
  
  
;
_cod_data_source_file            c6dt03358j2.cif
_cod_data_source_block           Comp-4
_cod_original_sg_symbol_Hall     '-P 2ybc (x-z,y,z)'
_cod_database_code               7702111
_olex2_refinement_description
;
1. Fixed Uiso
 At 1.2 times of:
  All C(H) groups, All C(H,H) groups
 At 1.5 times of:
  All C(H,H,H) groups
2. Restrained distances
 C5-C6
 1.5 with sigma of 0.02
3. Rigid bond restraints
 C5, C6
 with sigma for 1-2 distances of 0.004 and sigma for 1-3 distances of 0.002
 N2, C5
 with sigma for 1-2 distances of 0.01 and sigma for 1-3 distances of 0.005
 O14, C18
 with sigma for 1-2 distances of 0.004 and sigma for 1-3 distances of 0.002
4. Uiso/Uaniso restraints and constraints
Uanis(C6) \\sim Ueq: with sigma of 0.004 and sigma for terminal atoms of 0.002
5.a Secondary CH2 refined with riding coordinates:
 C5(H5a,H5b)
5.b Me refined with riding coordinates:
 C4(H4a,H4b,H4c), C6(H6a,H6b,H6c)
5.c Aromatic/amide H refined with riding coordinates:
 C12(H12), C13(H13), C15(H15), C16(H16), C22(H22), C23(H23), C32(H32),
 C33(H33), C1(H1), C2(H2), C3(H3)
;
_iucr_refine_fcf_details
;
data_14
_computing_structure_refinement   'olex2.refine (Bourhis et al., 2015)'
_shelx_refln_list_code            4
loop_
  _space_group_symop_id
  _space_group_symop_operation_xyz
  1  x,y,z
  2  -x+1/2,y+1/2,-z+1/2
  3  -x,-y,-z
  4  x-1/2,-y-1/2,z-1/2

_space_group_crystal_system       monoclinic
_space_group_IT_number            14
_space_group_name_H-M_alt         'P 1 21/n 1'
_space_group_name_Hall            '-P 2ybc (x-z,y,z)'
_symmetry_space_group_name_H-M    'P 1 21/n 1'
_symmetry_space_group_name_Hall   '-P 2ybc (x-z,y,z)'
_symmetry_Int_Tables_number       14
_cell_length_a                    13.0533(4)
_cell_length_b                    13.1471(3)
_cell_length_c                    14.0537(4)
_cell_angle_alpha                 90
_cell_angle_beta                  104.088(3)
_cell_angle_gamma                 90
_cell_volume                      2339.26(12)
loop_
  _refln_index_h
  _refln_index_k
  _refln_index_l
  _refln_F_squared_calc
  _refln_F_squared_meas
  _refln_F_squared_sigma
  _refln_F_squared_weight
  _refln_observed_status
-15 0 1 7497.260 6321.920 835.662 1.525 o
-15 0 3 1015.260 1166.300 227.669 22.170 o
-15 0 5 1115.210 922.517 198.471 27.398 o
-15 0 7 6437.630 6522.250 529.296 2.899 o
-15 1 0 2764.860 2773.980 289.097 10.490 o
-15 1 1 34.549 -13.048 73.719 260.936 o
-15 1 2 5015.020 5030.950 385.372 4.964 o
-15 1 3 734.859 512.410 132.234 57.745 o
-15 1 4 153.159 44.385 98.132 136.619 o
-15 1 5 1145.690 1232.390 194.477 27.039 o
-15 1 6 4662.550 4917.940 386.022 5.187 o
-15 1 7 18.776 -73.820 90.946 175.912 o
-15 1 8 4108.010 4199.090 481.496 4.342 o
-15 2 1 2964.770 3255.850 317.158 8.818 o
-15 2 2 676.060 476.748 121.663 66.702 o
-15 2 3 1985.470 1915.600 246.074 15.580 o
-15 2 4 3407.520 3119.570 307.037 8.691 o
-15 2 5 87.626 -1.350 100.578 138.099 o
-15 2 6 1052.680 1087.960 226.462 22.361 o
-15 2 7 2464.560 3218.920 392.441 7.045 o
-15 3 2 1307.830 1280.240 251.588 17.896 o
-15 3 3 3086.610 2673.070 362.076 7.605 o
-15 3 4 140.004 133.456 110.094 109.204 o
-15 3 5 5822.570 5855.090 526.769 3.145 o
-15 3 6 369.351 261.059 135.524 67.085 o
-15 4 4 3019.920 3739.850 908.287 1.643 o
-14 0 -2 8135.280 7769.480 563.426 2.268 o
-14 0 0 42.417 -17.669 87.381 186.634 o
-14 0 2 5704.930 5678.520 469.093 3.651 o
-14 0 4 3907.910 3552.070 375.956 6.280 o
-14 0 6 298.128 236.614 107.139 102.172 o
-14 0 8 8006.290 8320.870 931.867 1.221 o
-14 0 10 5065.780 4110.930 418.358 4.753 o
-14 1 -3 8447.500 8646.370 424.317 2.677 o
-14 1 -2 37.602 109.868 66.808 291.173 o
-14 1 -1 2253.950 2469.860 223.327 15.739 o
-14 1 0 1563.050 1116.020 211.829 22.226 o
-14 1 1 2108.110 2646.900 227.939 15.571 o
-14 1 2 632.882 688.775 119.681 66.299 o
-14 1 3 4997.920 5098.930 314.264 5.948 o
-14 1 4 373.173 76.879 67.765 196.209 o
-14 1 5 1675.440 1504.670 172.835 26.428 o
-14 1 6 1635.590 1475.280 172.358 26.899 o
-14 1 7 3437.170 3829.380 276.127 9.150 o
-14 1 8 334.411 87.485 67.252 205.211 o
-14 1 9 5236.630 5376.440 379.392 4.822 o
-14 1 10 471.579 362.753 111.201 85.349 o
-14 2 -3 36.831 93.806 88.804 175.038 o
-14 2 -2 1505.150 1363.010 197.813 23.965 o
-14 2 -1 2974.560 2847.750 285.065 10.270 o
-14 2 0 88.524 148.453 70.238 245.192 o
-14 2 1 3980.170 3707.690 325.515 7.247 o
-14 2 2 4512.740 4943.480 378.314 5.380 o
-14 2 3 1.728 -133.404 90.628 179.492 o
-14 2 4 995.838 1468.950 250.749 18.627 o
-14 2 5 4699.490 4566.270 358.521 5.683 o
-14 2 6 466.886 465.768 145.713 55.550 o
-14 2 7 2462.770 1895.600 282.016 12.101 o
-14 2 8 3087.560 3358.890 388.683 6.652 o
-14 2 9 233.458 390.274 140.715 64.559 o
-14 2 10 732.744 961.140 210.261 27.047 o
-14 3 -2 1564.150 1391.140 527.241 4.896 o
-14 3 -1 61.947 98.634 110.657 113.748 o
-14 3 0 6863.310 7865.490 591.894 2.357 o
-14 3 1 336.076 510.263 156.062 51.338 o
-14 3 2 1127.980 851.454 196.856 27.869 o
-14 3 3 884.619 1360.030 311.251 13.272 o
-14 3 4 2051.000 2058.170 303.061 11.499 o
-14 3 5 44.783 19.335 85.367 193.200 o
-14 3 6 6459.270 5696.030 502.067 3.172 o
-14 3 7 730.185 742.770 189.056 32.850 o
-14 3 8 7.889 0.721 104.815 133.728 o
-14 3 9 656.825 637.975 180.249 36.524 o
-14 4 -2 124.053 6.100 78.229 212.075 o
-14 4 -1 4109.750 4739.640 688.054 2.505 o
-14 4 0 25.948 -83.040 87.945 186.832 o
-14 4 1 3075.920 3588.840 410.384 6.108 o
-14 4 2 158.426 600.824 354.638 11.437 o
-14 4 3 489.467 526.116 164.302 44.992 o
-14 4 4 2.682 21.884 148.552 66.631 o
-14 4 5 5966.030 6749.950 554.920 2.825 o
-14 4 6 14.268 -42.915 98.274 151.417 o
-14 4 7 561.099 545.724 166.987 42.851 o
-14 4 8 106.846 265.983 118.293 94.458 o
-14 4 9 394.491 171.192 150.438 56.540 o
-14 5 -1 43.965 30.182 111.767 114.652 o
-14 5 0 2835.700 3579.390 614.957 3.312 o
-14 5 1 65.328 129.216 153.739 60.263 o
-14 5 2 639.892 409.342 213.160 28.333 o
-14 5 3 7.184 -284.842 253.717 22.916 o
-14 5 4 1421.420 1503.440 392.365 8.377 o
-14 5 5 82.497 -65.683 117.517 102.875 o
-14 5 6 2535.230 3337.180 571.099 3.840 o
-14 5 7 1.056 -84.096 111.043 119.655 o
-14 5 8 56.297 69.776 85.830 185.354 o
-14 6 1 1674.020 1913.720 468.763 5.932 o
-14 6 2 46.641 -124.500 215.046 31.715 o
-14 6 3 465.338 41.500 134.875 67.973 o
-14 6 4 45.053 38.671 139.591 74.164 o
-14 6 5 2320.020 2966.320 566.854 3.976 o
-14 6 6 51.473 97.148 145.251 67.857 o
-13 0 -5 1710.470 1482.690 328.228 11.010 o
-13 0 -3 8410.120 9493.670 746.531 1.556 o
-13 0 -1 6676.260 7605.400 715.878 1.906 o
-13 0 1 317.677 197.619 123.557 80.949 o
-13 0 3 5808.490 7421.230 512.923 3.044 o
-13 0 5 6929.620 7531.730 516.828 2.741 o
-13 0 7 6.037 0.996 82.975 213.119 o
-13 0 9 5887.410 7063.530 519.695 3.026 o
-13 0 11 2821.950 3150.240 509.320 4.587 o
-13 1 -5 807.185 567.657 122.602 61.207 o
-13 1 -4 1306.080 1441.840 169.763 30.082 o
-13 1 -3 996.896 849.606 130.935 49.503 o
-13 1 -2 8324.820 8981.810 409.865 2.725 o
-13 1 -1 22.830 72.456 57.251 403.191 o
-13 1 0 3732.420 3862.560 263.414 9.081 o
-13 1 1 926.388 1041.580 136.436 46.739 o
-13 1 2 1375.220 1548.870 166.908 29.640 o
-13 1 3 351.344 313.316 74.808 158.709 o
-13 1 4 4633.280 4656.560 286.096 6.949 o
-13 1 5 56.313 129.188 60.680 329.452 o
-13 1 6 1631.830 1407.710 161.983 29.027 o
-13 1 7 710.924 738.125 119.467 63.503 o
-13 1 8 1139.640 1315.640 159.185 34.680 o
-13 1 9 4.657 -24.871 67.978 317.407 o
-13 1 10 3714.380 3953.150 320.844 7.500 o
-13 1 11 4.055 64.911 66.983 312.599 o
-13 1 12 1.206 -2.731 75.866 256.138 o
-13 2 -5 4.291 65.985 105.165 130.633 o
-13 2 -4 3107.330 2853.060 240.882 11.952 o
-13 2 -3 3045.190 3113.740 218.915 12.842 o
-13 2 -2 828.886 476.444 88.227 88.785 o
-13 2 -1 3933.090 4129.790 274.842 8.304 o
-13 2 0 2941.170 3112.690 237.745 12.180 o
-13 2 1 117.183 82.996 53.502 376.457 o
-13 2 2 4766.580 4781.370 291.150 6.665 o
-13 2 3 5488.170 6059.510 325.596 5.102 o
-13 2 4 787.146 578.514 102.985 75.535 o
-13 2 5 2675.520 2695.790 220.482 14.321 o
-13 2 6 670.370 842.638 143.739 49.612 o
-13 2 7 102.694 6.776 69.259 268.658 o
-13 2 8 58.206 134.556 75.059 228.382 o
-13 2 9 5740.870 5645.510 373.964 4.544 o
-13 2 10 2.631 44.657 70.591 286.994 o
-13 2 11 1160.840 1307.390 241.240 19.516 o
-13 2 12 856.959 1032.560 166.665 36.995 o
-13 3 -4 1430.240 1185.610 177.055 28.638 o
-13 3 -3 1539.580 1318.830 199.695 23.611 o
-13 3 -2 892.384 1023.700 168.399 36.150 o
-13 3 -1 992.909 1028.820 165.202 36.040 o
-13 3 0 134.118 163.355 257.490 21.785 o
-13 3 1 6532.050 6721.840 592.320 2.511 o
-13 3 2 3622.410 3278.000 367.189 6.783 o
-13 3 3 1480.130 1186.460 231.091 19.871 o
-13 3 4 819.159 945.106 202.077 28.359 o
-13 3 5 1935.400 2089.420 295.716 12.073 o
-13 3 6 52.901 223.734 116.508 100.592 o
-13 3 7 2727.680 3001.370 913.946 1.651 o
-13 3 8 3356.230 3271.410 370.355 6.920 o
-13 3 9 389.743 228.499 144.307 60.261 o
-13 3 10 1743.810 1732.360 277.439 13.959 o
-13 3 11 1833.240 2220.510 318.108 10.903 o
-13 4 -4 4548.700 5156.320 483.550 3.994 o
-13 4 -3 423.583 371.615 139.125 61.740 o
-13 4 -2 73.164 -34.059 148.080 65.888 o
-13 4 -1 4.082 -126.327 148.552 66.816 o
-13 4 0 6063.150 6686.280 490.933 3.221 o
-13 4 1 392.793 98.091 145.251 60.829 o
-13 4 2 5455.780 5656.280 707.389 2.186 o
-13 4 3 2084.150 2463.600 471.593 5.610 o
-13 4 4 157.391 125.888 170.717 48.182 o
-13 4 5 2.338 4.030 90.572 179.346 o
-13 4 6 5780.980 6039.830 504.204 3.295 o
-13 4 7 745.170 740.881 193.035 31.676 o
-13 4 8 2042.670 2137.040 310.205 11.074 o
-13 4 9 1230.950 1069.570 221.538 22.400 o
-13 4 10 1004.350 831.692 196.335 28.828 o
-13 4 11 43.928 153.623 141.949 70.473 o
-13 5 -3 386.948 530.082 521.581 5.330 o
-13 5 -2 189.157 130.609 88.684 153.674 o
-13 5 -1 3253.380 3006.260 342.926 7.844 o
-13 5 0 41.572 36.385 72.260 263.146 o
-13 5 1 8672.380 9695.000 955.447 1.115 o
-13 5 2 133.014 -20.750 145.251 67.164 o
-13 5 3 65.410 65.080 131.103 82.789 o
-13 5 4 76.677 -116.955 186.751 41.729 o
-13 5 5 4662.360 3669.930 583.832 3.228 o
-13 5 6 375.574 261.262 142.421 61.575 o
-13 5 7 6170.120 6603.690 540.524 2.883 o
-13 5 8 0.282 134.002 207.029 34.093 o
-13 5 9 3.406 35.187 93.173 167.443 o
-13 5 10 212.383 166.585 111.634 101.758 o
-13 6 -2 272.718 180.877 83.760 154.237 o
-13 6 -1 877.912 1104.790 219.762 24.172 o
-13 6 0 5133.610 5657.220 753.605 2.018 o
-13 6 1 84.690 -62.250 188.637 40.849 o
-13 6 2 2876.450 3635.040 598.923 3.450 o
-13 6 3 706.174 704.559 293.331 15.572 o
-13 6 4 623.689 615.900 253.717 20.541 o
-13 6 5 577.555 594.207 231.080 24.462 o
-13 6 6 8066.600 8107.620 889.424 1.307 o
-13 6 7 236.515 247.115 188.637 38.730 o
-13 6 8 1406.490 2037.420 411.700 7.553 o
-13 6 9 511.788 518.345 163.879 44.952 o
-13 7 -1 1379.100 1693.960 451.786 6.499 o
-13 7 0 23.824 -80.171 170.717 50.387 o
-13 7 1 2412.200 2844.650 550.820 4.170 o
-13 7 2 1707.890 1159.170 368.785 9.231 o
-13 7 3 65.501 -192.410 231.080 27.427 o
-13 7 4 3446.890 3604.850 613.070 3.221 o
-13 7 5 1962.880 1745.840 452.729 6.219 o
-13 7 6 8.246 -74.512 162.228 55.979 o
-13 7 7 4642.960 5528.950 760.207 2.043 o
-13 7 8 3065.230 3500.160 611.184 3.314 o
-13 8 1 784.818 436.695 216.933 26.715 o
-13 8 2 524.128 116.012 131.103 68.628 o
-13 8 3 5022.290 6833.380 865.844 1.587 o
-13 8 4 9.602 -228.251 239.569 25.694 o
-13 8 5 2052.460 2147.630 491.400 5.295 o
-13 8 6 1475.040 2070.290 486.684 5.590 o
-12 0 -6 5213.640 6053.160 470.392 3.742 o
-12 0 -4 188.796 276.711 107.003 107.512 o
-12 0 -2 2772.090 2903.740 315.100 9.345 o
-12 0 0 1748.710 2172.150 268.884 14.101 o
-12 0 2 42.940 32.942 119.313 100.962 o
-12 0 4 8472.770 8354.900 518.937 2.327 o
-12 0 6 3464.960 3897.610 359.844 6.830 o
-12 0 8 7.539 -135.199 151.853 63.885 o
-12 0 10 5046.160 6468.740 483.216 3.616 o
-12 0 12 347.522 472.536 171.660 43.670 o
-12 1 -7 4563.390 4989.360 633.820 2.758 o
-12 1 -6 52.769 61.742 52.194 451.284 o
-12 1 -5 2725.610 2501.840 241.426 13.205 o
-12 1 -4 72.946 84.537 55.174 388.062 o
-12 1 -3 4319.440 4387.740 275.709 7.649 o
-12 1 -2 167.165 143.461 50.548 352.883 o
-12 1 -1 5816.780 6290.260 322.512 4.857 o
-12 1 0 146.656 141.299 65.681 255.102 o
-12 1 1 2755.810 2792.180 213.729 14.355 o
-12 1 2 85.704 46.933 55.243 391.502 o
-12 1 3 2148.780 2277.100 191.910 19.163 o
-12 1 4 69.562 22.470 56.836 392.793 o
-12 1 5 9370.820 9847.470 397.878 2.410 o
-12 1 6 165.012 200.195 59.255 276.944 o
-12 1 7 645.167 661.644 108.698 74.764 o
-12 1 8 296.531 334.695 78.003 156.520 o
-12 1 9 2760.520 2986.220 264.602 11.414 o
-12 1 10 455.704 549.554 122.096 71.926 o
-12 1 11 2763.810 2922.490 271.315 11.156 o
-12 1 12 111.117 54.582 59.120 334.457 o
-12 1 13 252.574 200.034 108.190 104.109 o
-12 2 -6 3987.220 4269.940 404.277 5.485 o
-12 2 -5 438.792 589.378 123.070 71.007 o
-12 2 -4 241.328 143.809 64.844 231.347 o
-12 2 -3 2635.110 2693.690 219.579 14.497 o
-12 2 -2 6830.590 6768.140 300.845 4.327 o
-12 2 -1 42.105 -20.928 46.548 605.264 o
-12 2 0 3672.840 4041.110 320.058 7.516 o
-12 2 1 1279.740 1376.840 161.459 32.424 o
-12 2 2 13.875 -50.443 60.962 387.929 o
-12 2 3 1137.820 1255.250 143.709 39.395 o
-12 2 4 6728.660 6966.850 378.464 3.749 o
-12 2 5 1.631 -14.162 60.189 406.315 o
-12 2 6 5028.230 5254.090 291.460 6.203 o
-12 2 7 30.845 52.896 52.598 470.343 o
-12 2 8 640.990 796.600 139.070 52.908 o
-12 2 9 70.171 105.942 98.334 140.814 o
-12 2 10 6027.080 5643.820 367.843 4.460 o
-12 2 11 676.939 830.185 147.096 48.031 o
-12 2 12 1114.540 1098.360 174.751 32.031 o
-12 2 13 949.749 1083.960 174.471 33.606 o
-12 3 -6 659.691 657.969 175.813 37.885 o
-12 3 -5 1790.160 1349.340 226.646 18.947 o
-12 3 -4 5151.850 5595.920 645.139 2.548 o
-12 3 -3 1230.370 1051.150 165.502 33.482 o
-12 3 -2 3576.730 4023.120 294.267 8.304 o
-12 3 -1 3704.950 3739.560 278.430 8.769 o
-12 3 0 2685.460 3149.560 248.411 12.182 o
-12 3 1 1280.910 1452.730 208.472 23.267 o
-12 3 2 8608.650 9536.520 884.236 1.246 o
-12 3 3 3288.940 3242.050 257.769 10.496 o
-12 3 4 1048.790 992.980 142.536 42.870 o
-12 3 5 7122.990 6898.740 374.166 3.635 o
-12 3 6 1870.400 1707.470 190.459 22.077 o
-12 3 7 548.234 655.110 118.196 70.531 o
-12 3 8 2743.500 3243.160 313.788 9.214 o
-12 3 9 1906.360 1842.740 205.176 19.849 o
-12 3 10 160.632 131.033 81.130 181.840 o
-12 3 11 3508.890 3342.060 286.455 9.066 o
-12 3 12 2762.420 2944.940 274.084 11.013 o
-12 4 -6 812.303 466.877 228.251 24.310 o
-12 4 -5 3142.270 3295.490 514.979 4.386 o
-12 4 -4 2.893 131.103 142.421 71.213 o
-12 4 -3 6079.030 6166.750 488.477 3.308 o
-12 4 -2 417.131 269.175 175.432 42.367 o
-12 4 -1 135.554 60.335 67.825 258.618 o
-12 4 0 961.596 861.523 167.049 36.678 o
-12 4 1 11266.400 10943.800 948.844 0.981 o
-12 4 2 11.774 57.534 106.580 127.027 o
-12 4 3 5610.480 6103.350 700.787 2.172 o
-12 4 4 229.908 -19.807 177.319 44.727 o
-12 4 5 260.225 149.023 91.489 137.853 o
-12 4 6 158.809 274.793 129.822 78.095 o
-12 4 7 7541.870 7550.930 546.213 2.468 o
-12 4 8 1.611 130.691 103.750 131.805 o
-12 4 9 3475.550 3357.630 373.287 6.726 o
-12 4 10 843.345 468.268 146.194 48.686 o
-12 4 11 561.320 481.432 145.057 54.054 o
-12 4 12 508.956 303.071 194.296 34.534 o
-12 5 -5 194.721 289.558 176.376 44.089 o
-12 5 -4 10353.100 10650.100 1094.570 0.851 o
-12 5 -3 120.397 128.685 100.541 130.064 o
-12 5 -2 2622.650 2661.630 317.893 9.580 o
-12 5 -1 307.192 273.214 170.245 45.889 o
-12 5 0 3952.820 3737.200 350.276 6.707 o
-12 5 1 187.269 191.746 78.748 181.060 o
-12 5 2 13839.500 14045.900 1098.810 0.698 o
-12 5 3 251.860 149.023 150.910 58.934 o
-12 5 4 2233.040 2054.260 430.092 6.570 o
-12 5 5 890.667 539.502 211.273 27.114 o
-12 5 6 4362.690 4184.910 623.445 2.929 o
-12 5 7 2.446 54.705 149.023 65.903 o
-12 5 8 8689.210 8632.310 598.460 1.990 o
-12 5 9 46.313 132.815 98.091 142.425 o
-12 5 10 948.683 728.045 187.764 31.607 o
-12 5 11 26.800 -40.061 78.843 231.064 o
-12 5 12 3952.280 3780.290 407.298 5.595 o
-12 6 -5 4318.230 4925.870 487.627 4.069 o
-12 6 -4 11.189 -74.424 100.000 146.570 o
-12 6 -3 5073.030 5151.640 459.484 4.056 o
-12 6 -2 1814.220 1963.250 279.454 13.439 o
-12 6 -1 12.876 36.428 66.067 323.362 o
-12 6 0 1179.350 1040.150 194.791 27.370 o
-12 6 1 8080.820 8347.790 507.308 2.450 o
-12 6 2 45.615 11.318 150.910 63.889 o
-12 6 3 4024.250 3680.310 582.888 3.368 o
-12 6 4 1694.450 1656.230 392.365 8.139 o
-12 6 5 222.586 118.841 149.023 61.123 o
-12 6 6 2977.740 2119.340 448.013 5.778 o
-12 6 7 8742.040 8953.660 915.833 1.197 o
-12 6 8 108.399 245.228 193.353 37.894 o
-12 6 9 4110.840 4378.060 438.961 4.865 o
-12 6 10 1519.520 1162.900 221.373 21.006 o
-12 6 11 332.088 330.078 127.575 74.213 o
-12 7 -4 3856.860 3865.330 417.747 5.446 o
-12 7 -3 1234.390 1034.640 208.427 24.568 o
-12 7 -2 477.562 335.776 116.794 79.770 o
-12 7 -1 5216.540 5367.990 445.950 4.098 o
-12 7 0 1382.550 1241.230 369.729 9.425 o
-12 7 1 768.353 498.945 276.353 17.425 o
-12 7 2 6629.810 7380.420 845.094 1.523 o
-12 7 3 1377.170 886.594 295.217 14.103 o
-12 7 4 332.577 215.046 199.012 34.521 o
-12 7 5 6013.880 6058.080 765.866 1.870 o
-12 7 6 3384.930 3500.160 582.888 3.520 o
-12 7 7 681.810 516.866 232.024 24.037 o
-12 7 8 4680.880 4358.460 671.548 2.552 o
-12 7 9 1201.090 1171.440 352.751 10.431 o
-12 7 10 676.256 550.822 162.488 43.299 o
-12 8 -2 5125.880 4577.980 429.449 4.481 o
-12 8 -1 9.994 -27.352 107.523 126.983 o
-12 8 0 4621.930 5501.600 760.207 2.046 o
-12 8 1 269.494 689.468 282.956 17.437 o
-12 8 2 390.036 158.455 154.682 54.040 o
-12 8 3 51.511 40.557 149.023 65.101 o
-12 8 4 7706.430 7022.010 850.753 1.449 o
-12 8 5 7.514 -185.807 174.489 48.409 o
-12 8 6 5365.420 4727.240 700.787 2.283 o
-12 8 7 1294.280 1482.690 402.740 8.086 o
-12 8 8 447.319 155.626 117.898 83.186 o
-12 8 9 97.170 279.183 204.671 33.934 o
-12 9 -1 4457.480 5327.110 784.730 1.965 o
-12 9 0 59.215 -265.978 241.455 25.155 o
-12 9 1 888.789 510.263 248.058 20.743 o
-12 9 2 151.291 -103.750 262.205 21.162 o
-12 9 3 1090.260 874.333 301.819 14.059 o
-12 9 4 3.210 -40.557 205.614 34.901 o
-12 9 5 3603.100 3743.500 637.593 2.984 o
-12 9 6 15.634 -147.137 174.489 48.326 o
-12 9 7 120.470 17.921 139.591 72.567 o
-11 0 -7 3022.570 2751.270 485.740 4.947 o
-11 0 -5 1905.950 2185.490 321.626 10.652 o
-11 0 -3 37.224 -4.612 59.124 395.136 o
-11 0 -1 8255.030 9190.150 522.309 2.277 o
-11 0 1 4828.590 4858.160 376.384 5.242 o
-11 0 3 2209.870 2386.390 263.548 13.207 o
-11 0 5 17500.900 17897.500 933.753 0.646 o
-11 0 7 7554.080 7168.600 467.083 2.896 o
-11 0 9 1699.920 1396.600 218.249 20.174 o
-11 0 11 8935.470 9517.680 825.287 1.340 o
-11 0 13 634.296 1074.290 295.217 15.207 o
-11 1 -8 584.993 629.848 170.033 40.891 o
-11 1 -7 125.878 218.381 113.247 102.335 o
-11 1 -6 3046.320 3515.040 241.415 11.358 o
-11 1 -5 9.509 -19.729 50.155 572.968 o
-11 1 -4 878.300 1058.510 132.148 49.243 o
-11 1 -3 294.107 296.877 101.987 108.724 o
-11 1 -2 3078.160 2935.390 188.749 14.560 o
-11 1 -1 22.412 18.093 52.755 494.398 o
-11 1 0 8769.280 9053.190 408.003 2.611 o
-11 1 1 776.943 736.329 113.551 65.488 o
-11 1 2 1028.820 1116.070 130.152 46.783 o
-11 1 3 1084.370 1059.570 123.393 48.929 o
-11 1 4 7053.070 7300.420 324.315 3.915 o
-11 1 5 1.480 -23.301 62.068 382.252 o
-11 1 6 13195.400 14214.400 459.592 1.376 o
-11 1 7 367.619 428.272 94.460 111.480 o
-11 1 8 537.695 515.371 94.056 98.063 o
-11 1 9 3619.960 3622.410 278.051 8.978 o
-11 1 10 4957.850 4582.760 319.210 6.111 o
-11 1 11 3.079 41.810 103.279 136.424 o
-11 1 12 4240.490 4109.280 534.314 3.727 o
-11 1 13 611.450 324.977 118.777 73.377 o
-11 1 14 174.771 275.178 119.656 89.537 o
-11 2 -8 1208.400 1536.140 273.600 15.633 o
-11 2 -7 3280.410 3299.570 288.886 9.335 o
-11 2 -6 50.982 58.697 74.826 241.063 o
-11 2 -5 7764.380 7421.370 394.402 3.190 o
-11 2 -4 2976.830 3287.120 261.581 10.865 o
-11 2 -3 77.602 154.767 70.762 244.385 o
-11 2 -2 2483.580 2274.130 164.547 20.084 o
-11 2 -1 5512.820 5484.580 252.776 6.210 o
-11 2 0 276.556 340.899 65.537 196.649 o
-11 2 1 7055.830 7517.690 330.192 3.825 o
-11 2 2 4868.280 5280.870 276.331 6.576 o
-11 2 3 239.628 229.468 58.263 250.953 o
-11 2 4 1663.880 1582.330 194.404 22.998 o
-11 2 5 8157.420 8756.160 359.032 3.024 o
-11 2 6 623.571 512.561 88.759 99.231 o
-11 2 7 1759.980 1768.610 188.573 22.753 o
-11 2 8 3258.990 3435.560 304.897 8.747 o
-11 2 9 367.290 399.689 97.577 107.617 o
-11 2 10 2024.620 2188.890 222.455 17.026 o
-11 2 11 4928.370 4848.510 335.026 5.783 o
-11 2 12 1637.290 1324.950 183.255 25.595 o
-11 2 13 593.944 666.654 135.450 57.217 o
-11 2 14 2495.450 2056.370 297.118 11.112 o
-11 3 -8 121.116 238.626 124.500 86.129 o
-11 3 -7 2171.060 2191.020 441.411 6.290 o
-11 3 -6 2291.440 1879.770 392.365 7.643 o
-11 3 -5 614.379 781.901 249.001 21.022 o
-11 3 -4 4781.110 5099.800 590.434 3.007 o
-11 3 -3 6922.150 6314.630 627.218 2.313 o
-11 3 -2 1233.400 1513.160 177.853 28.729 o
-11 3 -1 941.094 962.241 136.351 47.203 o
-11 3 0 3434.880 3648.860 327.764 7.762 o
-11 3 1 4971.960 5403.900 424.905 4.417 o
-11 3 2 2256.680 2070.670 235.720 15.401 o
-11 3 3 4734.600 4618.540 341.908 5.904 o
-11 3 4 548.802 521.576 117.778 73.043 o
-11 3 5 280.614 276.230 81.557 153.148 o
-11 3 6 4179.720 4106.640 280.763 7.866 o
-11 3 7 6918.910 7416.360 379.353 3.579 o
-11 3 8 2696.950 2501.990 225.784 14.209 o
-11 3 9 6123.890 5969.510 355.220 4.450 o
-11 3 10 228.324 168.068 62.567 242.628 o
-11 3 11 419.788 378.408 101.645 99.191 o
-11 3 12 1521.440 1498.430 190.497 24.620 o
-11 3 13 3369.030 3183.580 282.737 9.502 o
-11 4 -7 502.579 325.399 191.467 35.403 o
-11 4 -6 354.643 230.137 163.171 49.176 o
-11 4 -5 3425.310 3022.910 470.649 4.981 o
-11 4 -4 7028.610 6926.750 684.752 2.018 o
-11 4 -3 1395.000 1430.430 228.590 20.044 o
-11 4 -2 10504.700 11138.500 460.956 1.907 o
-11 4 -1 421.702 524.013 99.221 98.121 o
-11 4 0 131.336 65.386 41.935 517.123 o
-11 4 1 2605.840 2793.380 209.563 15.070 o
-11 4 2 12308.200 12358.700 538.334 1.454 o
-11 4 3 1278.580 996.077 150.810 37.180 o
-11 4 4 9740.250 10400.200 488.482 2.021 o
-11 4 5 126.522 96.949 68.389 252.346 o
-11 4 6 8.308 26.951 44.358 700.392 o
-11 4 7 698.525 623.226 116.580 67.533 o
-11 4 8 6847.810 7299.270 378.498 3.635 o
-11 4 9 145.543 -1.064 60.199 321.495 o
-11 4 10 5107.650 5227.780 334.282 5.529 o
-11 4 11 309.163 331.337 125.540 76.904 o
-11 4 12 216.466 273.684 97.855 122.453 o
-11 4 13 625.145 308.479 170.245 42.125 o
-11 5 -7 5219.060 4432.030 617.786 2.799 o
-11 5 -6 9.528 59.421 81.114 216.043 o
-11 5 -5 258.743 111.296 89.603 144.535 o
-11 5 -4 366.211 381.047 182.035 39.635 o
-11 5 -3 8391.990 9550.600 588.102 2.000 o
-11 5 -2 534.331 630.850 157.000 47.069 o
-11 5 -1 8104.460 8742.030 527.983 2.325 o
-11 5 0 30.933 20.072 66.614 313.941 o
-11 5 1 708.363 554.966 149.023 48.825 o
-11 5 2 136.790 72.095 85.830 173.174 o
-11 5 3 7803.860 8368.880 819.628 1.471 o
-11 5 4 1400.000 1360.520 364.069 9.615 o
-11 5 5 3450.510 3248.330 514.036 4.311 o
-11 5 6 631.522 180.148 157.512 48.645 o
-11 5 7 2871.150 2744.670 481.968 5.066 o
-11 5 8 37.285 -44.330 131.103 84.700 o
-11 5 9 6351.820 7026.420 521.276 2.908 o
-11 5 10 34.411 7.952 96.654 153.934 o
-11 5 11 1480.490 1250.240 233.561 19.454 o
-11 5 12 1.000 -171.251 107.823 126.907 o
-11 5 13 2440.130 3607.210 392.124 6.935 o
-11 6 -6 258.371 139.591 107.523 106.587 o
-11 6 -5 659.593 588.548 194.296 32.470 o
-11 6 -4 5427.110 6169.700 495.787 3.442 o
-11 6 -3 212.650 65.725 194.768 37.268 o
-11 6 -2 7490.640 7451.190 514.081 2.639 o
-11 6 -1 350.644 298.113 107.995 96.484 o
-11 6 0 1385.030 1358.560 249.001 17.836 o
-11 6 1 1458.850 1361.610 198.517 24.115 o
-11 6 2 7744.900 7549.830 437.338 2.949 o
-11 6 3 154.290 106.580 122.614 89.808 o
-11 6 4 7031.860 7077.400 441.549 3.202 o
-11 6 5 1989.340 1676.040 369.729 8.737 o
-11 6 6 68.432 117.898 109.409 115.209 o
-11 6 7 1195.110 1084.660 317.853 12.564 o
-11 6 8 5038.070 5774.180 716.821 2.184 o
-11 6 9 20.289 -81.114 140.535 74.255 o
-11 6 10 3039.720 2796.620 512.621 4.526 o
-11 6 11 227.732 230.351 124.691 82.248 o
-11 6 12 183.418 684.361 188.509 37.481 o
-11 7 -5 477.637 422.547 184.864 37.448 o
-11 7 -4 1560.810 1152.620 281.069 14.649 o
-11 7 -3 3616.590 3717.380 380.835 6.328 o
-11 7 -2 193.209 202.385 129.216 78.805 o
-11 7 -1 1178.170 990.135 183.542 29.910 o
-11 7 0 6999.020 6762.210 569.684 2.535 o
-11 7 1 1894.440 1900.440 233.630 16.941 o
-11 7 2 2200.150 1747.720 406.513 7.319 o
-11 7 3 4622.060 4949.840 665.889 2.553 o
-11 7 4 235.119 332.892 111.402 96.716 o
-11 7 5 1492.590 1282.730 349.922 10.239 o
-11 7 6 6736.230 7483.230 830.003 1.552 o
-11 7 7 1721.660 2095.760 448.956 6.339 o
-11 7 8 1123.010 1155.400 366.899 9.801 o
-11 7 9 2604.820 2912.560 539.502 4.263 o
-11 7 10 325.059 484.797 226.364 26.628 o
-11 7 11 32.754 -20.968 119.785 101.391 o
-11 8 -5 5874.790 5667.040 506.270 3.305 o
-11 8 -4 1323.590 1336.910 239.354 19.154 o
-11 8 -3 125.983 82.002 63.895 283.924 o
-11 8 -2 570.864 631.810 162.109 44.273 o
-11 8 -1 3461.340 3866.790 369.601 6.626 o
-11 8 0 0.041 9.328 61.589 386.110 o
-11 8 1 7071.580 7142.740 836.605 1.523 o
-11 8 2 1765.990 2199.510 462.161 5.989 o
-11 8 3 14.813 -35.691 129.216 87.912 o
-11 8 4 337.276 299.835 108.775 96.062 o
-11 8 5 3465.820 3670.880 592.320 3.396 o
-11 8 6 1027.440 1015.810 317.853 12.833 o
-11 8 7 6957.730 6564.570 799.821 1.656 o
-11 8 8 1643.560 1155.400 362.183 9.577 o
-11 8 9 2.825 -12.261 113.182 115.075 o
-11 8 10 121.250 134.875 137.705 72.965 o
-11 9 -3 3.573 -202.820 107.320 127.916 o
-11 9 -2 779.638 670.930 170.815 38.330 o
-11 9 -1 101.895 239.569 203.728 34.323 o
-11 9 0 8773.350 10478.800 1041.280 0.970 o
-11 9 1 64.868 42.443 141.478 71.733 o
-11 9 2 1851.910 1435.530 382.933 8.446 o
-11 9 3 100.285 92.068 86.350 175.123 o
-11 9 4 927.816 1085.530 206.488 26.419 o
-11 9 5 4.125 -75.455 203.728 35.544 o
-11 9 6 5728.460 6833.380 831.889 1.642 o
-11 9 7 315.510 -16.977 139.591 68.094 o
-11 9 8 86.878 284.842 221.649 29.124 o
-11 9 9 44.255 40.557 147.137 66.891 o
-11 10 -2 536.905 597.979 266.921 18.967 o
-11 10 -1 3479.060 3851.970 660.230 2.826 o
-11 10 0 413.721 504.604 269.751 18.972 o
-11 10 1 3309.360 4367.890 686.639 2.635 o
-11 10 2 152.110 -10.040 74.091 227.014 o
-11 10 3 111.894 6.453 69.382 264.882 o
-11 10 4 330.509 238.698 213.631 30.205 o
-11 10 5 3931.500 3285.110 597.979 3.292 o
-11 10 6 228.149 100.921 106.580 111.179 o
-11 10 7 1747.870 2265.530 498.945 5.233 o
-11 11 2 85.602 341.268 140.150 68.994 o
-11 11 3 1275.760 1495.960 267.532 16.084 o
-11 11 4 1728.090 1230.110 273.052 14.868 o
-10 0 -8 684.958 696.071 270.694 18.053 o
-10 0 -6 2874.530 2315.410 266.742 11.734 o
-10 0 -4 10631.600 10378.100 543.187 1.756 o
-10 0 -2 154.196 95.395 73.392 218.729 o
-10 0 0 9661.130 9991.680 511.727 2.003 o
-10 0 2 20732.400 21688.500 748.994 0.583 o
-10 0 4 1391.140 1546.570 112.994 42.272 o
-10 0 6 26073.700 26684.500 854.973 0.394 o
-10 0 8 7447.390 7139.100 453.501 3.002 o
-10 0 10 422.385 196.645 161.756 49.249 o
-10 0 12 9487.460 10166.600 854.526 1.230 o
-10 0 14 6132.260 6655.110 739.457 1.927 o
-10 1 -9 5721.190 6326.510 535.368 3.053 o
-10 1 -8 1734.730 1493.130 260.874 15.564 o
-10 1 -7 1558.500 1608.870 154.985 30.102 o
-10 1 -6 600.285 655.190 106.417 78.588 o
-10 1 -5 8645.020 8440.820 352.034 2.951 o
-10 1 -4 457.289 358.093 74.736 142.331 o
-10 1 -3 4247.140 4317.180 246.986 8.444 o
-10 1 -2 2763.290 2744.980 222.314 13.895 o
-10 1 -1 3966.320 4238.060 211.929 9.869 o
-10 1 0 56.138 -8.053 47.348 566.424 o
-10 1 1 16052.100 16384.100 460.985 1.046 o
-10 1 2 3169.050 3607.680 217.297 12.009 o
-10 1 3 4663.530 4615.610 210.552 8.425 o
-10 1 4 4185.770 4252.140 160.415 10.788 o
-10 1 5 11607.800 11641.400 392.339 1.834 o
-10 1 6 624.252 743.356 105.976 76.259 o
-10 1 7 10290.300 10374.500 379.836 2.208 o
-10 1 8 3501.030 3583.230 228.415 10.874 o
-10 1 9 1475.450 1404.960 168.192 29.155 o
-10 1 10 2863.400 2656.560 233.635 13.112 o
-10 1 11 5507.350 5598.120 347.527 4.980 o
-10 1 12 255.893 77.238 84.076 162.130 o
-10 1 13 4792.700 4196.100 401.428 5.099 o
-10 1 14 419.911 264.517 117.341 82.750 o
-10 2 -9 2589.010 2005.300 312.769 10.273 o
-10 2 -8 485.930 386.169 201.370 32.296 o
-10 2 -7 5353.050 5736.920 363.975 4.839 o
-10 2 -6 2448.000 2487.940 195.165 17.186 o
-10 2 -5 557.278 652.110 146.638 51.735 o
-10 2 -4 5146.000 5387.500 387.240 4.774 o
-10 2 -3 6792.370 7104.260 438.027 3.295 o
-10 2 -2 128.756 120.507 70.025 239.064 o
-10 2 -1 5842.190 6149.010 281.708 5.318 o
-10 2 0 2597.060 2700.780 184.230 16.998 o
-10 2 1 501.210 652.003 160.224 45.882 o
-10 2 2 8223.980 7980.010 287.277 3.469 o
-10 2 3 7146.070 7557.690 245.278 4.317 o
-10 2 4 243.299 213.523 39.862 365.045 o
-10 2 5 4350.590 4182.550 147.696 10.799 o
-10 2 6 6400.600 6298.140 291.097 4.797 o
-10 2 7 547.525 560.192 121.812 69.162 o
-10 2 8 4806.040 5097.740 311.924 6.141 o
-10 2 9 15826.900 15484.000 551.125 1.024 o
-10 2 10 362.808 587.377 107.571 89.290 o
-10 2 11 4254.530 4330.640 306.892 7.083 o
-10 2 12 4798.210 5172.400 340.680 5.675 o
-10 2 13 199.387 47.242 174.018 46.428 o
-10 2 14 3103.600 3160.460 358.801 7.469 o
-10 3 -9 1632.630 1456.060 260.768 15.876 o
-10 3 -8 6571.850 6117.690 513.246 3.014 o
-10 3 -7 60.970 -24.523 149.023 65.307 o
-10 3 -6 3485.500 3498.270 505.547 4.371 o
-10 3 -5 3432.180 3722.750 501.775 4.402 o
-10 3 -4 1138.400 1036.560 262.205 17.529 o
-10 3 -3 35.561 51.875 78.284 226.129 o
-10 3 -2 11513.000 11699.000 969.594 0.930 o
-10 3 -1 12.697 49.000 45.584 636.834 o
-10 3 0 470.698 475.467 79.867 125.125 o
-10 3 1 3832.720 3751.960 233.462 9.916 o
-10 3 2 4320.030 4259.080 342.848 6.345 o
-10 3 3 1059.850 962.280 112.099 55.428 o
-10 3 4 11328.000 11512.100 510.693 1.662 o
-10 3 5 542.991 413.619 63.760 149.777 o
-10 3 6 450.163 390.198 63.032 167.058 o
-10 3 7 1562.020 1801.240 178.730 25.253 o
-10 3 8 5990.850 6059.440 338.567 4.660 o
-10 3 9 368.058 459.013 103.565 97.252 o
-10 3 10 19024.500 19902.400 637.305 0.709 o
-10 3 11 345.566 467.600 104.522 96.967 o
-10 3 12 448.606 499.185 115.890 78.695 o
-10 3 13 351.258 524.583 118.200 79.533 o
-10 3 14 2374.450 2599.570 329.412 9.464 o
-10 4 -9 2727.070 2488.120 481.968 5.167 o
-10 4 -8 57.619 -113.182 151.853 62.996 o
-10 4 -7 7252.940 6904.120 737.571 1.809 o
-10 4 -6 40.995 -16.034 114.125 111.081 o
-10 4 -5 848.067 775.298 230.137 23.221 o
-10 4 -4 1473.100 1712.820 332.001 10.955 o
-10 4 -3 7023.520 7281.390 643.252 2.158 o
-10 4 -2 5.829 -10.832 91.017 177.398 o
-10 4 -1 7035.080 6837.080 331.290 3.983 o
-10 4 0 6.295 12.366 48.119 616.265 o
-10 4 1 9.099 21.479 40.975 817.201 o
-10 4 2 900.537 848.088 103.634 66.132 o
-10 4 3 8333.520 9457.280 437.680 2.554 o
-10 4 4 1003.060 971.481 142.674 43.664 o
-10 4 5 9144.240 9879.890 329.565 2.679 o
-10 4 6 4.827 30.993 27.247 1690.970 o
-10 4 7 18.214 67.849 60.632 367.737 o
-10 4 8 25.660 23.180 44.689 659.718 o
-10 4 9 6740.260 6925.130 365.035 3.851 o
-10 4 10 15.824 12.013 54.948 467.215 o
-10 4 11 5703.280 6328.470 365.986 4.469 o
-10 4 12 74.711 231.927 96.728 138.748 o
-10 4 13 510.991 517.726 117.368 74.751 o
-10 4 14 84.697 15.572 76.879 226.528 o
-10 5 -8 5099.980 5297.870 674.377 2.416 o
-10 5 -7 9.581 101.864 153.739 61.435 o
-10 5 -6 4864.790 4997.000 606.468 2.888 o
-10 5 -5 66.654 50.932 91.489 164.498 o
-10 5 -4 62.877 16.034 79.228 219.055 o
-10 5 -3 449.974 346.149 147.137 56.086 o
-10 5 -2 9016.940 9062.720 387.245 2.624 o
-10 5 -1 240.492 310.141 73.110 181.106 o
-10 5 0 3641.330 3836.230 226.677 10.409 o
-10 5 1 742.798 876.452 104.580 70.421 o
-10 5 2 1861.110 2016.750 149.970 26.619 o
-10 5 3 368.314 238.422 67.503 182.367 o
-10 5 4 3501.900 3294.890 190.671 12.686 o
-10 5 5 278.360 224.103 57.667 242.344 o
-10 5 6 1427.170 1327.350 122.960 40.726 o
-10 5 7 95.571 101.576 50.071 424.134 o
-10 5 8 2588.470 2665.260 257.933 12.416 o
-10 5 9 234.606 119.059 52.709 306.790 o
-10 5 10 5376.820 5714.530 338.455 5.133 o
-10 5 11 63.198 54.089 65.782 300.139 o
-10 5 12 87.999 170.442 90.323 158.416 o
-10 5 13 116.626 -45.105 73.419 239.651 o
-10 6 -8 609.837 328.228 197.126 32.901 o
-10 6 -7 4486.300 4717.810 614.957 2.922 o
-10 6 -6 136.817 99.034 94.319 145.461 o
-10 6 -5 2027.040 1880.710 360.297 8.978 o
-10 6 -4 825.038 766.810 224.478 24.317 o
-10 6 -3 3302.080 3428.060 459.803 5.123 o
-10 6 -2 317.447 287.410 106.940 100.006 o
-10 6 -1 11961.200 12167.100 601.795 1.398 o
-10 6 0 20.562 -8.716 56.688 441.234 o
-10 6 1 339.844 172.794 108.466 99.665 o
-10 6 2 171.816 190.005 216.933 30.194 o
-10 6 3 2396.200 2361.580 215.852 16.014 o
-10 6 4 610.712 364.735 113.182 77.711 o
-10 6 5 5326.190 5418.070 367.969 4.897 o
-10 6 6 676.398 579.708 121.909 65.044 o
-10 6 7 2.497 -3.773 164.114 54.777 o
-10 6 8 216.201 277.296 156.569 54.664 o
-10 6 9 2100.520 2682.420 482.911 5.344 o
-10 6 10 101.849 -28.296 143.364 69.558 o
-10 6 11 1143.700 1516.090 246.270 18.633 o
-10 6 12 745.438 1119.000 209.463 26.724 o
-10 6 13 566.944 456.502 215.989 27.929 o
-10 7 -7 3.735 -55.648 133.932 82.187 o
-10 7 -6 1651.150 1688.300 355.581 9.620 o
-10 7 -5 1825.070 2222.140 392.365 7.851 o
-10 7 -4 1076.090 1486.460 309.365 13.039 o
-10 7 -3 1412.160 1229.780 218.353 21.731 o
-10 7 -2 4110.810 3992.120 366.533 6.161 o
-10 7 -1 388.115 363.987 151.381 54.398 o
-10 7 0 3067.750 3376.400 312.169 8.786 o
-10 7 1 5277.610 5199.810 395.195 4.660 o
-10 7 2 3818.250 3823.640 298.779 8.014 o
-10 7 3 3288.580 3573.730 543.275 3.954 o
-10 7 4 5748.960 5946.090 530.542 3.125 o
-10 7 5 368.552 288.829 87.664 129.142 o
-10 7 6 1863.990 1946.160 234.456 16.891 o
-10 7 7 2355.790 2643.750 476.309 5.380 o
-10 7 8 1373.590 1338.380 360.297 9.823 o
-10 7 9 298.777 387.649 213.160 30.117 o
-10 7 10 1134.210 1385.540 379.160 9.148 o
-10 7 11 158.402 226.364 174.489 45.684 o
-10 7 12 61.867 19.346 87.914 180.133 o
-10 8 -6 1952.790 2340.990 431.036 6.617 o
-10 8 -5 14.177 14.148 116.955 106.855 o
-10 8 -4 3633.820 3897.950 397.102 5.935 o
-10 8 -3 2025.680 1929.850 269.381 13.724 o
-10 8 -2 168.947 225.048 99.034 125.664 o
-10 8 -1 3024.200 3008.640 314.061 9.001 o
-10 8 0 3734.430 4042.150 347.399 6.824 o
-10 8 1 25.079 43.844 66.675 310.788 o
-10 8 2 3820.010 3609.570 562.138 3.617 o
-10 8 3 1657.710 1274.800 209.759 21.701 o
-10 8 4 6.446 -33.571 71.342 287.710 o
-10 8 5 1978.400 1825.680 242.994 15.981 o
-10 8 6 8127.570 7814.530 494.849 2.549 o
-10 8 7 120.839 45.273 108.466 116.069 o
-10 8 8 1669.450 2343.820 468.763 5.852 o
-10 8 9 1148.850 846.980 294.274 14.611 o
-10 8 10 233.237 135.819 128.273 79.624 o
-10 8 11 807.608 495.172 220.705 25.703 o
-10 9 -5 8612.550 9094.570 1187.470 0.819 o
-10 9 -4 737.115 298.809 123.929 65.843 o
-10 9 -3 2958.320 3181.750 350.849 7.814 o
-10 9 -2 542.843 792.423 175.845 38.354 o
-10 9 -1 997.064 685.415 229.194 22.965 o
-10 9 0 146.849 251.950 98.247 128.051 o
-10 9 1 9453.740 9956.260 973.367 1.047 o
-10 9 2 1018.100 830.003 295.217 14.768 o
-10 9 3 2070.550 2007.860 274.207 13.224 o
-10 9 4 555.138 368.513 284.842 17.001 o
-10 9 5 1496.100 1745.660 252.097 16.650 o
-10 9 6 110.380 33.434 68.882 264.281 o
-10 9 7 7532.770 7299.310 833.776 1.493 o
-10 9 8 172.173 0.943 159.398 55.572 o
-10 9 9 412.569 366.899 196.183 34.388 o
-10 9 10 420.770 -1.886 142.421 63.391 o
-10 10 -4 6092.120 6819.400 890.838 1.455 o
-10 10 -3 61.038 -92.410 93.521 161.462 o
-10 10 -2 43.168 71.153 138.177 75.290 o
-10 10 -1 225.254 415.001 225.421 27.381 o
-10 10 0 5673.650 6075.060 787.560 1.821 o
-10 10 1 25.487 -99.034 182.978 43.876 o
-10 10 2 6733.540 7273.190 628.633 2.262 o
-10 10 3 4.156 22.322 68.624 307.059 o
-10 10 4 82.290 54.139 91.978 160.805 o
-10 10 5 128.124 113.330 104.035 122.355 o
-10 10 6 7174.340 7503.070 790.861 1.627 o
-10 10 7 7.061 -83.944 147.137 68.046 o
-10 10 8 3665.080 3673.710 606.468 3.232 o
-10 10 9 65.050 96.205 176.376 46.343 o
-10 11 -2 1217.750 874.333 332.001 11.747 o
-10 11 -1 849.572 1231.800 355.581 10.573 o
-10 11 0 833.450 964.878 327.285 12.447 o
-10 11 1 6895.170 6836.450 565.510 2.569 o
-10 11 2 525.377 573.163 165.600 43.696 o
-10 11 3 1129.050 1092.350 234.853 20.837 o
-10 11 4 1235.120 1332.490 366.427 9.658 o
-10 11 5 2249.090 2112.740 298.651 11.380 o
-10 11 6 420.658 355.008 124.510 73.954 o
-10 11 7 5971.620 6434.410 831.889 1.639 o
-9 0 -7 784.127 694.031 141.889 49.814 o
-9 0 -5 6941.380 7765.930 572.513 2.440 o
-9 0 -3 29527.700 31499.200 882.171 0.313 o
-9 0 -1 1008.170 954.680 127.056 49.944 o
-9 0 1 14311.300 14402.100 577.147 1.142 o
-9 0 3 26693.100 27169.700 793.168 0.392 o
-9 0 5 717.744 914.462 154.711 43.550 o
-9 0 7 2151.970 2001.650 227.531 16.480 o
-9 0 9 16079.200 17195.100 682.923 0.865 o
-9 0 11 3.600 21.693 81.114 221.250 o
-9 0 13 3495.800 3769.910 526.297 4.069 o
-9 0 15 6704.430 6456.100 745.116 1.859 o
-9 1 -8 7915.920 8198.530 573.928 2.228 o
-9 1 -7 2424.080 2301.310 178.609 19.061 o
-9 1 -6 34.078 40.239 48.854 539.094 o
-9 1 -5 1969.160 2034.920 164.178 23.854 o
-9 1 -4 20019.600 21157.300 519.667 0.694 o
-9 1 -3 5.581 -4.809 44.213 741.616 o
-9 1 -2 12638.500 13164.100 555.496 1.357 o
-9 1 -1 2628.690 2832.530 184.546 16.592 o
-9 1 0 891.803 805.016 87.394 78.166 o
-9 1 1 1020.330 1226.450 121.008 49.499 o
-9 1 2 19443.200 20565.100 485.242 0.740 o
-9 1 3 203.781 267.753 56.957 263.390 o
-9 1 4 5800.160 5868.830 170.615 6.696 o
-9 1 5 3055.950 3275.730 162.610 15.445 o
-9 1 6 4673.450 4554.610 252.116 7.617 o
-9 1 7 640.769 726.285 78.482 102.759 o
-9 1 8 10737.100 11089.700 381.474 2.049 o
-9 1 9 10.388 24.690 54.034 481.491 o
-9 1 10 2928.050 3151.490 247.339 11.717 o
-9 1 11 2259.700 1951.420 197.783 18.832 o
-9 1 12 5285.450 6048.120 455.023 3.856 o
-9 1 13 753.543 346.425 112.239 73.640 o
-9 1 14 9621.190 9909.730 626.578 1.710 o
-9 1 15 51.403 151.021 101.512 132.462 o
-9 2 -8 4013.990 3961.380 294.166 7.824 o
-9 2 -7 58.761 100.009 70.245 261.251 o
-9 2 -6 9206.440 8703.020 406.390 2.553 o
-9 2 -5 3370.630 3724.300 260.946 9.830 o
-9 2 -4 873.212 949.246 129.630 51.535 o
-9 2 -3 10934.500 10151.600 592.792 1.624 o
-9 2 -2 3118.060 2956.660 261.541 10.910 o
-9 2 -1 25.383 65.486 42.414 678.266 o
-9 2 0 4591.230 4964.440 232.976 7.837 o
-9 2 1 8393.760 7906.630 286.756 3.418 o
-9 2 2 286.243 275.091 52.308 256.123 o
-9 2 3 7230.480 6701.600 235.155 4.587 o
-9 2 4 6128.390 6069.360 178.612 6.161 o
-9 2 5 377.407 384.249 39.489 255.597 o
-9 2 6 6821.570 6767.640 240.049 4.795 o
-9 2 7 8398.420 8366.430 262.606 3.429 o
-9 2 8 264.445 127.804 58.468 258.598 o
-9 2 9 3973.940 4109.990 274.231 8.279 o
-9 2 10 5355.680 4974.890 307.620 5.811 o
-9 2 11 923.201 661.523 115.544 61.107 o
-9 2 12 2794.260 2488.240 232.341 13.573 o
-9 2 13 3846.820 3820.620 591.849 3.310 o
-9 2 14 28.418 27.223 83.815 202.314 o
-9 2 15 1493.920 1797.570 282.742 14.005 o
-9 3 -8 450.422 351.710 131.891 66.813 o
-9 3 -7 15424.700 13912.200 716.271 0.955 o
-9 3 -6 48.583 -17.921 109.409 120.163 o
-9 3 -5 8980.180 8244.380 707.389 1.660 o
-9 3 -4 1057.570 676.264 205.614 27.008 o
-9 3 -3 295.213 102.807 78.284 172.513 o
-9 3 -2 559.679 663.059 187.694 34.869 o
-9 3 -1 10279.100 11128.900 402.013 2.083 o
-9 3 0 1911.860 1965.210 165.621 24.276 o
-9 3 1 4743.860 4920.560 250.220 7.350 o
-9 3 2 4298.230 4137.130 218.540 9.200 o
-9 3 3 2485.660 2161.100 126.054 24.093 o
-9 3 4 425.585 247.481 41.492 255.913 o
-9 3 5 12645.900 12146.700 266.234 1.816 o
-9 3 6 2341.090 2221.590 102.746 27.447 o
-9 3 7 1135.650 1104.610 135.869 43.027 o
-9 3 8 3525.210 3581.350 249.950 10.067 o
-9 3 9 9283.240 9171.510 406.104 2.480 o
-9 3 10 17.731 -7.849 59.591 402.792 o
-9 3 11 9184.280 8563.030 416.581 2.538 o
-9 3 12 3818.260 3601.320 276.605 8.761 o
-9 3 13 564.026 434.648 104.786 86.539 o
-9 3 14 1217.080 1198.790 212.034 23.646 o
-9 3 15 1825.770 1865.380 282.770 13.287 o
-9 4 -8 2749.520 3135.150 487.627 4.946 o
-9 4 -7 4.939 159.398 129.216 85.575 o
-9 4 -6 6177.510 7024.840 684.752 2.116 o
-9 4 -5 4.233 -73.568 142.421 72.681 o
-9 4 -4 137.687 137.705 112.239 105.494 o
-9 4 -3 902.317 658.343 187.694 32.236 o
-9 4 -2 7098.050 7279.500 582.888 2.407 o
-9 4 -1 478.560 480.340 83.932 117.573 o
-9 4 0 11064.900 10597.500 368.043 2.063 o
-9 4 1 261.972 199.981 52.249 279.795 o
-9 4 2 599.550 511.453 75.848 117.923 o
-9 4 3 80.728 119.273 36.621 649.405 o
-9 4 4 11212.000 11264.700 275.157 2.148 o
-9 4 5 379.752 415.092 61.645 180.769 o
-9 4 6 10400.700 10806.300 328.751 2.262 o
-9 4 7 871.053 834.572 140.925 47.555 o
-9 4 8 211.309 293.521 159.870 52.582 o
-9 4 9 49.269 72.294 47.998 515.670 o
-9 4 10 13041.000 13364.600 502.693 1.380 o
-9 4 11 305.047 158.366 94.725 126.271 o
-9 4 12 1942.480 2006.400 239.487 16.117 o
-9 4 13 37.801 47.551 63.449 333.526 o
-9 4 14 433.600 151.126 95.201 115.530 o
-9 5 -8 204.035 -70.739 150.910 61.123 o
-9 5 -7 6725.820 7031.450 722.480 1.908 o
-9 5 -6 83.470 116.012 118.841 98.003 o
-9 5 -5 7091.700 6537.220 635.707 2.233 o
-9 5 -4 97.750 208.444 128.273 82.853 o
-9 5 -3 494.088 581.945 176.376 39.661 o
-9 5 -2 1407.970 1907.460 235.539 18.343 o
-9 5 -1 6575.060 6665.310 295.871 4.539 o
-9 5 0 606.672 551.558 80.886 108.819 o
-9 5 1 2289.610 2144.360 149.094 23.142 o
-9 5 2 456.014 635.555 76.724 124.098 o
-9 5 3 2027.670 2220.680 136.890 26.227 o
-9 5 4 581.960 421.148 68.142 136.380 o
-9 5 5 10953.500 10454.300 357.025 2.121 o
-9 5 6 281.910 211.365 54.035 260.641 o
-9 5 7 317.301 304.736 62.665 201.657 o
-9 5 8 41.797 25.514 57.927 397.961 o
-9 5 9 4712.930 4894.060 356.564 5.593 o
-9 5 10 76.018 46.432 51.507 446.709 o
-9 5 11 8879.900 9360.090 433.991 2.454 o
-9 5 12 1.328 -5.192 52.750 528.919 o
-9 5 13 111.182 172.328 71.244 230.438 o
-9 5 14 285.353 164.857 88.760 141.006 o
-9 6 -8 1482.270 1650.570 383.876 8.604 o
-9 6 -7 247.703 161.285 126.387 80.828 o
-9 6 -6 6111.670 6718.310 678.150 2.172 o
-9 6 -5 715.692 404.626 162.228 43.828 o
-9 6 -4 4.603 30.182 80.171 225.242 o
-9 6 -3 917.307 643.252 186.751 32.430 o
-9 6 -2 5587.450 5494.020 401.634 4.368 o
-9 6 -1 2518.150 2312.990 437.638 6.177 o
-9 6 0 6677.690 6830.030 504.133 2.955 o
-9 6 1 434.361 527.226 117.909 76.771 o
-9 6 2 1142.130 1528.790 175.759 29.803 o
-9 6 3 200.005 248.755 69.491 208.238 o
-9 6 4 5281.640 5138.530 358.114 5.127 o
-9 6 5 2.100 12.349 47.566 637.537 o
-9 6 6 6226.160 5804.290 248.492 5.506 o
-9 6 7 1523.690 1493.440 111.992 40.769 o
-9 6 8 1379.370 1368.410 176.491 28.443 o
-9 6 9 212.012 148.646 65.265 236.758 o
-9 6 10 4110.810 4353.240 498.945 4.108 o
-9 6 11 79.253 109.707 194.296 38.204 o
-9 6 12 2721.250 3395.090 352.779 7.878 o
-9 6 13 1359.560 1278.020 347.092 10.519 o
-9 6 14 1169.110 914.890 300.876 13.976 o
-9 7 -8 1366.100 1011.090 287.671 14.625 o
-9 7 -7 3041.580 2814.460 473.479 5.130 o
-9 7 -6 322.626 268.808 156.569 53.090 o
-9 7 -5 1892.250 1969.370 363.126 8.950 o
-9 7 -4 1340.760 1200.670 269.751 16.070 o
-9 7 -3 2005.040 1951.750 257.555 14.591 o
-9 7 -2 198.889 238.553 99.977 120.914 o
-9 7 -1 11555.000 11370.600 675.792 1.348 o
-9 7 0 2235.190 2385.040 250.150 14.012 o
-9 7 1 2710.710 2735.530 252.816 12.350 o
-9 7 2 3450.500 3064.400 252.672 10.560 o
-9 7 3 2781.400 2836.750 189.380 15.698 o
-9 7 4 149.187 136.262 76.689 200.738 o
-9 7 5 7264.280 7502.680 453.717 3.002 o
-9 7 6 3767.610 3928.940 263.797 8.969 o
-9 7 7 1687.410 1556.820 154.557 29.262 o
-9 7 8 1634.440 1673.430 216.510 20.080 o
-9 7 9 733.565 659.286 249.001 20.849 o
-9 7 10 11.362 -32.068 136.762 78.620 o
-9 7 11 3323.500 3281.340 554.593 3.854 o
-9 7 12 2739.040 2400.260 398.496 6.979 o
-9 7 13 26.046 -99.034 190.523 40.481 o
-9 8 -7 276.135 568.741 222.592 27.497 o
-9 8 -6 2277.470 2217.430 408.399 7.070 o
-9 8 -5 2801.620 2945.570 445.183 5.723 o
-9 8 -4 127.215 308.422 158.455 54.579 o
-9 8 -3 3695.420 4147.030 417.359 5.464 o
-9 8 -2 705.813 592.105 141.383 52.394 o
-9 8 -1 46.357 11.289 64.709 326.282 o
-9 8 0 5354.150 5685.160 393.797 4.517 o
-9 8 1 8521.900 8850.470 466.001 2.470 o
-9 8 2 2.441 -80.448 53.592 511.208 o
-9 8 3 4143.400 4072.800 364.519 6.146 o
-9 8 4 759.506 1062.190 185.481 32.366 o
-9 8 5 567.566 545.912 101.461 87.241 o
-9 8 6 3307.800 3235.720 241.434 11.111 o
-9 8 7 8257.490 8814.940 394.972 2.829 o
-9 8 8 0.644 -40.122 75.983 255.511 o
-9 8 9 1478.180 992.231 298.990 13.551 o
-9 8 10 753.085 954.503 290.501 15.549 o
-9 8 11 444.846 265.035 184.864 38.386 o
-9 8 12 1541.220 823.401 289.558 14.318 o
-9 9 -7 50.986 -56.591 120.728 99.037 o
-9 9 -6 262.288 313.137 182.035 40.864 o
-9 9 -5 357.313 163.171 132.046 71.719 o
-9 9 -4 5028.900 5821.150 476.520 3.787 o
-9 9 -3 16.579 18.864 81.366 217.480 o
-9 9 -2 1860.420 2002.320 262.881 14.481 o
-9 9 -1 913.192 754.171 155.540 41.705 o
-9 9 0 1218.200 1189.260 190.869 27.411 o
-9 9 1 3148.880 2742.130 475.837 5.063 o
-9 9 2 7677.720 7336.220 515.562 2.604 o
-9 9 3 114.955 177.523 204.200 34.272 o
-9 9 4 1494.620 1650.670 189.343 24.506 o
-9 9 5 950.421 831.255 132.147 50.027 o
-9 9 6 6013.000 5877.890 346.586 4.618 o
-9 9 7 1688.750 1235.580 216.461 20.778 o
-9 9 8 7032.510 6914.430 483.877 2.972 o
-9 9 9 156.826 7.545 125.444 87.826 o
-9 9 10 571.672 546.104 238.626 23.208 o
-9 9 11 69.408 13.205 111.296 114.588 o
-9 10 -5 3309.410 3387.630 382.990 6.616 o
-9 10 -4 6.968 -93.968 104.645 134.259 o
-9 10 -3 5950.580 6289.210 833.776 1.640 o
-9 10 -2 8.524 -162.500 95.941 159.433 o
-9 10 -1 1488.550 1159.350 200.303 24.225 o
-9 10 0 36.089 -19.227 75.983 245.776 o
-9 10 1 7350.560 7084.260 815.855 1.560 o
-9 10 2 140.285 181.700 98.160 131.717 o
-9 10 3 6989.920 6721.910 509.330 2.862 o
-9 10 4 150.099 114.111 82.481 179.955 o
-9 10 5 892.425 709.191 129.949 53.450 o
-9 10 6 49.985 18.177 63.629 333.056 o
-9 10 7 8200.000 7860.130 1039.390 1.040 o
-9 10 8 266.360 214.347 90.496 136.376 o
-9 10 9 4906.600 4833.820 695.128 2.361 o
-9 10 10 188.682 199.955 162.228 52.143 o
-9 11 -4 5956.470 5332.480 478.593 3.547 o
-9 11 -3 9.344 149.195 122.614 94.731 o
-9 11 -2 3863.620 3356.720 357.294 6.783 o
-9 11 -1 1879.570 2236.290 485.740 5.446 o
-9 11 0 1027.170 938.469 333.888 11.808 o
-9 11 1 385.544 469.028 229.666 25.722 o
-9 11 2 8522.150 8018.610 590.539 2.086 o
-9 11 3 37.151 -60.101 83.816 203.198 o
-9 11 4 3170.210 2564.010 335.568 8.375 o
-9 11 5 1416.220 1566.090 226.439 19.970 o
-9 11 6 862.298 980.846 158.941 39.728 o
-9 11 7 693.039 698.545 173.689 38.087 o
-9 11 8 6320.760 6773.650 530.989 2.887 o
-9 11 9 156.053 218.819 143.364 65.976 o
-9 12 -2 2737.210 2872.940 572.513 3.830 o
-9 12 -1 92.692 109.409 101.864 129.984 o
-9 12 0 5794.860 5344.130 509.320 3.349 o
-9 12 1 2190.160 2348.040 342.396 9.294 o
-9 12 2 179.899 -15.075 149.495 62.669 o
-9 12 3 2622.360 2684.720 587.604 3.704 o
-9 12 4 2776.380 2970.160 291.250 10.229 o
-9 12 5 26.015 45.804 89.466 177.407 o
-9 12 6 4301.930 4005.700 428.155 5.017 o
-8 0 -6 3635.420 3853.700 305.936 8.018 o
-8 0 -4 9925.280 8868.660 446.641 2.245 o
-8 0 -2 33004.700 34984.800 856.431 0.264 o
-8 0 0 14867.400 17079.700 588.180 1.005 o
-8 0 2 6808.980 5457.960 333.892 4.419 o
-8 0 4 17735.700 16243.800 433.248 0.958 o
-8 0 6 844.778 895.663 142.014 47.017 o
-8 0 8 4935.770 4148.630 470.178 4.180 o
-8 0 10 9240.510 8693.340 706.446 1.615 o
-8 0 12 912.960 1092.210 269.751 17.191 o
-8 0 14 8316.640 9253.590 844.151 1.351 o
-8 0 16 2439.480 2984.240 525.354 4.493 o
-8 1 -7 2940.400 2893.430 189.480 15.044 o
-8 1 -6 972.648 1270.480 149.300 39.727 o
-8 1 -5 156.201 108.421 48.731 388.668 o
-8 1 -4 2423.480 2478.300 198.866 17.010 o
-8 1 -3 21796.800 20991.900 558.549 0.623 o
-8 1 -2 78.244 39.884 46.538 525.265 o
-8 1 -1 9373.660 9296.050 428.165 2.373 o
-8 1 0 191.666 104.886 39.711 455.201 o
-8 1 1 620.730 366.079 73.169 126.841 o
-8 1 2 8345.190 9825.890 314.391 2.977 o
-8 1 3 24436.000 22478.700 324.008 0.569 o
-8 1 4 429.222 548.652 63.402 157.119 o
-8 1 5 3928.900 3948.770 167.209 11.570 o
-8 1 6 147.033 172.511 38.016 486.738 o
-8 1 7 267.280 148.819 47.370 318.485 o
-8 1 8 1225.500 1142.850 138.394 40.586 o
-8 1 9 10431.800 10321.600 416.733 2.093 o
-8 1 10 36.724 52.816 45.562 593.697 o
-8 1 11 1424.550 1438.050 164.626 30.149 o
-8 1 12 32.958 138.154 75.431 232.095 o
-8 1 13 3400.600 3354.450 355.109 7.224 o
-8 1 14 74.802 114.591 140.535 71.573 o
-8 1 15 6064.510 6482.930 529.127 2.993 o
-8 2 -7 762.550 898.118 209.387 27.239 o
-8 2 -6 1275.780 1354.180 155.622 33.957 o
-8 2 -5 6522.880 6184.240 318.634 4.512 o
-8 2 -4 5693.070 5498.370 294.156 5.527 o
-8 2 -3 2625.420 2710.050 239.422 13.311 o
-8 2 -2 14094.100 13934.900 534.409 1.222 o
-8 2 -1 54.016 15.612 41.647 690.983 o
-8 2 0 414.248 457.021 70.919 149.545 o
-8 2 1 4128.170 3999.790 163.795 11.125 o
-8 2 2 10475.000 9978.830 246.094 2.527 o
-8 2 3 544.468 706.423 76.023 114.010 o
-8 2 4 7345.900 6996.010 184.873 4.726 o
-8 2 5 2189.080 1848.480 81.352 33.755 o
-8 2 6 3213.640 3503.190 160.284 14.585 o
-8 2 7 3299.380 2773.960 142.006 16.563 o
-8 2 8 5513.740 5528.110 297.931 5.605 o
-8 2 9 93.592 35.505 82.057 197.698 o
-8 2 10 7187.660 6834.690 346.926 3.806 o
-8 2 11 1601.450 1542.320 173.660 26.685 o
-8 2 12 2000.860 2201.890 208.569 18.357 o
-8 2 13 485.190 472.659 133.827 62.963 o
-8 2 14 4906.750 5083.600 443.752 4.303 o
-8 2 15 70.420 105.255 89.270 168.087 o
-8 3 -7 165.572 231.283 110.924 103.654 o
-8 3 -6 8643.910 8337.190 515.165 2.311 o
-8 3 -5 739.550 636.950 137.234 53.518 o
-8 3 -4 11116.500 10757.000 735.684 1.306 o
-8 3 -3 9257.400 9259.250 647.025 1.737 o
-8 3 -2 701.258 486.684 152.796 47.668 o
-8 3 -1 661.181 596.910 119.921 66.646 o
-8 3 0 6442.810 6040.730 303.692 4.735 o
-8 3 1 2672.420 3210.460 160.464 17.247 o
-8 3 2 4314.180 4096.980 159.645 10.693 o
-8 3 3 10881.600 11796.900 272.916 2.165 o
-8 3 4 625.616 358.677 42.234 182.716 o
-8 3 5 1071.430 970.801 70.800 76.615 o
-8 3 6 8794.890 7714.780 195.085 3.661 o
-8 3 7 4956.140 5430.850 400.854 4.698 o
-8 3 8 519.822 512.918 53.462 166.054 o
-8 3 9 3416.660 3363.840 239.415 10.848 o
-8 3 10 1980.540 2287.300 205.726 18.539 o
-8 3 11 402.716 308.612 86.172 127.957 o
-8 3 12 1948.710 2262.130 211.510 18.165 o
-8 3 13 1558.910 1471.010 176.289 26.795 o
-8 3 14 344.335 254.201 109.747 95.534 o
-8 3 15 2484.540 2462.280 321.417 9.739 o
-8 4 -7 4381.670 4226.410 532.900 3.687 o
-8 4 -6 141.588 142.421 117.898 96.230 o
-8 4 -5 18446.400 18080.900 1009.210 0.582 o
-8 4 -4 40.154 17.921 83.944 200.445 o
-8 4 -3 25.013 133.932 107.523 121.358 o
-8 4 -2 270.327 262.607 70.303 189.357 o
-8 4 -1 11483.700 11365.400 510.557 1.652 o
-8 4 0 813.204 939.455 102.150 68.477 o
-8 4 1 17599.600 18291.300 424.221 0.910 o
-8 4 2 2504.700 3159.990 129.775 20.338 o
-8 4 3 8.420 7.279 16.105 4384.240 o
-8 4 4 3603.850 3794.820 160.182 12.884 o
-8 4 5 16325.900 16864.200 346.904 1.080 o
-8 4 6 2250.550 2534.010 158.426 21.223 o
-8 4 7 14431.100 14759.600 365.827 1.320 o
-8 4 8 2341.660 2608.910 159.155 20.433 o
-8 4 9 2352.010 2247.540 141.011 23.226 o
-8 4 10 2513.420 2499.380 212.318 15.657 o
-8 4 11 8000.040 8676.190 402.989 2.885 o
-8 4 12 222.356 62.970 44.684 395.398 o
-8 4 13 4352.330 4343.200 321.200 6.696 o
-8 4 14 720.767 745.987 199.955 30.067 o
-8 4 15 645.941 185.833 97.126 97.599 o
-8 5 -7 98.027 36.784 84.887 185.131 o
-8 5 -6 16426.600 16985.800 1025.240 0.638 o
-8 5 -5 8.930 -59.421 114.125 112.845 o
-8 5 -4 9153.320 9042.320 680.980 1.671 o
-8 5 -3 2121.540 2174.990 318.797 10.512 o
-8 5 -2 1775.000 1769.310 161.495 26.530 o
-8 5 -1 342.894 486.741 60.145 185.110 o
-8 5 0 16286.800 16984.300 403.181 1.046 o
-8 5 1 171.275 125.952 31.111 576.076 o
-8 5 2 3489.060 3155.590 149.306 14.721 o
-8 5 3 598.909 599.118 64.142 130.749 o
-8 5 4 4959.020 5521.440 220.464 7.244 o
-8 5 5 408.436 327.349 43.206 241.819 o
-8 5 6 23487.100 23482.700 367.671 0.576 o
-8 5 7 22.313 13.919 31.628 1241.600 o
-8 5 8 2501.100 2652.930 175.381 18.170 o
-8 5 9 13.333 3.638 54.434 482.370 o
-8 5 10 8963.880 9908.790 419.471 2.424 o
-8 5 11 97.501 44.342 54.446 393.175 o
-8 5 12 10880.400 11077.100 470.555 1.833 o
-8 5 13 80.892 -6.133 67.808 287.958 o
-8 5 14 612.707 541.983 152.393 48.787 o
-8 5 15 93.885 157.174 88.682 163.668 o
-8 6 -7 5004.300 5365.780 607.411 2.822 o
-8 6 -6 278.622 184.864 117.898 89.381 o
-8 6 -5 12541.700 12269.900 843.208 1.018 o
-8 6 -4 1184.240 1578.890 296.160 13.765 o
-8 6 -3 89.763 78.284 74.512 230.466 o
-8 6 -2 8823.300 9148.870 493.254 2.279 o
-8 6 -1 9177.600 9356.500 299.446 2.843 o
-8 6 0 998.239 778.753 66.979 88.001 o
-8 6 1 12339.600 12122.100 493.664 1.533 o
-8 6 2 1428.300 1445.890 161.436 30.735 o
-8 6 3 425.128 317.194 108.938 91.105 o
-8 6 4 196.807 210.712 38.490 412.945 o
-8 6 5 14760.800 14509.600 265.676 1.377 o
-8 6 6 37.681 72.876 40.777 687.809 o
-8 6 7 11363.200 11208.300 309.233 2.063 o
-8 6 8 2257.040 2417.000 176.020 19.824 o
-8 6 9 249.826 205.574 59.800 243.981 o
-8 6 10 669.643 547.925 126.951 62.212 o
-8 6 11 15592.300 15880.700 554.282 1.024 o
-8 6 12 345.026 317.097 92.686 120.412 o
-8 6 13 4386.210 4648.960 655.514 2.671 o
-8 6 14 3769.340 3602.020 588.548 3.377 o
-8 7 -7 1321.620 1734.520 362.183 9.606 o
-8 7 -6 4716.460 5500.660 606.468 2.869 o
-8 7 -5 1398.600 1094.090 267.865 16.238 o
-8 7 -4 988.682 1141.250 253.717 18.768 o
-8 7 -3 4467.600 4775.350 490.456 4.013 o
-8 7 -2 2795.650 3128.570 302.508 9.640 o
-8 7 -1 3425.220 3306.140 389.064 6.429 o
-8 7 0 8846.450 8281.370 467.820 2.454 o
-8 7 1 5526.700 5871.920 350.491 4.854 o
-8 7 2 927.582 923.898 135.106 48.299 o
-8 7 3 9650.680 9292.860 347.108 2.568 o
-8 7 4 586.388 525.378 60.189 142.906 o
-8 7 5 816.464 751.778 111.687 65.262 o
-8 7 6 9857.320 10272.600 398.887 2.256 o
-8 7 7 3598.840 3738.620 241.366 10.089 o
-8 7 8 702.841 681.188 103.896 76.105 o
-8 7 9 6814.540 6674.920 730.025 1.890 o
-8 7 10 1690.060 2292.880 437.638 6.592 o
-8 7 11 614.601 474.422 210.330 28.961 o
-8 7 12 5595.330 6146.240 461.092 3.677 o
-8 7 13 3652.720 3619.000 597.979 3.314 o
-8 8 -7 339.401 450.843 205.614 31.778 o
-8 8 -6 230.595 38.671 125.444 84.624 o
-8 8 -5 3070.150 3067.240 445.183 5.565 o
-8 8 -4 6522.010 6358.950 610.241 2.454 o
-8 8 -3 485.026 528.235 142.920 56.321 o
-8 8 -2 4155.940 4553.790 370.725 5.857 o
-8 8 -1 1894.740 2281.630 250.154 15.011 o
-8 8 0 978.698 1098.730 193.825 28.675 o
-8 8 1 2981.690 2880.280 256.631 11.457 o
-8 8 2 11191.800 11732.700 1031.840 0.873 o
-8 8 3 24.789 33.021 33.244 1075.860 o
-8 8 4 2965.130 2979.450 335.262 8.382 o
-8 8 5 1202.100 1429.750 162.823 32.594 o
-8 8 6 179.340 158.984 52.101 328.944 o
-8 8 7 1970.460 1814.850 181.851 22.308 o
-8 8 8 7862.200 8165.680 383.136 3.098 o
-8 8 9 58.311 102.807 117.898 100.955 o
-8 8 10 3583.400 2978.580 522.525 4.204 o
-8 8 11 1225.740 1354.410 360.297 9.947 o
-8 8 12 485.635 298.047 191.467 35.631 o
-8 8 13 723.071 552.707 225.421 25.031 o
-8 9 -7 4770.860 4990.390 632.877 2.730 o
-8 9 -6 15.358 45.273 97.148 152.452 o
-8 9 -5 126.802 -37.727 119.785 97.201 o
-8 9 -4 551.502 425.395 127.023 66.929 o
-8 9 -3 3960.790 4706.580 401.552 5.419 o
-8 9 -2 572.983 514.725 128.721 63.904 o
-8 9 -1 4903.050 4972.050 382.221 5.085 o
-8 9 0 522.755 659.205 140.475 55.767 o
-8 9 1 4193.680 4339.310 424.905 5.036 o
-8 9 2 247.126 197.855 49.879 300.514 o
-8 9 3 9611.030 9856.870 499.616 2.056 o
-8 9 4 360.766 230.750 100.340 109.236 o
-8 9 5 1688.270 1577.260 178.631 25.175 o
-8 9 6 34.131 15.374 48.278 567.523 o
-8 9 7 4541.020 4800.990 312.746 6.481 o
-8 9 8 174.083 154.399 63.425 257.138 o
-8 9 9 8721.410 8825.380 881.878 1.264 o
-8 9 10 144.152 49.989 100.921 130.444 o
-8 9 11 1839.950 1812.800 424.433 6.993 o
-8 9 12 54.322 -60.364 85.830 191.240 o
-8 10 -7 416.189 306.535 181.092 39.887 o
-8 10 -6 2400.920 1717.540 369.729 8.368 o
-8 10 -5 127.214 213.595 90.947 149.654 o
-8 10 -4 1299.750 1566.450 250.768 17.594 o
-8 10 -3 8.290 -193.478 106.063 130.611 o
-8 10 -2 7417.150 8583.880 535.593 2.439 o
-8 10 -1 281.299 296.238 100.072 112.805 o
-8 10 0 1304.320 1191.940 188.948 27.206 o
-8 10 1 225.676 232.138 79.813 168.485 o
-8 10 2 4798.410 5281.080 352.571 5.465 o
-8 10 3 170.110 59.356 57.369 318.216 o
-8 10 4 6756.650 7165.290 402.952 3.529 o
-8 10 5 1229.490 1084.730 159.323 34.911 o
-8 10 6 128.156 45.532 68.533 258.904 o
-8 10 7 225.772 294.715 89.298 139.184 o
-8 10 8 3451.830 4031.010 312.386 7.953 o
-8 10 9 71.125 29.606 81.935 202.900 o
-8 10 10 2531.100 2701.280 519.695 4.589 o
-8 10 11 1516.200 1567.570 406.513 7.796 o
-8 11 -5 5.024 -166.377 209.387 33.646 o
-8 11 -4 1829.330 1720.670 270.144 14.330 o
-8 11 -3 4422.610 4470.380 415.695 5.020 o
-8 11 -2 113.270 110.181 221.649 29.375 o
-8 11 -1 3140.490 3441.110 342.701 7.750 o
-8 11 0 1553.180 1889.920 244.536 16.997 o
-8 11 1 569.872 705.880 186.513 34.983 o
-8 11 2 1118.880 900.748 156.433 37.974 o
-8 11 3 4484.620 4697.380 439.655 4.614 o
-8 11 4 149.153 86.295 88.592 161.453 o
-8 11 5 3497.220 2964.430 272.998 9.816 o
-8 11 6 2846.150 2545.910 256.590 12.070 o
-8 11 7 1299.630 1567.050 200.386 24.130 o
-8 11 8 273.030 168.671 102.604 113.221 o
-8 11 9 2872.690 3139.570 361.484 7.605 o
-8 11 10 557.899 686.639 270.694 18.343 o
-8 12 -4 1350.150 1207.120 388.121 8.689 o
-8 12 -3 134.560 83.404 96.677 140.217 o
-8 12 -2 1280.130 1460.340 238.267 19.222 o
-8 12 -1 1675.960 1850.530 443.297 6.556 o
-8 12 0 34.251 -38.712 105.985 128.884 o
-8 12 1 2734.320 2544.700 353.223 8.252 o
-8 12 2 2665.710 2926.460 291.301 10.431 o
-8 12 3 477.418 390.006 116.661 78.898 o
-8 12 4 2169.380 2156.020 247.035 14.687 o
-8 12 5 1492.330 1639.950 214.135 21.050 o
-8 12 6 124.174 61.553 87.399 170.236 o
-8 12 7 2373.640 2252.140 251.601 13.742 o
-8 12 8 1146.130 1176.090 235.427 20.545 o
-8 13 -1 303.776 292.100 122.173 81.287 o
-8 13 0 3955.370 4924.330 497.804 4.078 o
-8 13 1 102.737 87.693 92.684 154.329 o
-8 13 2 1505.240 1498.580 215.812 21.085 o
-8 13 3 1007.780 1033.950 180.671 31.735 o
-8 13 4 391.961 856.180 173.317 40.473 o
-8 13 5 232.188 127.763 98.274 126.110 o
-7 0 -5 1117.360 764.490 142.421 43.594 o
-7 0 -3 11849.600 10647.200 449.980 1.766 o
-7 0 -1 24562.800 21931.000 620.195 0.517 o
-7 0 1 797.935 648.764 112.534 66.875 o
-7 0 3 4889.860 4100.240 205.701 8.572 o
-7 0 5 9787.430 7781.600 383.860 2.603 o
-7 0 7 350.279 353.228 93.659 116.857 o
-7 0 9 14337.900 13509.200 318.133 1.438 o
-7 0 11 6370.700 5811.910 586.661 2.654 o
-7 0 13 1403.030 1389.710 191.203 25.547 o
-7 0 15 6065.600 6283.500 719.650 2.030 o
-7 1 -6 5169.480 5168.400 276.824 6.336 o
-7 1 -5 161.204 241.128 65.291 237.918 o
-7 1 -4 35.739 81.831 44.980 584.972 o
-7 1 -3 2279.470 2313.280 176.110 19.963 o
-7 1 -2 27266.400 24674.700 554.371 0.441 o
-7 1 -1 17.182 0.874 42.692 762.606 o
-7 1 0 3728.770 2645.470 149.949 14.748 o
-7 1 1 4583.930 3777.630 152.744 10.611 o
-7 1 2 1645.240 1562.380 111.302 38.489 o
-7 1 3 777.844 586.653 45.227 135.065 o
-7 1 4 16545.100 14507.100 298.251 1.184 o
-7 1 5 38.035 4.421 22.251 1954.700 o
-7 1 6 1811.030 1293.980 115.046 37.206 o
-7 1 7 559.831 326.976 73.106 135.474 o
-7 1 8 5099.530 5331.710 279.497 6.286 o
-7 1 9 48.579 34.643 32.736 983.809 o
-7 1 10 11267.400 10836.000 461.228 1.814 o
-7 1 11 193.614 165.036 51.553 323.878 o
-7 1 12 105.552 46.709 36.518 675.009 o
-7 1 13 155.009 360.030 122.255 85.396 o
-7 1 14 5895.490 5794.180 352.051 4.650 o
-7 1 15 1.264 -69.737 104.698 134.571 o
-7 1 16 4813.730 4602.160 1346.400 0.758 o
-7 2 -6 21.093 47.275 41.222 742.316 o
-7 2 -5 2119.020 2153.030 179.188 20.889 o
-7 2 -4 3922.940 4056.000 287.352 8.044 o
-7 2 -3 9086.490 8874.900 342.382 2.793 o
-7 2 -2 9.757 26.980 47.225 620.315 o
-7 2 -1 14086.800 13348.600 631.934 1.138 o
-7 2 0 2351.050 2155.140 134.006 24.299 o
-7 2 1 55.432 46.357 23.739 1370.780 o
-7 2 2 9508.040 7656.290 199.542 3.348 o
-7 2 3 6329.360 5406.830 144.899 6.600 o
-7 2 4 57.566 167.084 26.235 908.150 o
-7 2 5 14323.900 14154.700 236.505 1.467 o
-7 2 6 2834.580 2541.780 125.017 20.558 o
-7 2 7 145.510 109.867 66.363 256.443 o
-7 2 8 4869.910 4534.630 160.379 9.123 o
-7 2 9 9258.840 9632.630 222.544 3.004 o
-7 2 10 525.708 525.852 69.176 135.057 o
-7 2 11 7644.600 7895.890 273.214 3.810 o
-7 2 12 270.682 211.745 93.371 129.759 o
-7 2 13 90.771 124.225 135.347 76.340 o
-7 2 14 703.006 867.579 187.066 33.133 o
-7 2 15 5873.360 6042.080 500.198 3.298 o
-7 2 16 1556.630 1386.830 259.373 16.285 o
-7 3 -6 3483.640 3538.040 321.996 7.926 o
-7 3 -5 11023.900 10174.200 519.225 1.771 o
-7 3 -4 847.337 1042.220 230.137 22.699 o
-7 3 -3 7999.700 7868.990 567.798 2.265 o
-7 3 -2 20489.800 23345.700 916.776 0.512 o
-7 3 -1 1508.970 1304.430 204.671 23.066 o
-7 3 0 8554.600 10251.500 319.418 2.829 o
-7 3 1 14073.400 13160.700 263.066 1.539 o
-7 3 2 751.697 927.400 65.916 100.173 o
-7 3 3 8036.620 7364.180 198.289 4.122 o
-7 3 4 12013.500 12538.900 224.646 1.940 o
-7 3 5 5037.210 4897.070 130.288 8.982 o
-7 3 6 2206.510 2787.700 142.281 22.273 o
-7 3 7 9280.170 9185.010 267.369 2.941 o
-7 3 8 37.430 86.038 31.372 977.711 o
-7 3 9 1615.390 1309.440 81.744 48.648 o
-7 3 10 7538.960 7540.620 352.469 3.484 o
-7 3 11 3306.000 3331.060 241.294 11.025 o
-7 3 12 980.537 899.788 132.708 48.579 o
-7 3 13 5236.410 6306.100 469.377 3.700 o
-7 3 14 637.408 518.507 190.052 34.110 o
-7 3 15 150.322 53.620 71.026 236.857 o
-7 4 -6 7103.420 6575.890 607.411 2.354 o
-7 4 -5 1983.420 1865.620 307.478 11.507 o
-7 4 -4 15764.900 16090.700 859.242 0.778 o
-7 4 -3 284.107 398.921 84.845 137.904 o
-7 4 -2 875.799 643.527 100.449 72.751 o
-7 4 -1 4056.600 5394.380 581.474 3.193 o
-7 4 0 14102.200 13610.200 377.496 1.403 o
-7 4 1 16.828 51.720 33.828 1039.310 o
-7 4 2 25743.200 25694.900 380.834 0.486 o
-7 4 3 563.001 812.916 65.028 122.061 o
-7 4 4 1448.750 1665.810 107.080 41.824 o
-7 4 5 7169.750 8541.150 205.518 4.244 o
-7 4 6 12148.300 12237.600 252.490 1.909 o
-7 4 7 113.782 91.474 78.284 205.225 o
-7 4 8 9479.320 9445.510 317.930 2.683 o
-7 4 9 31.726 68.487 51.595 477.518 o
-7 4 10 338.974 330.663 79.120 148.589 o
-7 4 11 4124.070 3872.300 260.944 8.580 o
-7 4 12 6243.190 6338.590 375.170 4.120 o
-7 4 13 174.002 130.148 79.996 183.863 o
-7 4 14 4502.140 4077.020 397.057 5.359 o
-7 4 15 37.876 -34.995 116.359 107.096 o
-7 5 -6 18.885 -39.614 85.830 197.142 o
-7 5 -5 22549.800 22957.100 1096.920 0.425 o
-7 5 -4 378.230 134.875 79.228 155.749 o
-7 5 -3 11567.800 11590.900 422.334 1.790 o
-7 5 -2 12.230 42.786 38.558 866.531 o
-7 5 -1 1143.840 1279.780 106.237 52.093 o
-7 5 0 0.949 9.649 20.012 3374.620 o
-7 5 1 27782.300 29691.000 447.390 0.399 o
-7 5 2 188.637 136.306 27.172 591.280 o
-7 5 3 9765.900 10174.300 279.626 2.613 o
-7 5 4 297.221 431.014 44.046 259.714 o
-7 5 5 3045.610 2926.520 122.884 18.446 o
-7 5 6 664.106 761.598 67.309 112.276 o
-7 5 7 25732.600 26946.400 461.151 0.462 o
-7 5 8 9.927 -5.012 38.374 960.963 o
-7 5 9 3048.780 3170.120 204.671 13.463 o
-7 5 10 19.809 40.258 62.273 356.920 o
-7 5 11 3602.240 3724.470 259.049 9.520 o
-7 5 12 17.175 -33.391 52.756 510.192 o
-7 5 13 9633.280 10591.500 615.313 1.697 o
-7 5 14 410.875 156.079 193.825 35.903 o
-7 5 15 1756.400 1634.540 413.115 7.423 o
-7 6 -6 7561.380 8350.020 712.105 1.786 o
-7 6 -5 479.025 602.695 193.353 33.971 o
-7 6 -4 16963.100 17671.500 939.412 0.662 o
-7 6 -3 6951.090 7401.770 332.541 3.883 o
-7 6 -2 3228.720 3240.480 195.022 13.325 o
-7 6 -1 2998.310 2947.340 115.726 19.049 o
-7 6 0 9483.400 10737.800 508.377 1.981 o
-7 6 1 1842.590 1785.570 178.155 23.615 o
-7 6 2 15075.200 15386.200 522.053 1.103 o
-7 6 3 4416.540 4397.230 224.898 8.654 o
-7 6 4 1915.550 2122.570 106.059 32.081 o
-7 6 5 1887.500 2007.490 122.559 30.533 o
-7 6 6 15530.600 15988.800 306.896 1.203 o
-7 6 7 352.615 323.499 60.931 197.621 o
-7 6 8 10626.600 11132.200 380.547 2.067 o
-7 6 9 2760.370 3167.970 213.011 13.840 o
-7 6 10 218.128 204.737 83.270 161.077 o
-7 6 11 975.119 712.105 242.399 20.965 o
-7 6 12 7751.460 7914.840 491.400 2.637 o
-7 6 13 3.594 -70.739 120.728 101.123 o
-7 6 14 5048.500 4857.400 667.775 2.489 o
-7 7 -6 7223.690 6415.550 632.877 2.235 o
-7 7 -5 9121.760 9135.690 719.650 1.573 o
-7 7 -4 108.435 34.898 83.000 191.176 o
-7 7 -3 2252.730 2287.220 328.228 9.846 o
-7 7 -2 13827.300 14120.600 603.856 1.160 o
-7 7 -1 411.399 642.820 226.836 25.857 o
-7 7 0 11855.600 13022.700 531.620 1.477 o
-7 7 1 15119.700 14977.800 538.453 1.100 o
-7 7 2 389.458 342.037 128.131 71.808 o
-7 7 3 2232.790 2178.900 135.042 24.989 o
-7 7 4 7217.320 7391.930 214.033 4.513 o
-7 7 5 3006.070 2553.710 243.005 12.404 o
-7 7 6 3793.770 4055.640 249.742 9.239 o
-7 7 7 8847.200 9238.220 378.006 2.679 o
-7 7 8 1227.110 1214.120 147.005 37.554 o
-7 7 9 1262.300 1432.480 317.382 12.268 o
-7 7 10 7010.500 7591.350 622.502 2.223 o
-7 7 11 4834.530 4399.960 599.866 2.996 o
-7 7 12 993.368 704.559 258.433 18.780 o
-7 7 13 3639.400 3566.180 573.457 3.551 o
-7 7 14 1682.390 2315.520 474.422 5.732 o
-7 8 -6 530.625 444.240 194.296 33.883 o
-7 8 -5 470.940 402.740 157.512 49.356 o
-7 8 -4 1728.690 2091.040 343.319 9.890 o
-7 8 -3 6688.470 6492.890 567.798 2.630 o
-7 8 -2 28.148 -55.360 78.393 233.327 o
-7 8 -1 29930.200 30495.600 879.424 0.315 o
-7 8 0 152.828 111.942 88.659 159.205 o
-7 8 1 226.859 244.054 88.956 142.503 o
-7 8 2 250.312 189.192 50.207 299.045 o
-7 8 3 9485.060 10573.100 314.482 2.541 o
-7 8 4 14.527 37.778 32.721 1147.700 o
-7 8 5 13826.400 13400.400 583.705 1.210 o
-7 8 6 2313.290 2228.780 201.031 17.745 o
-7 8 7 81.135 137.800 65.281 280.623 o
-7 8 8 294.990 522.457 100.028 104.622 o
-7 8 9 7194.030 7416.650 470.677 2.939 o
-7 8 10 186.383 108.959 126.387 83.799 o
-7 8 11 7408.030 8152.890 835.662 1.467 o
-7 8 12 1964.880 1474.200 369.729 8.843 o
-7 8 13 11.811 -249.001 185.807 42.665 o
-7 9 -6 7719.850 8021.790 741.344 1.699 o
-7 9 -5 2.958 54.705 84.887 199.459 o
-7 9 -4 197.510 169.773 107.523 109.287 o
-7 9 -3 304.945 223.776 98.354 116.733 o
-7 9 -2 8010.140 8089.320 489.911 2.567 o
-7 9 -1 25.155 -38.390 80.492 222.291 o
-7 9 0 7271.120 7234.310 825.759 1.534 o
-7 9 1 6.306 19.138 46.046 664.315 o
-7 9 2 2231.220 2059.350 157.512 22.873 o
-7 9 3 671.432 596.116 81.406 101.860 o
-7 9 4 8193.130 9212.940 425.304 2.666 o
-7 9 5 9.754 16.276 66.980 320.834 o
-7 9 6 3376.120 3574.880 264.755 9.812 o
-7 9 7 18.648 -36.751 49.122 582.855 o
-7 9 8 2068.340 2153.410 209.063 18.140 o
-7 9 9 121.077 7.920 68.396 268.162 o
-7 9 10 6418.510 6293.730 464.248 3.361 o
-7 9 11 0.841 -304.649 182.035 44.542 o
-7 9 12 1033.970 839.435 294.274 14.815 o
-7 10 -6 543.381 299.933 151.853 52.081 o
-7 10 -5 1527.590 1356.300 307.478 12.587 o
-7 10 -4 486.699 349.101 119.921 76.157 o
-7 10 -3 3539.630 3485.580 458.388 5.031 o
-7 10 -2 23.616 59.043 69.060 288.663 o
-7 10 -1 4424.810 4634.390 369.319 5.673 o
-7 10 0 368.697 343.153 101.177 103.898 o
-7 10 1 32.119 51.233 51.177 493.062 o
-7 10 2 996.661 845.016 120.798 54.193 o
-7 10 3 5895.630 5570.980 402.036 4.206 o
-7 10 4 119.517 84.047 72.822 231.315 o
-7 10 5 6014.400 6430.600 377.292 4.186 o
-7 10 6 876.024 681.849 128.900 54.627 o
-7 10 7 38.710 -15.510 58.842 397.644 o
-7 10 8 572.051 408.041 124.801 68.327 o
-7 10 9 2852.140 2865.350 336.717 8.515 o
-7 10 10 38.964 118.841 181.092 44.145 o
-7 10 11 3840.630 5021.520 686.639 2.529 o
-7 11 -6 2571.380 2703.170 456.502 5.660 o
-7 11 -5 2089.480 2342.500 313.602 10.692 o
-7 11 -4 258.882 175.073 90.546 138.928 o
-7 11 -3 1273.710 1369.470 224.030 21.235 o
-7 11 -2 2539.640 3005.310 324.520 9.216 o
-7 11 -1 40.836 23.170 80.171 218.141 o
-7 11 0 2191.820 2298.620 261.466 13.476 o
-7 11 1 572.351 623.307 101.215 85.417 o
-7 11 2 1299.080 1323.180 184.805 27.587 o
-7 11 3 864.049 705.827 134.464 51.817 o
-7 11 4 4513.280 5079.990 352.219 5.733 o
-7 11 5 142.885 214.833 78.909 185.975 o
-7 11 6 444.046 889.885 154.188 47.837 o
-7 11 7 1001.540 1011.570 161.294 37.198 o
-7 11 8 946.458 797.421 140.075 46.965 o
-7 11 9 42.196 107.434 95.392 151.733 o
-7 11 10 3935.840 4897.020 684.752 2.536 o
-7 12 -5 528.919 519.794 158.691 47.119 o
-7 12 -4 1982.150 2427.190 314.950 10.716 o
-7 12 -3 468.755 624.168 156.581 48.256 o
-7 12 -2 103.213 -7.225 56.437 382.074 o
-7 12 -1 456.211 569.658 145.033 55.193 o
-7 12 0 2422.360 2582.380 245.328 13.616 o
-7 12 1 85.194 -19.196 62.423 331.434 o
-7 12 2 1550.410 1818.780 227.861 18.832 o
-7 12 3 3466.000 3351.620 301.311 8.652 o
-7 12 4 14.698 100.515 81.879 207.137 o
-7 12 5 2943.660 2973.090 285.217 10.214 o
-7 12 6 3141.880 3110.250 291.595 9.571 o
-7 12 7 93.925 -66.189 60.533 344.894 o
-7 12 8 612.576 524.742 115.222 72.979 o
-7 12 9 3065.990 3302.350 421.117 5.976 o
-7 13 -3 1512.000 1729.210 364.069 9.357 o
-7 13 -2 474.025 425.976 133.476 64.058 o
-7 13 -1 410.993 522.044 156.400 49.943 o
-7 13 0 549.781 390.356 299.933 15.424 o
-7 13 1 2183.300 2281.950 263.320 13.394 o
-7 13 2 403.125 334.182 104.537 97.441 o
-7 13 3 667.106 616.064 137.056 55.277 o
-7 13 4 1121.980 1355.170 204.259 25.031 o
-7 13 5 1536.030 1527.220 211.497 21.450 o
-7 13 6 626.442 491.121 129.307 62.435 o
-7 13 7 3842.610 4875.150 382.669 5.752 o
-6 0 -4 4634.640 4032.610 262.261 7.775 o
-6 0 -2 26949.400 29016.200 994.117 0.343 o
-6 0 0 35397.100 34906.500 616.565 0.260 o
-6 0 2 372.829 243.609 51.479 236.348 o
-6 0 4 12586.100 14312.600 693.713 1.136 o
-6 0 6 13752.400 13481.300 484.105 1.328 o
-6 0 8 915.787 1373.970 102.816 58.169 o
-6 0 10 24567.900 25545.200 1152.570 0.365 o
-6 0 12 6090.430 5793.970 436.695 3.770 o
-6 0 14 67.041 36.633 65.265 306.399 o
-6 0 16 6937.180 5844.920 718.707 1.962 o
-6 1 -5 11039.000 10426.000 359.683 2.102 o
-6 1 -4 8311.450 8577.920 319.371 3.178 o
-6 1 -3 1000.270 1082.810 113.404 54.806 o
-6 1 -2 249.115 106.796 49.008 328.209 o
-6 1 -1 17888.600 17294.500 417.275 0.926 o
-6 1 0 1219.880 1956.620 117.005 40.642 o
-6 1 1 4756.650 3554.730 123.883 11.104 o
-6 1 2 6135.760 6699.140 155.316 6.036 o
-6 1 3 9983.500 10813.800 208.836 2.623 o
-6 1 4 3335.620 2409.420 102.851 19.369 o
-6 1 5 30161.800 30775.700 503.577 0.349 o
-6 1 6 1686.880 1884.980 130.213 32.063 o
-6 1 7 3064.340 2543.250 117.225 19.723 o
-6 1 8 5519.640 5451.010 194.280 6.990 o
-6 1 9 4902.190 5451.520 211.254 7.504 o
-6 1 10 640.149 654.798 68.585 117.622 o
-6 1 11 17251.700 17672.600 503.231 0.906 o
-6 1 12 168.104 164.111 78.475 187.616 o
-6 1 13 614.380 579.930 89.343 97.026 o
-6 1 14 2576.330 2231.590 234.542 14.357 o
-6 1 15 4143.460 4018.500 307.023 7.351 o
-6 1 16 6.497 16.595 82.524 213.783 o
-6 2 -5 5006.980 4780.090 245.693 7.207 o
-6 2 -4 953.262 806.902 99.309 67.707 o
-6 2 -3 3487.380 2846.790 181.183 13.790 o
-6 2 -2 11235.700 10875.300 407.270 1.927 o
-6 2 -1 698.225 1246.290 136.995 48.697 o
-6 2 0 23401.600 23178.300 350.405 0.586 o
-6 2 1 21912.200 24997.300 312.247 0.610 o
-6 2 2 141.426 130.087 22.654 773.492 o
-6 2 3 12491.100 11140.200 189.513 2.020 o
-6 2 4 9084.050 8396.640 168.390 3.460 o
-6 2 6 6914.280 5634.660 180.266 5.615 o
-6 2 7 9808.580 10382.000 260.416 2.621 o
-6 2 8 1.073 2.730 20.834 3282.930 o
-6 2 9 3577.400 3714.010 145.307 13.630 o
-6 2 10 9213.430 9485.450 246.810 2.976 o
-6 2 11 609.034 696.667 83.322 100.496 o
-6 2 12 3621.430 3638.750 232.570 10.437 o
-6 2 13 6595.450 6743.100 579.116 2.565 o
-6 2 14 528.328 444.991 102.996 89.968 o
-6 2 15 2478.960 1996.460 219.928 16.034 o
-6 2 16 2914.080 3008.500 369.464 7.403 o
-6 3 -5 6029.340 6586.540 395.601 3.985 o
-6 3 -4 18791.700 17237.000 612.764 0.783 o
-6 3 -3 64.786 239.698 65.382 267.653 o
-6 3 -2 1763.190 1088.440 187.694 24.838 o
-6 3 -1 8337.010 7750.150 462.161 2.652 o
-6 3 0 4857.590 5493.030 164.811 8.272 o
-6 3 1 8694.430 10349.100 211.775 3.107 o
-6 3 2 54902.100 54090.800 451.057 0.117 o
-6 3 3 557.724 931.148 57.905 125.603 o
-6 3 4 6429.340 6043.350 124.714 6.292 o
-6 3 5 8250.760 7245.750 174.100 4.139 o
-6 3 6 4944.230 5743.280 212.498 7.250 o
-6 3 7 7057.680 8052.060 276.741 4.037 o
-6 3 8 18484.900 18191.200 440.268 0.858 o
-6 3 9 13.952 12.523 16.626 3632.910 o
-6 3 10 2329.150 2136.830 126.036 25.407 o
-6 3 11 6114.370 6213.160 230.906 5.607 o
-6 3 12 2797.820 2807.540 218.991 13.905 o
-6 3 13 578.881 530.705 212.688 28.445 o
-6 3 14 7672.740 7712.300 540.917 2.451 o
-6 3 15 125.262 230.931 91.748 146.753 o
-6 3 16 99.925 245.605 92.571 146.436 o
-6 4 -5 7836.550 8051.970 612.127 2.107 o
-6 4 -4 1063.480 1143.140 215.046 24.026 o
-6 4 -3 15848.800 15678.100 474.399 1.075 o
-6 4 -2 35.969 51.243 30.587 1105.010 o
-6 4 -1 4856.400 4384.970 205.281 8.414 o
-6 4 0 7594.360 8350.280 246.002 3.867 o
-6 4 1 11949.600 9620.600 231.335 2.238 o
-6 4 2 1954.630 2633.900 108.530 28.554 o
-6 4 3 30114.400 31602.900 316.725 0.357 o
-6 4 4 4.733 55.116 20.692 2319.620 o
-6 4 5 931.473 1180.370 76.106 75.201 o
-6 4 6 2890.160 3212.740 130.915 18.049 o
-6 4 7 10520.900 9981.880 492.676 1.919 o
-6 4 8 2282.670 2498.130 173.349 19.741 o
-6 4 9 11574.600 11703.400 762.565 1.198 o
-6 4 10 8.799 54.715 43.431 696.455 o
-6 4 11 216.567 169.794 57.139 275.774 o
-6 4 12 347.729 411.006 96.535 110.177 o
-6 4 13 5821.850 6249.790 468.736 3.523 o
-6 4 14 109.113 35.042 77.968 213.423 o
-6 4 15 4449.590 4622.860 437.756 4.671 o
-6 5 -5 70.567 121.671 114.125 106.240 o
-6 5 -4 15325.000 14583.500 805.480 0.867 o
-6 5 -3 298.320 160.682 52.818 270.143 o
-6 5 -2 16722.300 16936.800 435.779 0.999 o
-6 5 -1 122.710 147.083 34.364 589.644 o
-6 5 0 160.147 339.078 32.634 438.675 o
-6 5 1 7.339 -10.120 45.117 708.840 o
-6 5 2 30727.600 30787.400 514.248 0.340 o
-6 5 3 374.982 381.628 35.076 272.611 o
-6 5 4 29598.200 31485.000 408.166 0.359 o
-6 5 5 405.955 377.563 45.202 228.071 o
-6 5 6 1122.150 774.723 72.851 77.686 o
-6 5 7 470.623 479.551 77.691 128.673 o
-6 5 8 9509.960 9460.360 447.401 2.266 o
-6 5 9 1699.330 1470.880 190.165 23.713 o
-6 5 10 8767.900 8676.800 484.415 2.367 o
-6 5 11 1.733 60.228 44.861 665.593 o
-6 5 12 1225.770 1332.890 154.801 34.803 o
-6 5 13 0.302 134.875 160.341 56.451 o
-6 5 14 6078.020 6773.960 765.866 1.831 o
-6 5 15 119.311 -5.659 122.614 93.301 o
-6 6 -5 4956.230 5288.440 522.525 3.480 o
-6 6 -4 1156.610 1226.330 103.868 53.364 o
-6 6 -3 14278.000 14474.900 347.732 1.366 o
-6 6 -2 11.271 28.042 22.862 2153.660 o
-6 6 -1 6750.930 7897.230 575.355 2.449 o
-6 6 0 8499.590 8356.490 392.916 2.834 o
-6 6 1 7084.710 6883.580 278.174 4.323 o
-6 6 2 1175.880 1481.100 122.753 43.623 o
-6 6 3 12018.600 12651.500 287.504 1.851 o
-6 6 4 18.246 6.286 11.947 5267.620 o
-6 6 5 928.346 1070.500 96.385 65.758 o
-6 6 6 4275.170 4491.350 195.429 9.500 o
-6 6 7 6785.280 6480.040 296.835 4.464 o
-6 6 8 1279.080 1270.690 170.398 30.895 o
-6 6 9 2948.880 3202.110 464.990 5.234 o
-6 6 10 1790.870 1682.640 354.638 9.530 o
-6 6 11 1.405 -73.568 148.080 67.294 o
-6 6 12 1908.430 1840.710 221.863 18.110 o
-6 6 13 3306.040 4270.740 600.809 3.293 o
-6 6 14 113.656 107.523 105.637 120.224 o
-6 6 15 2769.240 2404.180 485.740 5.102 o
-6 7 -5 10272.300 10598.600 756.435 1.339 o
-6 7 -4 11048.500 10531.600 716.821 1.353 o
-6 7 -3 160.592 127.637 34.386 545.515 o
-6 7 -2 5222.770 5079.610 206.601 7.406 o
-6 7 -1 11241.600 10906.000 490.849 1.752 o
-6 7 0 177.881 255.916 86.773 152.970 o
-6 7 1 4783.230 4987.210 251.474 7.243 o
-6 7 2 6503.170 6293.710 266.000 4.956 o
-6 7 3 7.218 -2.857 22.757 2616.850 o
-6 7 4 2314.460 2300.810 117.054 25.821 o
-6 7 5 4377.210 4062.490 174.023 10.238 o
-6 7 6 2496.400 2402.190 147.386 21.198 o
-6 7 7 3969.910 4053.380 252.305 8.901 o
-6 7 8 6215.920 6797.860 419.249 3.677 o
-6 7 9 292.934 209.387 146.194 61.014 o
-6 7 10 226.318 0.000 153.739 58.642 o
-6 7 11 2697.820 2656.010 458.388 5.578 o
-6 7 12 792.283 534.786 231.080 23.747 o
-6 7 13 444.874 498.002 218.819 27.763 o
-6 7 14 2506.560 2552.260 485.740 5.170 o
-6 8 -5 2107.110 2588.100 383.876 7.784 o
-6 8 -4 2528.490 2138.200 340.490 9.117 o
-6 8 -3 1358.710 1095.980 232.024 20.368 o
-6 8 -2 16713.500 16041.200 854.054 0.748 o
-6 8 -1 307.881 165.016 84.887 148.043 o
-6 8 0 16554.700 16906.000 552.083 0.937 o
-6 8 1 3116.020 3154.380 245.073 11.428 o
-6 8 2 667.880 848.920 91.840 84.185 o
-6 8 3 308.104 252.720 80.457 154.007 o
-6 8 4 3763.900 3596.770 165.398 12.525 o
-6 8 5 242.250 227.983 29.415 438.373 o
-6 8 6 12372.700 13076.400 476.321 1.502 o
-6 8 7 4115.060 4102.750 298.983 7.519 o
-6 8 8 337.301 260.118 67.228 186.991 o
-6 8 9 1586.680 1478.620 300.876 12.836 o
-6 8 10 3890.300 3847.250 558.366 3.610 o
-6 8 11 492.298 336.717 184.864 37.685 o
-6 8 12 3291.310 3523.740 554.593 3.832 o
-6 8 13 2013.210 1587.380 386.706 8.135 o
-6 8 14 42.813 246.171 160.341 55.044 o
-6 9 -5 8036.780 8966.860 734.741 1.643 o
-6 9 -4 62.189 41.500 83.944 194.525 o
-6 9 -3 591.694 580.708 130.329 61.497 o
-6 9 -2 1.944 11.810 59.299 413.889 o
-6 9 -1 18511.700 19058.900 702.776 0.713 o
-6 9 0 67.003 47.954 44.352 575.918 o
-6 9 1 4644.490 4757.790 273.109 7.128 o
-6 9 2 8.153 26.401 32.708 1222.920 o
-6 9 3 1448.910 1184.870 111.274 44.965 o
-6 9 4 163.706 247.886 49.882 329.983 o
-6 9 5 13008.700 13894.800 712.111 1.100 o
-6 9 6 475.850 319.918 94.969 106.967 o
-6 9 7 2577.990 3066.350 248.211 12.520 o
-6 9 8 1058.060 1176.320 156.964 36.931 o
-6 9 9 1361.570 1373.620 259.848 16.763 o
-6 9 10 201.002 268.014 131.574 75.117 o
-6 9 11 9845.110 10799.500 965.822 1.023 o
-6 9 12 1434.180 1113.900 332.001 11.356 o
-6 9 13 227.754 298.990 163.171 50.402 o
-6 10 -5 15.681 -62.250 111.296 118.216 o
-6 10 -4 460.769 405.519 141.478 58.957 o
-6 10 -3 11.389 -70.312 73.027 273.073 o
-6 10 -2 3891.810 4249.250 414.530 5.376 o
-6 10 -1 1252.870 1302.340 192.969 26.434 o
-6 10 0 15137.600 16131.500 546.498 1.052 o
-6 10 1 57.515 37.701 32.140 963.968 o
-6 10 2 3.135 -54.782 53.366 514.728 o
-6 10 3 1578.150 1718.550 159.311 28.658 o
-6 10 4 7293.770 7412.360 398.994 3.322 o
-6 10 5 408.542 290.489 89.799 121.519 o
-6 10 6 12059.400 11596.800 502.373 1.582 o
-6 10 7 86.082 86.794 55.926 370.442 o
-6 10 8 87.968 33.625 47.301 504.427 o
-6 10 9 92.640 188.489 100.126 130.851 o
-6 10 10 8267.570 8419.240 561.897 2.197 o
-6 10 11 66.566 -15.214 71.693 264.879 o
-6 10 12 3806.550 4426.370 650.798 2.804 o
-6 11 -5 2697.570 3308.840 406.041 6.523 o
-6 11 -4 1346.560 1297.540 219.805 21.665 o
-6 11 -3 1337.950 1213.750 207.175 23.783 o
-6 11 -2 1923.400 1959.490 256.533 14.861 o
-6 11 -1 5737.510 5823.280 350.801 4.743 o
-6 11 0 4.830 -3.153 56.286 461.452 o
-6 11 1 2468.240 2435.380 193.348 17.352 o
-6 11 2 2418.330 2483.610 245.868 13.714 o
-6 11 3 2758.430 2766.670 258.843 11.911 o
-6 11 4 2466.820 2512.390 243.515 13.705 o
-6 11 5 7033.500 6496.470 395.890 3.599 o
-6 11 6 908.602 971.802 155.500 40.392 o
-6 11 7 1053.090 1073.490 159.097 36.940 o
-6 11 8 668.993 719.402 132.134 56.967 o
-6 11 9 4868.210 5091.760 445.638 4.296 o
-6 11 10 465.851 292.199 122.425 75.455 o
-6 11 11 6192.690 6652.880 528.201 2.948 o
-6 12 -5 1614.410 1446.880 250.328 16.907 o
-6 12 -4 139.293 392.794 132.074 74.597 o
-6 12 -3 2627.810 3211.360 346.297 8.256 o
-6 12 -2 1119.640 850.176 173.474 33.395 o
-6 12 -1 173.103 142.720 60.228 278.740 o
-6 12 0 1827.930 1644.540 173.922 24.743 o
-6 12 1 1717.920 1647.450 210.346 20.513 o
-6 12 2 375.548 262.138 99.186 109.093 o
-6 12 3 4275.000 4022.890 326.638 6.801 o
-6 12 4 4682.950 4819.630 353.995 5.678 o
-6 12 5 137.890 37.860 68.390 257.936 o
-6 12 6 2830.450 2730.580 270.625 11.241 o
-6 12 7 4027.900 4183.980 336.177 6.751 o
-6 12 8 262.397 -6.316 102.807 119.351 o
-6 12 9 2030.340 2056.780 297.371 11.848 o
-6 13 -4 4088.380 3944.690 409.199 5.439 o
-6 13 -3 34.584 -48.507 72.208 271.504 o
-6 13 -2 1593.020 1897.940 225.544 18.783 o
-6 13 -1 150.083 137.177 69.822 232.196 o
-6 13 0 1619.740 1250.280 195.518 23.993 o
-6 13 1 684.987 780.171 160.485 42.568 o
-6 13 2 5734.090 5538.500 399.434 4.312 o
-6 13 3 26.402 54.223 96.677 152.290 o
-6 13 4 522.728 674.260 139.143 56.409 o
-6 13 5 939.451 1015.300 175.348 33.769 o
-6 13 6 4422.360 4150.390 349.094 6.193 o
-6 13 7 6.259 -38.804 65.232 343.687 o
-6 13 8 4186.480 4583.500 372.624 5.794 o
-6 14 -2 263.743 154.559 94.734 129.942 o
-6 14 -1 288.138 184.956 88.408 140.513 o
-6 14 0 12.380 -99.417 89.757 181.449 o
-6 14 1 2520.540 2100.620 258.417 13.151 o
-6 14 2 390.951 366.505 118.952 80.207 o
-6 14 3 3214.210 3449.960 330.624 8.014 o
-6 14 4 26.548 -21.581 69.145 298.105 o
-6 14 5 79.411 30.369 78.089 219.726 o
-5 0 -3 8083.500 8507.530 528.184 2.350 o
-5 0 -1 19698.600 24102.200 780.957 0.567 o
-5 0 1 62829.200 64903.700 695.979 0.086 o
-5 0 3 5424.020 6020.880 226.764 6.371 o
-5 0 5 37407.500 38461.000 741.861 0.223 o
-5 0 7 41715.100 43422.500 2075.950 0.124 o
-5 0 9 1999.480 2489.070 341.433 9.463 o
-5 0 11 16544.900 17165.000 606.419 0.895 o
-5 0 13 16148.600 16036.100 650.620 0.914 o
-5 0 15 22.852 20.052 75.226 251.441 o
-5 1 -4 34636.200 35567.900 621.706 0.263 o
-5 1 -3 9541.530 12473.500 345.515 2.228 o
-5 1 -2 4815.200 5531.450 223.297 7.367 o
-5 1 -1 4012.370 4484.380 166.634 10.757 o
-5 1 0 27486.600 29154.700 456.639 0.408 o
-5 1 1 138.137 139.340 25.512 718.115 o
-5 1 2 17407.800 17958.900 215.663 1.017 o
-5 1 3 15707.600 19189.700 209.192 1.099 o
-5 1 4 2622.560 2934.730 116.217 21.284 o
-5 1 5 1923.160 2089.750 110.182 31.572 o
-5 1 6 38245.400 39694.400 453.321 0.225 o
-5 1 7 1113.540 1332.110 120.481 46.842 o
-5 1 8 10788.700 11473.100 291.398 2.185 o
-5 1 9 4259.630 4468.520 190.333 9.671 o
-5 1 10 2562.450 2457.570 180.327 17.942 o
-5 1 11 1919.430 1886.290 166.981 24.306 o
-5 1 12 13877.400 14297.900 412.639 1.354 o
-5 1 13 1119.610 1073.540 121.725 48.758 o
-5 1 14 2597.590 2385.200 187.468 17.391 o
-5 1 15 2111.460 1689.300 204.923 19.320 o
-5 1 16 1475.390 1917.610 290.435 13.367 o
-5 2 -4 14708.000 16702.700 552.923 1.056 o
-5 2 -3 2646.900 2399.140 153.555 19.830 o
-5 2 -2 9755.950 11424.400 325.272 2.344 o
-5 2 -1 13704.300 13434.600 285.224 1.550 o
-5 2 0 9.865 16.501 19.552 2960.480 o
-5 2 1 12387.700 11807.900 192.347 1.973 o
-5 2 2 30954.200 36184.700 289.256 0.316 o
-5 2 3 1754.450 1665.790 70.486 44.204 o
-5 2 4 22637.000 25898.300 232.412 0.583 o
-5 2 5 11281.000 12055.100 286.160 2.037 o
-5 2 6 3799.710 4294.370 208.983 10.216 o
-5 2 7 11850.300 11231.600 218.164 2.106 o
-5 2 8 10671.800 11544.200 241.538 2.293 o
-5 2 9 0.290 -30.844 35.719 1155.400 o
-5 2 10 7226.650 7385.410 250.460 4.288 o
-5 2 11 9736.920 9813.770 366.397 2.425 o
-5 2 12 5.600 -8.131 52.817 522.468 o
-5 2 13 2972.660 3126.490 202.885 13.835 o
-5 2 14 6625.000 6131.610 370.933 4.030 o
-5 2 15 18.626 13.471 60.180 390.026 o
-5 2 16 2267.210 1946.970 232.356 15.813 o
-5 3 -4 3082.510 2615.790 282.012 10.408 o
-5 3 -3 28339.300 29930.100 506.955 0.382 o
-5 3 -2 8.718 2.244 19.606 3299.100 o
-5 3 -1 7187.480 7766.440 255.160 4.175 o
-5 3 0 6636.410 5184.550 174.921 6.129 o
-5 3 1 4825.550 6120.910 144.580 8.121 o
-5 3 2 402.396 707.728 45.767 185.830 o
-5 3 3 23539.600 23033.000 283.149 0.594 o
-5 3 4 363.800 233.055 31.354 330.784 o
-5 3 5 7295.520 8357.940 188.111 4.309 o
-5 3 6 10024.600 8723.680 241.893 2.849 o
-5 3 7 5367.560 5607.930 169.291 7.400 o
-5 3 8 124.822 57.259 18.622 1078.030 o
-5 3 9 12991.000 12979.400 296.366 1.665 o
-5 3 10 572.805 532.952 65.154 135.928 o
-5 3 11 1290.000 1191.770 104.286 50.476 o
-5 3 12 1957.500 1948.570 169.790 23.494 o
-5 3 13 3708.780 4380.590 386.069 5.939 o
-5 3 14 4.709 -3.100 61.918 382.041 o
-5 3 15 9226.760 9170.570 483.510 2.234 o
-5 3 16 479.253 422.276 141.148 58.622 o
-5 4 -4 8073.100 7509.170 358.410 3.262 o
-5 4 -3 1594.540 1952.590 160.818 27.321 o
-5 4 -2 18589.600 16986.400 518.752 0.846 o
-5 4 -1 3863.710 3392.120 162.661 12.628 o
-5 4 0 4671.790 4216.670 108.460 10.795 o
-5 4 1 66.070 356.081 55.179 313.371 o
-5 4 2 37645.400 33962.700 567.379 0.247 o
-5 4 3 5837.670 5819.460 114.984 7.200 o
-5 4 4 32368.300 31949.400 412.083 0.319 o
-5 4 5 1459.710 1186.380 75.567 56.094 o
-5 4 6 910.583 966.976 73.929 82.806 o
-5 4 7 131.023 293.489 55.377 296.493 o
-5 4 8 12842.100 11767.700 494.027 1.496 o
-5 4 9 85.090 74.797 28.791 900.999 o
-5 4 10 9187.980 9655.050 265.089 2.902 o
-5 4 11 1271.250 1169.120 99.248 53.047 o
-5 4 12 82.270 35.286 36.647 738.366 o
-5 4 13 116.735 -21.347 62.786 313.265 o
-5 4 14 6299.940 7485.120 781.901 1.727 o
-5 4 15 486.678 329.763 162.699 47.029 o
-5 4 16 2153.420 2854.570 352.129 8.701 o
-5 5 -4 1922.770 1689.270 163.604 25.427 o
-5 5 -3 15282.900 13715.500 423.557 1.239 o
-5 5 -2 619.267 652.570 84.916 99.462 o
-5 5 -1 16556.200 14999.400 324.218 1.147 o
-5 5 0 2178.920 2450.830 240.041 14.768 o
-5 5 1 522.217 300.402 55.678 180.010 o
-5 5 2 1498.590 1919.310 109.398 38.430 o
-5 5 3 20748.200 18919.700 327.628 0.768 o
-5 5 4 525.174 704.535 66.746 129.147 o
-5 5 5 7099.520 5877.790 171.939 5.413 o
-5 5 6 1026.050 1247.470 85.967 64.834 o
-5 5 7 1491.740 1274.050 153.149 32.725 o
-5 5 8 965.012 891.582 214.103 25.281 o
-5 5 9 10734.100 10670.300 501.307 1.816 o
-5 5 10 2.521 -14.675 59.543 414.490 o
-5 5 11 475.807 507.811 109.707 83.661 o
-5 5 12 31.201 224.478 174.489 47.014 o
-5 5 13 2190.120 2463.600 451.786 5.982 o
-5 5 14 176.838 211.273 139.591 68.876 o
-5 5 15 6725.080 7271.510 549.603 2.641 o
-5 6 -4 1948.720 1609.590 111.701 33.903 o
-5 6 -3 741.438 786.968 78.329 94.165 o
-5 6 -2 12778.400 11205.200 276.320 1.859 o
-5 6 -1 1157.090 948.671 74.467 71.316 o
-5 6 0 3753.780 3940.850 215.171 10.463 o
-5 6 1 3111.030 2317.280 157.929 17.447 o
-5 6 2 6473.020 5182.430 194.388 6.109 o
-5 6 3 139.453 92.275 28.691 712.983 o
-5 6 4 16214.300 14674.300 345.510 1.176 o
-5 6 5 849.952 634.864 71.169 98.765 o
-5 6 6 75.590 27.588 36.076 782.322 o
-5 6 7 5530.900 4870.930 372.558 4.881 o
-5 6 8 3591.580 3610.510 468.763 4.825 o
-5 6 9 404.493 189.580 119.785 82.093 o
-5 6 10 8609.670 9008.360 782.844 1.473 o
-5 6 11 416.983 487.627 207.501 30.719 o
-5 6 12 1.468 -105.637 149.023 66.444 o
-5 6 13 1161.230 1012.980 309.365 13.263 o
-5 6 14 3655.540 3925.540 588.548 3.368 o
-5 6 15 30.172 152.796 162.228 54.636 o
-5 7 -4 3821.760 3661.080 249.252 9.524 o
-5 7 -3 3173.490 3320.780 162.679 14.932 o
-5 7 -2 51.461 38.606 24.713 1377.180 o
-5 7 -1 6509.490 6037.060 350.987 4.275 o
-5 7 0 3739.020 3362.970 213.984 11.131 o
-5 7 1 875.445 1019.560 113.075 58.936 o
-5 7 2 2801.720 2141.000 136.261 21.104 o
-5 7 3 4605.130 4080.970 244.910 8.160 o
-5 7 4 249.171 130.924 25.540 519.971 o
-5 7 5 2083.550 2057.950 91.052 32.522 o
-5 7 6 5827.830 5122.830 217.037 6.540 o
-5 7 7 2613.800 2746.620 209.349 15.133 o
-5 7 8 2245.400 1993.890 361.240 8.689 o
-5 7 9 3253.710 3209.660 465.934 5.089 o
-5 7 10 781.903 613.070 215.046 26.692 o
-5 7 11 2875.990 3410.560 501.775 4.637 o
-5 7 12 2220.040 2760.700 469.706 5.536 o
-5 7 13 741.010 563.082 216.933 26.621 o
-5 7 14 71.060 -17.921 131.103 83.633 o
-5 8 -4 2519.420 2072.180 320.683 9.973 o
-5 8 -3 64.436 23.580 80.171 213.177 o
-5 8 -2 8007.090 9133.100 292.246 3.306 o
-5 8 -1 1275.140 846.428 118.149 49.311 o
-5 8 0 1284.410 1462.120 281.541 14.857 o
-5 8 1 6020.070 5778.290 389.854 4.219 o
-5 8 2 2151.730 2343.900 201.311 18.137 o
-5 8 3 106.851 117.235 54.305 364.032 o
-5 8 4 4480.520 4551.110 163.481 9.777 o
-5 8 5 6542.740 6262.560 227.273 5.278 o
-5 8 6 11.134 31.092 14.427 3885.460 o
-5 8 7 6311.960 5920.240 325.046 4.648 o
-5 8 8 3638.890 3972.700 520.638 4.064 o
-5 8 9 71.566 125.444 123.557 91.369 o
-5 8 10 3744.940 3668.990 527.241 4.001 o
-5 8 11 5641.470 5753.430 674.377 2.313 o
-5 8 12 33.607 4.716 119.785 101.246 o
-5 8 13 1807.010 2297.600 451.786 6.189 o
-5 8 14 1803.990 1680.760 399.911 7.800 o
-5 9 -4 6046.910 6314.630 578.173 2.716 o
-5 9 -3 1506.150 2090.190 410.286 7.524 o
-5 9 -2 1895.640 1694.900 340.490 10.054 o
-5 9 -1 1056.350 1076.900 218.819 23.585 o
-5 9 0 17460.000 17893.100 728.325 0.762 o
-5 9 1 196.059 163.272 67.520 228.135 o
-5 9 2 7492.200 7543.750 379.258 3.346 o
-5 9 3 1416.500 1599.560 173.594 27.840 o
-5 9 4 779.470 707.536 49.147 123.644 o
-5 9 5 274.720 380.635 84.132 141.475 o
-5 9 6 13919.900 14298.800 524.186 1.232 o
-5 9 7 253.380 209.472 68.754 203.791 o
-5 9 8 3990.250 4189.890 293.206 7.744 o
-5 9 9 3225.670 3304.920 497.059 4.606 o
-5 9 10 4588.660 4796.100 615.900 2.891 o
-5 9 11 4.645 148.080 133.932 80.004 o
-5 9 12 5875.630 5839.260 712.105 2.107 o
-5 9 13 1.985 -27.352 108.466 125.341 o
-5 10 -4 588.730 361.240 153.739 49.865 o
-5 10 -3 2970.240 2913.520 297.420 9.740 o
-5 10 -2 193.117 279.183 165.057 49.928 o
-5 10 -1 9048.860 9281.090 556.145 2.023 o
-5 10 0 903.757 785.568 135.352 49.885 o
-5 10 1 16126.800 15909.200 580.775 0.970 o
-5 10 2 34.699 34.108 66.454 310.671 o
-5 10 3 591.283 548.754 120.757 68.834 o
-5 10 4 493.338 454.742 103.342 91.077 o
-5 10 5 9787.630 9971.050 459.102 2.131 o
-5 10 6 0.037 16.069 57.745 435.956 o
-5 10 7 11855.300 11921.400 508.941 1.576 o
-5 10 8 73.231 -5.235 57.046 395.575 o
-5 10 9 90.058 72.347 65.178 290.409 o
-5 10 10 4.417 8.489 115.069 111.025 o
-5 10 11 8276.820 8770.680 867.730 1.320 o
-5 10 12 0.223 -76.398 157.512 59.497 o
-5 11 -4 5592.410 5256.890 428.155 4.148 o
-5 11 -3 2236.080 2348.530 426.320 6.584 o
-5 11 -2 292.006 157.577 95.262 126.293 o
-5 11 -1 5590.820 5530.510 449.490 3.890 o
-5 11 0 19371.600 18925.700 669.510 0.700 o
-5 11 1 365.642 71.346 72.972 180.557 o
-5 11 2 6106.990 5938.310 371.500 4.312 o
-5 11 3 3902.400 3832.550 299.561 7.891 o
-5 11 4 580.328 658.117 131.291 60.209 o
-5 11 5 1575.260 1740.180 201.585 22.070 o
-5 11 6 11906.600 11824.600 527.997 1.543 o
-5 11 7 653.637 546.534 114.497 71.802 o
-5 11 8 2378.390 2298.790 239.938 14.441 o
-5 11 9 1705.870 1709.230 255.394 15.833 o
-5 11 10 1234.810 1740.330 398.496 8.196 o
-5 11 11 627.544 348.252 119.785 71.614 o
-5 12 -4 1823.650 1713.580 253.807 15.653 o
-5 12 -3 253.884 322.569 177.319 42.911 o
-5 12 -2 7833.140 8237.350 578.561 2.220 o
-5 12 -1 1223.310 1300.090 209.506 23.772 o
-5 12 0 505.488 496.017 123.349 70.165 o
-5 12 1 5824.620 5685.520 383.042 4.399 o
-5 12 2 4866.640 4828.390 348.718 5.628 o
-5 12 3 72.734 91.018 74.501 233.174 o
-5 12 4 7240.600 7117.850 426.505 3.223 o
-5 12 5 1528.840 1426.060 193.816 24.272 o
-5 12 6 1.344 -74.086 79.265 234.638 o
-5 12 7 2103.860 2111.250 234.199 15.912 o
-5 12 8 3361.650 3516.000 337.292 7.647 o
-5 12 9 1.929 59.746 74.253 258.144 o
-5 12 10 4567.870 3730.810 402.248 5.340 o
-5 13 -4 737.646 781.901 261.262 18.991 o
-5 13 -3 7416.240 7719.970 827.173 1.503 o
-5 13 -2 16.600 -15.318 80.322 225.097 o
-5 13 -1 4157.480 4234.780 352.660 6.298 o
-5 13 0 585.803 603.235 135.703 57.923 o
-5 13 1 629.189 452.205 116.030 72.976 o
-5 13 2 649.164 584.815 127.258 62.060 o
-5 13 3 6986.060 6993.130 440.432 3.236 o
-5 13 4 82.073 33.881 74.352 238.933 o
-5 13 5 3604.840 3106.130 296.120 8.792 o
-5 13 6 107.441 88.447 61.617 307.110 o
-5 13 7 1658.620 1848.420 234.674 17.694 o
-5 13 8 143.302 116.148 74.007 215.942 o
-5 14 -3 166.036 272.604 131.730 75.908 o
-5 14 -2 5941.940 6545.670 459.744 3.506 o
-5 14 -1 609.271 583.664 142.319 53.767 o
-5 14 0 435.516 639.302 147.084 53.733 o
-5 14 1 24.480 45.316 59.723 381.247 o
-5 14 2 1959.360 1948.320 247.087 15.525 o
-5 14 3 3.127 20.260 61.005 387.797 o
-5 14 4 4401.800 4753.960 380.757 5.469 o
-5 14 5 76.957 68.203 60.907 332.379 o
-5 14 6 10.470 64.939 72.660 265.640 o
-4 0 -2 7199.960 9629.920 481.024 2.615 o
-4 0 0 24032.200 21999.800 622.502 0.529 o
-4 0 2 36155.800 39351.400 591.294 0.236 o
-4 0 4 10167.400 11894.000 304.745 2.247 o
-4 0 6 22745.000 19652.100 511.722 0.627 o
-4 0 8 53537.400 54313.300 1465.710 0.104 o
-4 0 10 3485.510 3322.160 256.309 10.136 o
-4 0 12 7405.560 7348.600 424.220 3.149 o
-4 0 14 8587.000 9049.950 520.323 2.237 o
-4 0 16 312.536 267.865 168.830 46.552 o
-4 1 -3 28728.700 30084.700 485.475 0.377 o
-4 1 -2 1639.410 1857.660 118.809 34.944 o
-4 1 -1 56.395 184.697 41.403 545.909 o
-4 1 0 15315.700 17091.300 396.569 1.117 o
-4 1 1 47928.700 48303.300 389.180 0.150 o
-4 1 3 31355.600 34532.900 300.463 0.321 o
-4 1 4 5073.810 5534.300 130.960 8.365 o
-4 1 5 2167.490 1643.280 74.875 36.377 o
-4 1 6 7571.580 8667.780 198.679 4.019 o
-4 1 7 44247.900 45172.000 567.496 0.170 o
-4 1 8 66.759 174.561 36.679 622.360 o
-4 1 9 12783.000 13250.400 393.271 1.558 o
-4 1 10 2413.660 2405.700 179.548 18.785 o
-4 1 11 1052.480 937.382 101.800 61.012 o
-4 1 12 924.469 889.055 103.968 64.498 o
-4 1 13 10673.700 10625.700 379.646 2.108 o
-4 1 14 3.759 56.909 69.022 296.925 o
-4 1 15 1465.330 1275.660 169.625 29.482 o
-4 1 16 418.148 279.624 91.245 118.622 o
-4 2 -3 2256.010 2012.430 108.694 28.627 o
-4 2 -2 390.541 191.286 35.708 307.404 o
-4 2 -1 31445.800 34892.100 416.157 0.312 o
-4 2 0 19730.900 20675.700 297.904 0.782 o
-4 2 1 32688.900 40089.700 328.040 0.274 o
-4 2 2 9372.770 8357.720 114.901 3.465 o
-4 2 3 6960.180 5815.390 100.508 5.998 o
-4 2 4 2107.590 2329.030 102.130 29.313 o
-4 2 5 9104.280 9775.020 269.486 2.896 o
-4 2 6 29329.600 30089.800 359.795 0.377 o
-4 2 7 5669.490 7566.440 184.319 5.832 o
-4 2 8 4963.020 4634.210 156.029 8.946 o
-4 2 9 2005.330 1750.340 115.359 31.777 o
-4 2 10 15.884 -8.009 37.882 960.431 o
-4 2 11 2725.280 2958.830 205.794 14.670 o
-4 2 12 7195.710 6899.480 290.214 4.175 o
-4 2 13 27.968 105.889 51.316 466.847 o
-4 2 14 5513.990 5440.430 285.123 5.804 o
-4 2 15 2422.020 2611.290 257.273 12.871 o
-4 2 16 145.328 33.857 109.881 112.195 o
-4 3 -3 9301.250 8731.650 254.755 3.050 o
-4 3 -2 16052.700 15321.700 315.244 1.181 o
-4 3 -1 3912.360 5186.320 151.829 10.559 o
-4 3 0 22918.300 25588.200 374.909 0.560 o
-4 3 1 2485.800 1883.650 79.028 30.114 o
-4 3 2 5520.440 4954.830 99.195 8.456 o
-4 3 4 22981.600 22279.300 335.146 0.615 o
-4 3 5 7650.560 9451.300 204.084 3.758 o
-4 3 6 2923.250 2967.330 102.975 20.149 o
-4 3 7 6878.480 7037.120 186.893 5.032 o
-4 3 8 2811.060 2379.810 122.187 21.415 o
-4 3 9 781.065 669.852 70.791 102.828 o
-4 3 10 14236.800 13601.300 329.608 1.434 o
-4 3 11 3763.060 3947.720 183.968 11.446 o
-4 3 12 2306.600 2208.490 187.297 19.037 o
-4 3 13 2323.820 2353.490 178.884 19.389 o
-4 3 14 2444.250 2887.390 263.208 12.202 o
-4 3 15 92.994 169.818 83.751 179.861 o
-4 3 16 4544.650 5178.550 531.485 3.528 o
-4 4 -3 13075.000 13818.600 328.835 1.562 o
-4 4 -2 98.897 43.003 25.626 1016.730 o
-4 4 -1 27212.300 25548.300 439.236 0.449 o
-4 4 0 1195.180 1403.660 94.967 53.612 o
-4 4 1 679.530 369.905 50.776 156.531 o
-4 4 2 11.446 133.000 28.183 1132.710 o
-4 4 3 19760.100 19679.700 267.776 0.812 o
-4 4 4 951.435 569.565 48.848 113.541 o
-4 4 5 16906.200 14689.300 266.358 1.162 o
-4 4 6 3332.450 4107.720 174.392 12.685 o
-4 4 7 1522.740 1640.430 370.200 9.125 o
-4 4 8 713.711 805.560 77.247 96.378 o
-4 4 9 8321.440 8461.980 284.815 3.346 o
-4 4 10 6.373 6.138 24.136 2295.680 o
-4 4 11 6855.060 6942.800 243.953 4.688 o
-4 4 12 1664.860 1589.850 270.694 14.800 o
-4 4 13 0.941 45.273 101.864 140.219 o
-4 4 14 8.242 22.055 77.272 242.211 o
-4 4 15 7345.150 7302.060 540.910 2.556 o
-4 4 16 0.315 -74.016 192.881 39.678 o
-4 5 -3 5.550 60.267 32.480 1148.540 o
-4 5 -2 18880.000 17560.600 324.150 0.900 o
-4 5 -1 3240.650 3222.360 124.575 16.710 o
-4 5 0 14495.900 12056.100 282.751 1.539 o
-4 5 1 129.982 195.707 33.083 558.579 o
-4 5 2 12787.500 14672.400 391.342 1.475 o
-4 5 3 96.205 253.502 37.492 505.739 o
-4 5 4 22472.900 21579.300 362.730 0.639 o
-4 5 5 5.657 24.362 24.043 2131.290 o
-4 5 6 3046.570 2166.570 154.976 18.291 o
-4 5 7 2805.100 3277.570 408.399 6.411 o
-4 5 8 5856.400 6368.390 581.002 2.731 o
-4 5 9 2485.120 2173.100 358.410 8.487 o
-4 5 10 23335.600 23243.900 1193.130 0.387 o
-4 5 11 1516.100 1649.230 132.657 34.907 o
-4 5 12 3052.200 3348.310 485.740 4.827 o
-4 5 13 101.447 116.955 97.148 140.521 o
-4 5 14 4195.720 3671.820 550.820 3.631 o
-4 5 15 21.169 -152.245 197.597 37.677 o
-4 6 -3 4900.600 4894.040 183.760 8.358 o
-4 6 -2 806.384 990.570 79.805 83.413 o
-4 6 -1 21929.600 19585.200 344.018 0.700 o
-4 6 0 123.153 142.530 50.935 378.122 o
-4 6 1 179.348 38.068 55.247 336.265 o
-4 6 2 6027.520 4788.180 244.228 6.165 o
-4 6 3 15913.900 16563.300 288.210 1.155 o
-4 6 4 660.003 1100.230 103.192 70.350 o
-4 6 5 12579.500 11960.600 320.465 1.772 o
-4 6 6 3345.850 3270.660 109.558 16.792 o
-4 6 7 5.410 43.386 90.546 176.305 o
-4 6 8 3399.780 3359.630 439.524 5.438 o
-4 6 9 11847.200 11803.000 839.435 1.072 o
-4 6 10 518.478 259.376 149.023 54.480 o
-4 6 11 10764.100 10558.000 852.639 1.147 o
-4 6 12 2058.310 1880.710 373.501 8.453 o
-4 6 13 238.334 187.694 105.637 109.527 o
-4 6 14 1903.560 1735.460 391.422 7.998 o
-4 6 15 7158.680 7311.800 562.588 2.488 o
-4 7 -3 633.143 428.975 63.922 136.945 o
-4 7 -2 9937.860 9735.520 222.331 2.767 o
-4 7 -1 1509.030 1963.870 109.052 38.013 o
-4 7 0 4743.060 4312.310 315.713 6.466 o
-4 7 1 6020.420 5505.180 348.469 4.698 o
-4 7 2 3072.030 3268.920 216.774 12.680 o
-4 7 3 2924.310 2313.330 111.015 21.712 o
-4 7 4 19985.800 21321.600 388.418 0.733 o
-4 7 5 5060.690 5949.830 169.174 7.583 o
-4 7 6 2815.330 2831.050 212.646 14.187 o
-4 7 7 13859.100 12826.100 294.692 1.560 o
-4 7 8 704.825 740.444 83.028 93.329 o
-4 7 9 2877.200 2864.450 430.092 6.013 o
-4 7 10 18320.800 19365.500 1142.200 0.513 o
-4 7 11 2722.220 2470.200 430.092 6.200 o
-4 7 12 269.255 114.125 94.319 132.151 o
-4 7 13 1835.420 2264.590 435.752 6.576 o
-4 7 14 1021.240 865.844 279.183 16.223 o
-4 8 -3 1987.340 1824.700 134.803 28.587 o
-4 8 -2 545.966 429.915 53.460 168.716 o
-4 8 -1 5253.560 5225.500 184.681 7.598 o
-4 8 0 4637.290 4302.000 330.113 6.303 o
-4 8 1 1621.910 1986.300 180.570 24.017 o
-4 8 2 6979.220 6727.660 328.354 4.056 o
-4 8 3 545.368 491.386 43.102 183.948 o
-4 8 4 63.652 131.885 44.836 514.660 o
-4 8 5 5158.100 5384.620 220.203 7.093 o
-4 8 6 13694.400 14151.500 287.848 1.503 o
-4 8 7 291.209 332.180 55.118 233.130 o
-4 8 8 11914.800 11152.200 838.492 1.087 o
-4 8 9 1024.590 936.583 249.944 19.431 o
-4 8 10 2434.980 2617.340 435.752 6.184 o
-4 8 11 2865.330 2988.010 475.365 5.133 o
-4 8 12 6867.170 7232.340 758.321 1.763 o
-4 8 13 193.030 4.716 112.239 106.094 o
-4 8 14 3594.670 3945.340 597.979 3.294 o
-4 9 -3 5567.410 6026.010 333.888 4.969 o
-4 9 -2 674.133 746.005 83.701 94.351 o
-4 9 -1 12.847 24.035 18.061 3036.090 o
-4 9 0 3229.400 3580.280 319.160 8.261 o
-4 9 1 12180.500 11373.900 457.710 1.657 o
-4 9 2 736.396 744.918 118.558 63.284 o
-4 9 3 9398.200 9309.480 196.823 3.080 o
-4 9 4 139.101 202.724 36.130 501.272 o
-4 9 5 1094.070 1055.000 102.854 57.635 o
-4 9 6 2525.170 2460.740 219.164 15.205 o
-4 9 7 10602.500 10293.700 448.639 1.988 o
-4 9 8 143.311 38.671 105.637 120.551 o
-4 9 9 2138.990 2220.260 398.024 7.458 o
-4 9 10 11.863 41.500 99.978 144.644 o
-4 9 11 2827.320 3470.920 527.241 4.290 o
-4 9 12 315.273 53.762 114.125 95.738 o
-4 9 13 5101.120 6570.230 759.264 1.955 o
-4 10 -3 16.433 34.780 31.789 1201.410 o
-4 10 -2 2046.910 2008.160 141.631 26.317 o
-4 10 -1 724.111 473.010 59.838 129.957 o
-4 10 0 3034.330 2895.860 247.125 11.772 o
-4 10 1 45.984 -28.196 67.764 301.908 o
-4 10 2 14751.500 14021.500 476.190 1.223 o
-4 10 3 1195.620 1273.460 102.229 52.486 o
-4 10 4 2908.770 2960.610 172.165 16.061 o
-4 10 5 28.201 -0.304 49.072 570.029 o
-4 10 6 6074.760 6835.330 380.093 4.042 o
-4 10 7 399.481 210.113 69.379 173.872 o
-4 10 8 6989.780 7254.450 403.246 3.428 o
-4 10 9 314.467 267.865 156.569 53.222 o
-4 10 10 273.445 144.307 133.932 72.510 o
-4 10 11 892.671 938.469 290.501 15.315 o
-4 10 12 3860.810 4698.950 640.423 2.848 o
-4 11 -3 11681.000 11231.600 641.439 1.401 o
-4 11 -2 2811.970 3009.350 327.446 8.792 o
-4 11 -1 76.488 75.909 61.381 326.430 o
-4 11 0 633.802 569.902 117.825 69.456 o
-4 11 1 10337.900 10603.400 488.443 1.910 o
-4 11 2 693.352 640.455 121.182 64.217 o
-4 11 3 9951.740 9556.510 462.194 2.130 o
-4 11 4 3235.990 3455.930 281.141 9.553 o
-4 11 5 7.250 -12.871 66.262 332.703 o
-4 11 6 830.814 858.390 147.055 45.425 o
-4 11 7 4026.950 4187.490 314.601 7.214 o
-4 11 8 155.564 89.284 64.688 266.692 o
-4 11 9 3358.780 3581.760 370.393 6.796 o
-4 11 10 3021.210 2917.270 492.343 4.814 o
-4 11 11 779.173 1052.590 299.933 14.568 o
-4 12 -3 1306.670 1268.060 226.710 20.942 o
-4 12 -2 1248.030 1555.340 206.485 23.480 o
-4 12 -1 13959.800 14086.200 599.528 1.156 o
-4 12 0 2857.660 2961.470 274.586 10.810 o
-4 12 1 757.717 831.433 147.463 46.582 o
-4 12 2 7647.970 6704.430 403.769 3.293 o
-4 12 3 2248.030 2365.540 243.840 14.431 o
-4 12 4 780.783 699.583 137.632 51.908 o
-4 12 5 7400.990 7346.870 430.034 3.117 o
-4 12 6 1071.800 1113.820 170.298 33.457 o
-4 12 7 671.166 447.109 113.239 73.946 o
-4 12 8 2249.530 1919.700 226.358 16.394 o
-4 12 9 1508.430 1618.240 264.709 15.634 o
-4 12 10 51.865 23.209 107.004 124.443 o
-4 13 -3 436.776 411.607 105.296 92.684 o
-4 13 -2 5222.650 5067.980 379.129 4.918 o
-4 13 -1 41.248 105.263 66.703 291.459 o
-4 13 0 6940.540 7154.950 443.755 3.205 o
-4 13 1 3037.630 3412.050 304.230 9.065 o
-4 13 2 346.598 509.217 127.962 70.772 o
-4 13 3 190.452 34.604 63.559 271.152 o
-4 13 4 6602.540 6999.970 433.727 3.402 o
-4 13 5 1.867 -32.782 67.957 318.833 o
-4 13 6 3063.440 2688.760 273.028 10.758 o
-4 13 7 474.812 381.193 108.870 87.391 o
-4 13 8 248.790 278.615 93.060 129.401 o
-4 13 9 59.576 215.179 103.817 124.093 o
-4 14 -3 1662.420 1972.750 210.494 20.030 o
-4 14 -2 91.893 -108.443 76.654 227.876 o
-4 14 -1 8326.090 8591.950 430.360 2.690 o
-4 14 0 86.947 85.507 87.448 173.550 o
-4 14 1 2003.660 1752.990 231.680 17.004 o
-4 14 2 33.972 21.013 60.391 375.159 o
-4 14 3 2487.460 2590.850 275.515 11.762 o
-4 14 4 187.651 24.435 90.946 153.461 o
-4 14 5 5980.040 6098.590 425.567 3.848 o
-4 14 6 1.888 77.903 71.624 273.679 o
-4 15 0 2858.500 3257.260 274.037 10.579 o
-4 15 1 227.494 238.265 75.720 180.859 o
-4 15 2 318.373 187.778 97.394 118.836 o
-4 15 3 980.296 451.993 174.961 36.088 o
-3 0 -1 15147.200 17825.300 533.843 1.006 o
-3 0 1 88493.700 75694.500 1024.770 0.049 o
-3 0 3 15788.200 12172.300 748.417 0.952 o
-3 0 5 15057.700 15234.800 395.922 1.215 o
-3 0 7 53246.900 49285.200 1294.990 0.114 o
-3 0 9 16038.900 14434.700 507.511 1.080 o
-3 0 11 956.256 898.616 144.892 44.084 o
-3 0 13 6721.860 7416.870 457.087 3.149 o
-3 0 15 3688.780 4316.260 384.465 6.003 o
-3 1 -2 18364.800 17944.900 341.214 0.912 o
-3 1 -1 111.421 55.057 24.622 965.737 o
-3 1 0 2860.760 1767.410 168.359 19.127 o
-3 1 1 18021.800 17770.100 177.387 0.991 o
-3 1 2 10972.000 8532.720 117.185 2.819 o
-3 1 3 3920.260 4834.480 114.851 11.806 o
-3 1 4 25281.200 24408.500 359.674 0.515 o
-3 1 5 5060.550 3691.790 127.081 10.180 o
-3 1 6 4979.230 4451.700 135.612 9.424 o
-3 1 7 1230.260 1070.850 71.453 67.321 o
-3 1 8 21111.100 19451.900 370.521 0.730 o
-3 1 9 40.829 76.144 29.023 1087.310 o
-3 1 10 5139.050 4824.650 184.746 8.037 o
-3 1 11 260.232 176.516 52.034 286.613 o
-3 1 12 2417.290 2429.340 177.328 18.904 o
-3 1 13 650.820 615.150 95.175 87.791 o
-3 1 14 8235.520 8886.150 372.603 2.921 o
-3 1 15 135.598 60.955 62.725 292.621 o
-3 1 16 804.091 610.132 151.995 45.595 o
-3 2 -1 42.813 74.010 42.443 635.510 o
-3 2 0 16129.800 13997.100 244.852 1.275 o
-3 2 1 11172.800 12158.700 139.459 2.242 o
-3 2 2 25.031 46.821 11.986 3227.200 o
-3 2 3 8321.390 8175.790 148.625 3.937 o
-3 2 4 209.366 64.536 22.133 690.488 o
-3 2 5 312.601 246.172 27.764 379.235 o
-3 2 6 4290.150 3309.080 108.860 13.108 o
-3 2 7 22110.500 20957.400 283.741 0.679 o
-3 2 8 17.923 21.894 24.166 1917.120 o
-3 2 9 10195.600 10551.800 240.367 2.537 o
-3 2 10 3136.070 2518.510 183.901 15.341 o
-3 2 11 12.133 -27.054 46.687 653.929 o
-3 2 12 3270.620 3513.830 211.717 12.115 o
-3 2 13 7151.250 7318.250 321.100 3.887 o
-3 2 14 47.078 51.224 50.642 485.832 o
-3 2 15 2936.930 2961.280 256.210 11.484 o
-3 2 16 794.425 1152.350 217.310 24.886 o
-3 3 -2 5523.890 5285.240 155.643 7.575 o
-3 3 -1 11053.100 9446.880 205.762 2.522 o
-3 3 1 25061.600 23246.500 298.932 0.544 o
-3 3 2 11777.700 14195.300 146.703 1.905 o
-3 3 4 17277.800 18019.400 260.754 1.009 o
-3 3 5 3249.620 2428.620 119.447 18.879 o
-3 3 6 1295.320 1608.660 80.867 53.122 o
-3 3 7 1418.080 1170.680 86.053 53.997 o
-3 3 8 6816.130 7768.890 302.497 4.064 o
-3 3 9 1391.400 1230.140 93.963 51.251 o
-3 3 10 4099.430 4308.300 178.515 10.447 o
-3 3 11 9108.880 8638.060 359.491 2.758 o
-3 3 12 1206.690 1292.520 128.928 42.710 o
-3 3 13 2019.790 2288.840 224.153 16.727 o
-3 3 14 5433.140 5410.770 328.482 5.318 o
-3 3 15 1526.000 1829.250 267.096 15.138 o
-3 3 16 1050.940 840.574 246.171 19.990 o
-3 4 -2 5065.980 5473.980 138.824 8.326 o
-3 4 -1 10063.600 8905.710 197.319 2.917 o
-3 4 0 35989.600 35365.000 516.778 0.258 o
-3 4 1 7631.870 9326.680 232.443 3.680 o
-3 4 2 470.630 447.186 54.505 178.638 o
-3 4 3 6868.470 8204.200 196.107 4.580 o
-3 4 4 32551.500 36187.500 555.814 0.285 o
-3 4 5 1734.710 1539.510 74.320 45.184 o
-3 4 6 33871.700 34558.800 407.728 0.287 o
-3 4 7 2927.180 3989.970 174.147 14.083 o
-3 4 8 386.991 399.980 75.367 146.979 o
-3 4 9 2826.590 3039.420 216.706 13.632 o
-3 4 10 11679.500 12077.900 331.409 1.891 o
-3 4 11 22.563 -55.892 32.400 1235.460 o
-3 4 12 16280.400 16476.500 614.229 0.922 o
-3 4 13 1054.890 1034.200 140.192 43.303 o
-3 4 14 10.852 -13.337 87.684 190.280 o
-3 4 15 1935.290 1850.830 275.109 13.605 o
-3 4 16 6036.930 7098.090 552.676 2.786 o
-3 5 -2 8740.140 8784.870 197.115 3.440 o
-3 5 -1 55016.000 59263.800 550.049 0.109 o
-3 5 0 4.121 36.979 25.581 1845.750 o
-3 5 1 30561.100 31648.300 465.712 0.341 o
-3 5 2 3259.980 2642.370 145.803 16.810 o
-3 5 3 36.834 235.112 37.962 597.616 o
-3 5 4 36.804 43.556 27.082 1325.220 o
-3 5 5 37180.600 38144.200 467.117 0.238 o
-3 5 6 272.103 221.519 45.720 307.696 o
-3 5 7 7184.380 7509.070 324.927 3.804 o
-3 5 8 1153.740 1279.490 127.058 44.304 o
-3 5 9 3109.340 3132.320 417.831 6.068 o
-3 5 10 347.878 348.913 86.245 131.089 o
-3 5 11 32307.200 32995.200 568.012 0.303 o
-3 5 12 0.313 21.282 50.989 552.871 o
-3 5 13 3278.180 2768.250 451.786 5.417 o
-3 5 14 4.732 -79.739 63.859 359.330 o
-3 5 15 3929.810 3123.540 365.316 6.646 o
-3 6 -2 21255.800 23797.100 410.317 0.633 o
-3 6 -1 2424.060 2165.390 87.451 28.442 o
-3 6 0 28989.400 29797.400 419.791 0.381 o
-3 6 1 720.139 870.882 102.948 72.521 o
-3 6 2 14.521 62.146 19.608 2172.310 o
-3 6 3 5473.000 5448.440 179.614 7.236 o
-3 6 4 23615.000 24761.100 468.526 0.537 o
-3 6 5 53.736 81.156 25.819 1148.650 o
-3 6 6 19514.800 21071.500 404.911 0.753 o
-3 6 7 4216.620 4744.340 228.948 8.601 o
-3 6 8 66.216 36.206 25.597 1223.310 o
-3 6 9 7490.780 7666.140 337.261 3.567 o
-3 6 10 21031.100 20416.200 1124.280 0.462 o
-3 6 11 75.850 50.932 94.319 154.388 o
-3 6 12 8416.980 8334.930 769.639 1.547 o
-3 6 13 2168.710 1903.350 383.876 7.997 o
-3 6 14 1.931 46.736 91.314 173.651 o
-3 6 15 2872.350 2520.910 333.442 8.790 o
-3 7 -2 5608.650 5478.920 209.098 6.684 o
-3 7 -1 10394.300 10632.500 232.208 2.490 o
-3 7 0 2678.660 3522.420 155.813 16.839 o
-3 7 1 4157.120 3868.160 142.512 11.796 o
-3 7 2 18353.600 20158.000 275.289 0.872 o
-3 7 3 3676.550 3366.080 150.016 13.696 o
-3 7 4 5624.570 6028.190 216.896 6.287 o
-3 7 5 16434.400 16439.000 328.258 1.098 o
-3 7 6 5746.560 6374.840 244.494 5.707 o
-3 7 7 5282.790 5275.500 256.233 6.483 o
-3 7 8 14224.200 14473.600 447.338 1.278 o
-3 7 9 551.170 266.921 131.103 65.914 o
-3 7 10 2273.870 2376.830 398.024 7.314 o
-3 7 11 3431.440 3170.990 467.820 4.994 o
-3 7 12 1338.070 1228.970 317.853 12.273 o
-3 7 13 1014.700 517.809 211.273 26.523 o
-3 7 14 4813.510 4011.370 583.832 3.161 o
-3 8 -2 1054.880 857.130 74.974 77.650 o
-3 8 -1 1448.990 1458.660 113.102 42.007 o
-3 8 0 3702.910 3624.060 189.109 11.807 o
-3 8 1 8637.780 9467.530 249.548 3.172 o
-3 8 2 1212.570 1428.730 103.867 49.706 o
-3 8 3 20915.300 21819.800 341.409 0.697 o
-3 8 4 1058.810 852.910 88.235 69.644 o
-3 8 5 147.176 83.278 29.732 685.311 o
-3 8 6 1269.200 1193.730 116.470 46.602 o
-3 8 7 9266.000 9548.610 327.713 2.697 o
-3 8 8 253.599 159.398 98.091 123.539 o
-3 8 9 6584.430 7023.900 668.718 2.131 o
-3 8 10 2366.550 2026.910 373.501 8.138 o
-3 8 11 23.188 -102.807 147.137 67.721 o
-3 8 12 384.685 518.752 202.785 32.109 o
-3 8 13 3599.930 3851.030 564.025 3.621 o
-3 8 14 1.089 -79.228 137.705 77.820 o
-3 9 -2 19537.900 20434.400 382.600 0.773 o
-3 9 -1 439.655 642.808 80.839 118.783 o
-3 9 0 79.537 95.680 32.276 783.287 o
-3 9 1 1088.450 1072.520 92.982 62.240 o
-3 9 2 11290.600 11286.900 310.642 2.067 o
-3 9 3 635.271 652.445 62.577 126.139 o
-3 9 4 10613.600 10551.000 317.342 2.269 o
-3 9 5 429.828 327.584 149.323 55.254 o
-3 9 6 3026.370 2921.130 195.227 14.395 o
-3 9 7 891.231 1080.590 251.830 19.371 o
-3 9 8 8974.340 9284.720 762.094 1.480 o
-3 9 9 1242.130 1293.110 300.876 13.552 o
-3 9 10 3580.260 3940.630 531.013 3.966 o
-3 9 11 1.497 -255.603 159.398 58.079 o
-3 9 12 2508.430 2337.210 436.695 6.197 o
-3 9 13 5.225 -89.603 151.853 63.926 o
-3 10 -2 1019.880 1040.430 113.405 54.843 o
-3 10 -1 7602.030 7853.190 271.886 3.847 o
-3 10 0 372.335 346.837 82.164 137.092 o
-3 10 1 2375.520 2306.550 144.590 22.511 o
-3 10 2 154.786 79.463 44.517 448.404 o
-3 10 3 16526.300 15975.300 470.110 1.022 o
-3 10 4 274.260 256.677 71.336 185.692 o
-3 10 5 2479.860 2376.290 221.067 15.343 o
-3 10 6 528.082 455.359 100.411 92.686 o
-3 10 7 2034.490 2407.410 280.586 12.505 o
-3 10 8 0.209 -136.762 156.569 60.217 o
-3 10 9 8452.300 9238.500 799.821 1.438 o
-3 10 10 2119.030 1450.620 339.547 9.985 o
-3 10 11 24.927 45.273 129.216 86.811 o
-3 10 12 1060.100 1210.110 335.774 11.505 o
-3 11 -2 4104.030 4085.080 233.034 9.186 o
-3 11 -1 3472.820 3615.110 193.947 12.211 o
-3 11 0 224.221 201.060 48.839 317.592 o
-3 11 1 1054.770 1133.450 120.754 49.847 o
-3 11 2 7000.380 7399.220 281.487 4.206 o
-3 11 3 12.553 5.880 30.839 1405.260 o
-3 11 4 4721.070 4976.180 248.668 7.373 o
-3 11 5 3776.260 3751.690 224.476 10.305 o
-3 11 6 80.439 -26.210 68.856 280.290 o
-3 11 7 916.313 778.706 138.305 48.399 o
-3 11 8 3617.310 3025.740 463.104 5.021 o
-3 11 9 166.105 223.535 120.728 89.531 o
-3 11 10 1568.740 1311.030 321.626 11.675 o
-3 11 11 3884.170 3878.380 569.684 3.498 o
-3 12 -2 926.813 1053.590 165.593 36.482 o
-3 12 -1 333.941 283.504 110.137 94.797 o
-3 12 0 2809.610 2837.460 259.926 11.684 o
-3 12 1 1583.760 1576.710 195.264 23.327 o
-3 12 2 1138.280 1173.770 167.886 33.175 o
-3 12 3 2333.520 2513.970 242.221 14.124 o
-3 12 4 1259.400 1514.550 191.567 25.985 o
-3 12 5 449.710 348.454 100.892 99.352 o
-3 12 6 3816.020 4668.210 343.210 6.582 o
-3 12 7 707.022 586.987 126.736 60.914 o
-3 12 8 424.948 359.685 129.606 69.264 o
-3 12 9 1608.040 1895.510 314.552 11.635 o
-3 12 10 1080.740 533.843 224.478 23.722 o
-3 13 -2 603.088 504.841 125.518 65.544 o
-3 13 -1 5997.170 6424.160 348.791 4.458 o
-3 13 0 541.712 363.154 92.364 104.823 o
-3 13 1 1838.230 1761.350 212.472 19.513 o
-3 13 2 1433.590 1362.320 190.484 25.565 o
-3 13 3 153.175 152.951 80.685 182.893 o
-3 13 4 334.100 451.922 119.377 80.284 o
-3 13 5 4597.540 4805.600 356.811 5.697 o
-3 13 6 331.082 174.640 79.178 159.518 o
-3 13 7 1677.880 1831.000 224.098 18.748 o
-3 13 8 1835.580 1650.160 264.819 14.805 o
-3 13 9 320.793 399.524 392.837 9.336 o
-3 14 -2 1352.290 1692.060 197.943 23.881 o
-3 14 -1 1.340 -82.777 76.181 253.987 o
-3 14 0 9010.570 9541.390 438.427 2.390 o
-3 14 1 1298.510 1119.220 151.645 36.001 o
-3 14 2 607.927 446.965 97.493 91.996 o
-3 14 3 476.579 468.072 123.510 71.338 o
-3 14 4 2282.140 2766.890 281.430 11.670 o
-3 14 5 149.123 120.685 71.371 226.741 o
-3 14 6 5617.840 6167.190 426.072 3.972 o
-3 14 7 421.938 316.738 116.855 82.185 o
-3 15 -2 634.758 529.602 113.381 73.656 o
-3 15 -1 6039.920 6059.300 366.939 4.358 o
-3 15 0 35.237 -32.202 91.484 171.718 o
-3 15 1 5143.690 5378.020 337.809 5.404 o
-3 15 2 96.302 145.153 74.793 219.542 o
-3 15 3 941.399 878.730 144.662 44.547 o
-3 15 4 257.297 258.941 87.458 142.128 o
-2 0 2 12802.200 15041.300 289.969 1.558 o
-2 0 4 19829.600 14719.200 260.150 0.950 o
-2 0 6 131.066 58.006 27.851 800.465 o
-2 0 8 9320.260 9629.660 396.122 2.452 o
-2 0 10 6491.870 5670.010 482.911 3.300 o
-2 0 12 319.542 213.425 75.455 168.895 o
-2 0 14 14087.800 14363.700 681.046 1.052 o
-2 0 16 3483.860 4189.630 537.616 3.885 o
-2 1 1 2922.960 3031.380 83.936 20.966 o
-2 1 2 1432.280 1409.120 48.175 61.283 o
-2 1 3 51089.100 47998.900 441.747 0.138 o
-2 1 5 11042.700 9488.610 174.434 2.572 o
-2 1 6 1548.450 1205.030 62.729 56.996 o
-2 1 7 16910.800 19199.100 339.207 0.963 o
-2 1 8 309.546 178.604 33.811 371.387 o
-2 1 9 14227.100 13629.200 290.168 1.469 o
-2 1 10 887.528 967.643 82.918 77.776 o
-2 1 11 4524.990 4415.640 228.575 8.397 o
-2 1 12 2383.890 2419.040 180.510 18.809 o
-2 1 13 2873.280 2752.410 203.107 14.691 o
-2 1 14 198.439 174.348 69.765 215.900 o
-2 1 15 7658.780 7636.690 437.796 2.958 o
-2 1 16 395.596 306.682 99.369 106.067 o
-2 2 -1 1321.540 1256.740 74.795 59.500 o
-2 2 0 65847.600 72943.000 1234.630 0.071 o
-2 2 1 9366.260 7303.550 167.066 3.582 o
-2 2 2 7496.220 6889.040 117.096 4.983 o
-2 2 4 9363.530 10699.400 159.853 2.928 o
-2 2 5 2141.330 1651.060 72.913 36.986 o
-2 2 6 329.056 317.617 50.462 242.511 o
-2 2 7 12104.100 10604.600 233.628 2.097 o
-2 2 8 10866.800 10714.800 243.616 2.341 o
-2 2 9 1015.010 1280.380 102.430 56.915 o
-2 2 10 7799.980 7745.620 237.067 3.960 o
-2 2 11 7157.990 7321.400 297.051 4.041 o
-2 2 12 36.066 50.698 54.727 434.914 o
-2 2 13 8425.830 8536.320 401.778 2.792 o
-2 2 14 7005.820 7035.580 383.248 3.593 o
-2 2 15 64.406 50.246 53.532 427.627 o
-2 2 16 4941.530 5100.000 458.120 4.130 o
-2 3 -1 56195.900 68228.200 394.614 0.097 o
-2 3 0 12267.200 12596.700 259.399 1.849 o
-2 3 1 17571.700 18029.400 319.104 0.967 o
-2 3 3 40485.800 43628.000 300.244 0.200 o
-2 3 4 103.965 89.537 16.591 1166.850 o
-2 3 5 18174.600 19983.700 236.350 0.897 o
-2 3 6 11100.100 10696.800 209.664 2.344 o
-2 3 7 733.729 1110.250 101.469 68.713 o
-2 3 8 2677.700 2337.840 117.974 22.787 o
-2 3 9 7593.760 7996.820 234.968 4.012 o
-2 3 10 7094.120 6975.870 379.632 3.595 o
-2 3 11 3155.520 2914.150 213.707 13.070 o
-2 3 12 16636.900 16022.900 524.632 0.976 o
-2 3 13 238.821 216.540 114.805 94.553 o
-2 3 14 2077.890 2253.790 220.365 16.912 o
-2 3 15 2471.560 2735.970 277.839 11.540 o
-2 3 16 1618.300 1538.120 263.028 15.611 o
-2 4 -1 15897.900 15689.700 210.047 1.233 o
-2 4 0 1956.810 2606.340 132.298 25.801 o
-2 4 1 64243.200 60279.700 1203.030 0.083 o
-2 4 2 1109.370 1046.740 64.798 76.215 o
-2 4 3 2868.000 3828.080 125.949 16.959 o
-2 4 4 16134.000 18309.800 256.762 1.083 o
-2 4 5 9109.260 9798.340 221.717 3.030 o
-2 4 6 295.044 620.524 89.603 117.645 o
-2 4 7 40355.100 42611.700 571.014 0.198 o
-2 4 8 228.227 240.939 47.473 314.203 o
-2 4 9 1993.920 2002.500 125.768 29.005 o
-2 4 10 5748.150 5835.260 205.798 6.387 o
-2 4 11 15676.700 15431.900 586.323 1.007 o
-2 4 12 1326.870 1178.300 142.697 37.727 o
-2 4 13 8567.750 8260.980 400.484 2.796 o
-2 4 14 397.968 264.268 102.596 102.422 o
-2 4 15 29.075 29.756 71.351 274.628 o
-2 4 16 589.789 671.769 178.777 37.468 o
-2 5 -1 831.830 1174.920 80.784 76.986 o
-2 5 0 31281.300 31150.400 379.888 0.340 o
-2 5 1 1050.330 1427.800 77.586 64.679 o
-2 5 2 31667.800 38189.700 500.425 0.287 o
-2 5 3 638.706 705.624 63.136 122.311 o
-2 5 4 25.879 37.056 18.554 2337.370 o
-2 5 5 0.679 33.905 18.402 3266.840 o
-2 5 6 20321.400 20234.700 473.419 0.715 o
-2 5 7 453.564 491.694 81.455 123.286 o
-2 5 8 16073.900 17672.400 857.827 0.739 o
-2 5 9 839.405 797.958 120.829 58.491 o
-2 5 10 6240.800 5959.790 344.105 4.496 o
-2 5 11 123.807 67.487 66.495 269.749 o
-2 5 12 10791.700 11258.300 527.092 1.713 o
-2 5 13 133.726 38.778 57.826 338.263 o
-2 5 14 4059.500 3942.350 392.095 5.747 o
-2 5 15 5.631 -2.689 104.222 135.454 o
-2 6 -1 9878.240 10097.600 226.280 2.722 o
-2 6 0 13445.200 14589.100 299.832 1.496 o
-2 6 1 26830.700 29372.400 440.929 0.419 o
-2 6 2 1564.630 1554.190 130.847 35.293 o
-2 6 3 11729.700 12999.600 477.854 1.579 o
-2 6 4 4416.640 4454.380 238.872 8.297 o
-2 6 5 8079.160 7296.880 218.854 4.021 o
-2 6 6 388.527 419.056 77.554 140.964 o
-2 6 7 22224.200 22387.400 559.403 0.588 o
-2 6 8 4162.860 4667.160 269.738 7.801 o
-2 6 9 2821.840 2840.870 396.138 6.834 o
-2 6 10 87.991 117.898 117.898 99.225 o
-2 6 11 6406.990 5144.130 577.229 2.766 o
-2 6 12 23.025 -78.284 100.921 142.863 o
-2 6 13 6484.390 6668.220 496.164 3.074 o
-2 6 14 2039.950 1657.480 262.619 14.484 o
-2 6 15 190.279 111.970 114.689 99.507 o
-2 7 -1 9392.100 10314.300 233.304 2.820 o
-2 7 0 14084.000 15000.500 336.870 1.368 o
-2 7 1 3.796 45.075 34.411 1090.520 o
-2 7 2 6208.190 6002.150 208.947 5.831 o
-2 7 3 24706.600 26015.500 500.821 0.489 o
-2 7 4 22.234 62.006 35.989 899.877 o
-2 7 5 11544.800 12010.700 356.032 1.878 o
-2 7 6 9557.760 8786.380 310.499 2.779 o
-2 7 7 358.983 278.757 65.124 187.637 o
-2 7 8 6015.350 5997.390 315.961 4.892 o
-2 7 9 8584.320 9340.360 730.969 1.585 o
-2 7 10 298.766 189.580 128.273 76.709 o
-2 7 11 6130.200 6498.550 658.343 2.272 o
-2 7 12 1396.370 1205.390 299.933 13.440 o
-2 7 13 24.584 129.216 118.841 100.372 o
-2 7 14 586.518 744.829 185.048 35.144 o
-2 8 -1 1451.480 1354.880 112.239 43.096 o
-2 8 0 7521.470 9238.240 293.389 3.470 o
-2 8 1 2050.170 1537.120 109.956 33.385 o
-2 8 2 6586.540 6221.520 209.314 5.411 o
-2 8 3 720.306 554.443 82.068 99.221 o
-2 8 4 24600.900 25284.000 615.658 0.479 o
-2 8 5 3465.610 3082.420 174.281 13.809 o
-2 8 6 2334.670 2451.130 157.683 21.049 o
-2 8 7 1354.670 1004.490 232.024 20.552 o
-2 8 8 869.241 875.276 226.364 23.572 o
-2 8 9 4.166 -8.489 92.432 172.247 o
-2 8 10 8024.760 7621.880 700.787 1.810 o
-2 8 11 1618.380 1553.430 334.831 10.728 o
-2 8 12 92.718 59.421 91.489 160.820 o
-2 8 13 386.728 394.251 203.728 32.202 o
-2 8 14 3227.390 3492.560 392.256 6.430 o
-2 9 -1 14337.300 14457.700 327.314 1.378 o
-2 9 0 501.075 367.868 52.975 184.116 o
-2 9 1 80.993 78.222 29.801 878.007 o
-2 9 2 109.265 52.496 33.168 738.541 o
-2 9 3 21079.700 21274.700 422.755 0.681 o
-2 9 4 2707.490 2803.570 192.198 15.840 o
-2 9 5 5493.220 5795.900 320.916 5.241 o
-2 9 6 886.753 937.907 133.469 49.632 o
-2 9 7 1465.640 1168.610 253.717 17.380 o
-2 9 8 66.455 138.648 114.125 106.011 o
-2 9 9 13698.100 14599.600 957.333 0.805 o
-2 9 10 529.277 355.581 157.512 48.854 o
-2 9 11 3495.050 3685.970 520.638 4.149 o
-2 9 12 103.229 172.603 114.125 103.234 o
-2 9 13 499.591 497.059 215.046 28.378 o
-2 10 -1 489.766 514.737 67.106 143.743 o
-2 10 0 2364.140 1935.290 128.353 25.679 o
-2 10 1 218.539 242.136 47.628 317.891 o
-2 10 2 8023.530 8437.940 275.293 3.513 o
-2 10 3 138.999 113.805 46.090 428.575 o
-2 10 4 15645.000 16017.500 398.877 1.132 o
-2 10 5 23.401 31.547 49.052 555.140 o
-2 10 6 89.471 88.938 62.442 308.386 o
-2 10 7 636.758 633.952 145.632 51.045 o
-2 10 8 5594.410 6343.860 634.764 2.479 o
-2 10 9 11.507 -97.148 134.875 80.821 o
-2 10 10 7074.210 7622.820 735.684 1.797 o
-2 10 11 36.236 -16.977 109.409 120.958 o
-2 10 12 32.560 -32.068 125.444 92.576 o
-2 11 -1 7479.510 7125.560 257.477 4.177 o
-2 11 0 3271.240 3338.700 177.442 13.872 o
-2 11 1 759.590 707.059 84.017 90.157 o
-2 11 2 1931.460 1802.820 133.710 29.384 o
-2 11 3 6267.170 6643.050 263.797 5.018 o
-2 11 4 9.091 38.827 44.209 690.453 o
-2 11 5 3113.820 3085.400 223.776 12.473 o
-2 11 6 1483.960 1550.520 186.372 25.347 o
-2 11 7 998.105 973.251 186.898 30.541 o
-2 11 8 1318.010 1205.390 288.615 14.455 o
-2 11 9 7277.410 7155.950 703.616 1.908 o
-2 11 10 798.519 427.263 160.341 43.421 o
-2 11 11 766.539 759.264 241.455 21.722 o
-2 12 -1 4354.220 4079.180 222.822 9.049 o
-2 12 0 301.091 207.296 46.579 292.474 o
-2 12 1 5224.170 5109.730 231.114 7.009 o
-2 12 2 1940.390 1980.100 148.674 26.320 o
-2 12 3 199.401 306.438 62.649 230.677 o
-2 12 4 2076.300 2110.880 159.754 23.448 o
-2 12 5 2778.950 2759.830 185.418 16.101 o
-2 12 6 4.213 18.330 73.834 266.593 o
-2 12 7 3607.500 4116.130 325.225 7.418 o
-2 12 8 3315.200 2945.570 451.786 5.360 o
-2 12 9 37.734 21.693 102.807 135.632 o
-2 12 10 2985.550 3119.110 494.229 4.762 o
-2 13 -1 573.357 455.319 100.568 90.162 o
-2 13 0 2990.750 2878.780 196.522 14.502 o
-2 13 1 0.191 45.049 47.158 622.879 o
-2 13 2 1374.550 1466.190 140.698 35.868 o
-2 13 3 383.859 225.029 74.095 162.219 o
-2 13 4 538.344 362.190 70.359 141.023 o
-2 13 5 650.597 654.329 107.388 75.783 o
-2 13 6 6046.450 6332.780 410.404 3.905 o
-2 13 7 212.623 208.163 82.535 163.763 o
-2 13 8 1028.780 1070.320 214.422 24.474 o
-2 13 9 947.424 1057.310 290.501 15.111 o
-2 14 -1 4384.290 4331.630 293.631 7.226 o
-2 14 0 0.424 16.826 54.354 490.277 o
-2 14 1 6451.770 6844.880 317.436 4.380 o
-2 14 2 213.001 182.814 54.248 292.146 o
-2 14 3 301.935 310.342 86.292 137.465 o
-2 14 4 792.670 718.926 119.456 61.532 o
-2 14 5 4127.950 4477.970 356.599 6.154 o
-2 14 6 449.153 248.499 97.993 106.575 o
-2 14 7 4983.410 5971.410 420.405 4.336 o
-2 15 -1 17.517 -163.676 92.454 170.458 o
-2 15 0 8080.820 8764.900 509.542 2.400 o
-2 15 1 115.862 4.654 74.846 231.304 o
-2 15 2 3448.330 3564.990 321.718 7.957 o
-2 15 3 367.651 448.779 121.871 76.650 o
-2 15 4 126.447 100.119 105.118 120.673 o
-1 0 5 66280.300 63006.300 702.091 0.082 o
-1 0 7 546.056 602.378 53.566 154.427 o
-1 0 9 8531.750 9911.720 439.374 2.451 o
-1 0 11 16147.400 17410.800 656.083 0.875 o
-1 0 13 2.051 -44.674 84.938 204.248 o
-1 0 15 11135.700 10253.400 826.230 1.175 o
-1 1 2 86.920 28.296 28.296 1007.840 o
-1 1 3 24280.400 29951.700 247.293 0.484 o
-1 1 4 52941.800 54725.900 363.760 0.122 o
-1 1 5 112.523 25.642 13.512 1459.330 o
-1 1 6 21862.500 21891.400 359.414 0.656 o
-1 1 7 7749.970 9572.880 200.857 3.694 o
-1 1 8 2699.430 2838.270 109.023 21.602 o
-1 1 9 1025.230 1093.580 71.914 75.285 o
-1 1 10 15744.000 16707.500 323.660 1.144 o
-1 1 11 1288.730 1214.000 128.563 42.144 o
-1 1 12 5394.060 5579.050 276.900 5.954 o
-1 1 13 5173.270 5035.270 316.506 5.803 o
-1 1 14 4599.850 4645.600 319.552 6.377 o
-1 1 15 358.442 400.325 109.073 92.141 o
-1 1 16 9327.070 9755.790 595.882 1.835 o
-1 2 1 497.632 603.216 48.713 171.341 o
-1 2 2 2103.830 2879.290 72.666 29.389 o
-1 2 5 26674.100 27259.200 296.386 0.457 o
-1 2 6 21845.100 25381.800 303.840 0.607 o
-1 2 7 1630.100 2045.720 118.569 33.923 o
-1 2 8 14460.300 15166.000 295.634 1.353 o
-1 2 9 3967.870 3923.340 159.642 11.731 o
-1 2 10 80.220 65.541 30.751 873.254 o
-1 2 11 6448.140 6699.380 252.262 4.974 o
-1 2 12 15657.100 15641.400 528.393 1.048 o
-1 2 13 97.707 123.825 65.141 278.068 o
-1 2 14 4689.930 4606.410 319.517 6.318 o
-1 2 15 4953.470 5501.350 364.223 5.138 o
-1 2 16 0.879 -18.979 62.774 374.087 o
-1 3 0 10409.600 13237.200 145.108 2.289 o
-1 3 1 29240.400 34680.900 649.383 0.323 o
-1 3 2 619.299 1120.270 81.497 88.658 o
-1 3 3 12225.600 10775.400 181.074 2.120 o
-1 3 4 12194.400 11772.500 181.766 2.024 o
-1 3 5 3927.260 4710.680 127.331 11.672 o
-1 3 6 14465.300 14458.900 416.022 1.286 o
-1 3 7 14781.800 15826.600 369.070 1.234 o
-1 3 8 11.231 17.789 31.377 1325.320 o
-1 3 9 5700.230 5608.690 223.060 6.347 o
-1 3 10 1675.700 1340.310 105.247 41.184 o
-1 3 11 8708.500 8589.560 376.310 2.812 o
-1 3 12 1933.670 1859.100 188.521 21.582 o
-1 3 13 10755.300 10996.100 470.596 1.858 o
-1 3 14 339.076 505.753 114.040 84.787 o
-1 3 15 1610.240 1411.690 187.072 24.883 o
-1 3 16 1121.500 1058.290 214.912 23.974 o
-1 4 0 9194.510 7947.900 172.654 3.498 o
-1 4 1 12.378 132.046 55.648 409.073 o
-1 4 2 24627.600 22559.400 398.502 0.551 o
-1 4 4 6826.090 7339.880 177.773 5.015 o
-1 4 5 3342.160 2724.930 141.682 16.502 o
-1 4 6 12275.200 11253.900 293.027 1.918 o
-1 4 7 284.841 431.574 62.565 195.289 o
-1 4 8 18031.800 18668.600 557.706 0.813 o
-1 4 9 177.742 102.743 25.175 673.663 o
-1 4 10 109.283 109.665 35.557 625.237 o
-1 4 11 2050.110 2072.960 186.703 20.644 o
-1 4 12 4532.010 4572.890 291.706 6.988 o
-1 4 13 230.373 114.187 63.937 243.119 o
-1 4 14 7107.630 7334.110 405.814 3.357 o
-1 4 15 8.734 66.918 64.781 330.292 o
-1 5 0 4340.230 4360.850 159.615 10.347 o
-1 5 1 21481.400 16907.600 289.868 0.791 o
-1 5 2 350.908 205.121 45.319 277.624 o
-1 5 3 26416.100 27179.600 610.029 0.425 o
-1 5 4 101.419 163.675 35.603 590.848 o
-1 5 5 145.424 -59.359 39.142 590.696 o
-1 5 6 5.032 -0.509 28.508 1747.200 o
-1 5 7 13801.100 12489.500 494.229 1.359 o
-1 5 8 7.996 -23.580 94.319 164.992 o
-1 5 9 15455.100 15033.100 540.598 1.073 o
-1 5 10 883.538 947.249 75.157 83.903 o
-1 5 11 1295.030 1267.720 150.014 35.622 o
-1 5 12 51.015 38.032 55.157 421.952 o
-1 5 13 7167.930 7490.080 394.260 3.380 o
-1 5 14 14.348 -111.396 88.678 185.549 o
-1 5 15 3160.320 3404.950 384.927 6.672 o
-1 6 0 1513.140 828.969 79.507 58.484 o
-1 6 1 10609.100 12339.500 270.362 2.170 o
-1 6 2 28233.400 26819.700 503.496 0.410 o
-1 6 3 850.342 802.171 127.802 54.447 o
-1 6 4 7015.560 8054.720 376.207 3.443 o
-1 6 5 3268.920 3523.670 189.758 13.051 o
-1 6 6 4237.430 3403.460 222.768 9.826 o
-1 6 7 733.153 582.872 111.949 70.479 o
-1 6 8 11568.400 10736.300 506.926 1.688 o
-1 6 9 311.323 307.478 126.387 76.369 o
-1 6 10 1385.030 1125.220 256.546 17.367 o
-1 6 11 2588.130 3091.760 435.752 5.985 o
-1 6 12 2879.490 2770.960 312.431 9.392 o
-1 6 13 58.677 51.174 55.287 409.167 o
-1 6 14 3287.110 4385.380 421.598 5.547 o
-1 6 15 774.330 945.451 205.081 27.963 o
-1 7 0 14345.100 14561.500 350.945 1.352 o
-1 7 1 13660.000 13232.500 341.960 1.511 o
-1 7 2 2681.720 3858.550 248.351 11.451 o
-1 7 3 26816.600 27721.500 581.209 0.417 o
-1 7 4 9959.940 9246.230 426.389 2.261 o
-1 7 5 1836.670 1931.410 150.127 27.137 o
-1 7 6 3061.890 3021.020 356.524 7.630 o
-1 7 7 5530.550 5387.180 360.142 4.882 o
-1 7 8 772.069 983.228 298.518 14.758 o
-1 7 9 7110.470 6863.560 616.843 2.288 o
-1 7 10 4050.220 4455.610 511.206 3.974 o
-1 7 11 800.020 1064.860 266.921 17.804 o
-1 7 12 583.380 530.070 196.183 32.668 o
-1 7 13 1660.250 1547.190 245.208 17.125 o
-1 7 14 434.566 372.620 190.523 36.047 o
-1 8 0 3122.520 3173.860 177.956 14.592 o
-1 8 1 6365.500 7022.760 268.863 4.782 o
-1 8 2 7874.750 7967.240 265.286 3.728 o
-1 8 3 7534.120 6806.150 305.549 3.929 o
-1 8 4 190.770 122.022 52.251 331.591 o
-1 8 5 12873.500 12299.200 433.897 1.550 o
-1 8 6 1940.260 2181.550 191.944 20.352 o
-1 8 7 2724.220 2806.450 270.555 11.370 o
-1 8 8 1632.510 1651.490 219.425 19.790 o
-1 8 9 4505.320 4554.990 368.769 5.655 o
-1 8 10 18.065 160.341 140.535 72.381 o
-1 8 11 5218.100 5517.630 609.298 2.758 o
-1 8 12 1287.940 1193.130 298.047 13.773 o
-1 8 13 135.745 163.158 91.429 150.142 o
-1 8 14 1305.740 1098.850 227.247 21.207 o
-1 9 0 8894.470 8592.060 259.161 3.206 o
-1 9 1 4227.690 5033.770 201.674 8.970 o
-1 9 2 298.546 283.236 48.222 269.250 o
-1 9 3 10.953 22.760 36.648 992.927 o
-1 9 4 14191.800 14492.900 483.075 1.244 o
-1 9 5 1765.800 1809.100 177.013 24.174 o
-1 9 6 3416.530 3349.050 245.174 10.644 o
-1 9 7 3251.800 3088.660 290.915 9.454 o
-1 9 8 589.112 523.693 133.619 60.060 o
-1 9 9 1166.160 1147.090 301.819 13.721 o
-1 9 10 14629.500 15726.700 997.890 0.724 o
-1 9 11 180.756 61.307 100.921 127.090 o
-1 9 12 1992.840 2245.720 416.888 6.998 o
-1 9 13 909.737 351.808 165.057 40.694 o
-1 10 0 618.413 643.347 71.571 116.233 o
-1 10 1 330.171 207.742 52.542 251.511 o
-1 10 2 10.618 -25.178 32.936 1280.500 o
-1 10 3 13445.900 13523.800 362.670 1.497 o
-1 10 4 85.834 58.726 51.732 429.628 o
-1 10 5 17576.000 16900.000 559.850 0.877 o
-1 10 6 248.097 325.749 93.897 125.708 o
-1 10 7 486.339 551.750 140.617 57.493 o
-1 10 8 642.463 603.291 166.472 41.783 o
-1 10 9 9852.720 9043.450 549.696 1.940 o
-1 10 10 264.491 142.421 124.500 82.719 o
-1 10 11 10296.000 10177.900 854.526 1.182 o
-1 10 12 54.522 71.682 83.944 193.259 o
-1 11 0 6625.130 6681.100 233.175 5.013 o
-1 11 1 3033.140 3029.540 158.184 16.253 o
-1 11 2 724.061 769.255 79.566 94.629 o
-1 11 3 4389.000 4303.800 192.297 9.538 o
-1 11 4 12249.900 12703.300 329.904 1.753 o
-1 11 5 52.782 58.005 45.642 563.923 o
-1 11 6 3466.280 3332.400 228.085 11.216 o
-1 11 7 2174.100 2119.440 264.614 13.511 o
-1 11 8 1875.110 1573.150 239.785 16.950 o
-1 11 9 330.501 460.748 138.397 63.365 o
-1 11 10 8375.770 8352.850 763.037 1.567 o
-1 11 11 45.181 -105.637 120.728 99.291 o
-1 12 0 5289.910 5249.350 217.640 7.056 o
-1 12 1 17.539 -12.112 37.581 968.006 o
-1 12 2 8837.100 8527.770 278.519 3.167 o
-1 12 3 3072.830 2907.010 165.414 15.928 o
-1 12 4 865.182 936.076 95.164 71.197 o
-1 12 5 5703.630 5728.530 233.810 6.156 o
-1 12 6 4636.900 4539.700 286.644 6.995 o
-1 12 7 3.594 -29.070 87.915 190.430 o
-1 12 8 5299.650 6031.130 466.972 3.747 o
-1 12 9 3353.440 3216.260 471.593 4.956 o
-1 12 10 5.855 -7.545 79.228 233.782 o
-1 13 0 2707.720 2976.630 213.826 14.220 o
-1 13 1 7971.740 8199.860 325.471 3.340 o
-1 13 2 133.861 57.990 51.815 391.283 o
-1 13 3 2448.380 2270.630 237.815 14.434 o
-1 13 4 406.940 521.242 86.697 117.397 o
-1 13 5 1614.210 1659.720 146.940 30.869 o
-1 13 6 888.232 917.654 144.033 45.313 o
-1 13 7 7534.030 7489.540 441.069 2.997 o
-1 13 8 4.726 104.846 122.614 95.826 o
-1 13 9 2622.400 2432.470 420.661 6.484 o
-1 14 0 3140.910 3283.520 216.179 12.518 o
-1 14 1 801.749 683.990 103.565 72.508 o
-1 14 2 9076.800 9201.030 359.200 2.690 o
-1 14 3 85.132 0.246 48.198 512.429 o
-1 14 4 1548.670 1691.610 154.955 29.823 o
-1 14 5 165.855 70.493 79.814 191.035 o
-1 14 6 3015.670 3142.350 315.414 8.884 o
-1 14 7 456.164 347.196 151.853 53.123 o
-1 15 0 74.918 91.367 59.657 338.923 o
-1 15 1 4831.680 5128.950 324.289 5.914 o
-1 15 2 142.832 189.500 77.458 193.767 o
-1 15 3 3050.030 3208.000 254.242 11.111 o
-1 15 4 1074.820 739.168 160.488 38.151 o
0 0 4 972.130 1620.960 87.705 59.694 o
0 0 6 86063.200 91624.900 845.105 0.045 o
0 0 8 8919.440 9287.520 198.822 3.259 o
0 0 10 4496.480 4287.860 318.653 6.641 o
0 0 12 18311.900 18990.100 1003.550 0.577 o
0 0 14 9.916 -50.932 89.603 182.425 o
0 0 16 8270.480 9712.920 863.958 1.299 o
0 1 3 10637.800 10483.100 180.689 2.536 o
0 1 4 38355.900 46559.300 323.807 0.204 o
0 1 5 28090.500 31203.100 287.349 0.393 o
0 1 6 12.176 40.297 18.428 2693.700 o
0 1 7 18702.200 19404.300 315.723 0.861 o
0 1 8 4071.080 4469.320 162.730 10.743 o
0 1 9 802.502 598.305 95.301 80.760 o
0 1 10 2490.890 2773.090 136.013 21.093 o
0 1 11 16170.000 16464.800 526.372 0.990 o
0 1 12 1072.110 1433.740 168.729 32.382 o
0 1 13 8499.230 8658.820 423.812 2.665 o
0 1 14 532.009 473.007 139.389 58.141 o
0 1 15 1965.060 1953.650 265.105 14.132 o
0 1 16 394.111 470.398 149.842 54.316 o
0 2 2 4608.900 4197.160 127.389 10.619 o
0 2 4 545.431 306.479 43.378 204.629 o
0 2 5 11356.100 13766.000 265.958 1.897 o
0 2 6 20535.700 19691.600 269.540 0.774 o
0 2 7 17061.400 17647.700 283.176 1.028 o
0 2 8 1332.400 1276.440 92.007 52.802 o
0 2 9 12120.500 12892.800 418.876 1.629 o
0 2 10 1916.360 1895.810 174.957 23.252 o
0 2 11 140.450 137.795 51.497 362.902 o
0 2 12 7963.060 8252.980 396.967 2.986 o
0 2 13 2068.290 2101.420 214.100 17.774 o
0 2 14 1.756 10.559 58.395 427.261 o
0 2 15 2236.520 2073.760 273.954 12.836 o
0 2 16 3168.360 3151.440 356.524 7.478 o
0 3 1 545.414 146.134 36.794 246.606 o
0 3 2 7947.720 8118.020 339.547 3.294 o
0 3 3 1180.150 1316.740 89.496 57.298 o
0 3 4 32508.100 34842.700 370.298 0.302 o
0 3 5 344.803 105.245 28.702 405.066 o
0 3 6 19.973 47.128 25.956 1545.220 o
0 3 7 418.418 198.569 33.346 301.466 o
0 3 8 15064.900 15120.300 269.956 1.310 o
0 3 9 230.184 147.380 50.155 319.414 o
0 3 10 5592.990 5723.140 300.137 5.446 o
0 3 11 4402.450 4124.500 266.580 7.910 o
0 3 12 308.517 280.126 77.813 159.088 o
0 3 13 872.260 942.753 144.538 45.164 o
0 3 14 4620.270 4564.280 480.365 4.106 o
0 3 15 1246.730 1144.230 173.363 31.042 o
0 4 1 10767.800 9870.100 241.058 2.475 o
0 4 2 6471.900 7460.190 231.775 4.859 o
0 4 3 21535.200 19720.800 322.138 0.718 o
0 4 4 1172.470 873.679 82.731 67.934 o
0 4 5 14747.700 14737.500 421.953 1.242 o
0 4 6 1836.680 1444.200 114.293 35.965 o
0 4 7 14349.000 12810.700 293.966 1.500 o
0 4 8 342.209 522.740 50.318 209.789 o
0 4 9 11110.700 11448.600 350.544 2.011 o
0 4 10 4256.580 4204.380 261.498 8.163 o
0 4 11 327.228 220.547 91.852 127.558 o
0 4 12 102.957 93.904 52.862 389.251 o
0 4 13 6448.180 7515.970 404.185 3.569 o
0 4 14 28.617 65.720 73.879 252.013 o
0 4 15 4767.890 4905.920 357.576 5.537 o
0 5 1 11084.200 12416.500 297.422 2.022 o
0 5 2 17883.300 15851.100 409.334 0.974 o
0 5 3 1530.440 1678.260 143.028 32.391 o
0 5 4 33426.200 27700.900 533.429 0.324 o
0 5 5 711.335 798.858 105.165 72.540 o
0 5 6 4261.650 4560.300 396.138 5.373 o
0 5 7 1.278 25.174 52.233 523.988 o
0 5 8 20310.600 19888.500 509.742 0.710 o
0 5 9 2428.710 2301.920 184.842 18.498 o
0 5 10 6982.930 7597.030 412.464 3.314 o
0 5 11 827.117 847.506 128.372 54.167 o
0 5 12 1367.120 1541.340 209.681 22.453 o
0 5 13 1.960 -53.771 63.457 365.456 o
0 5 14 7855.340 8236.530 446.136 2.784 o
0 5 15 25.686 -15.313 100.765 143.058 o
0 6 0 12478.100 10479.700 485.740 1.628 o
0 6 1 3938.930 3627.720 147.112 12.596 o
0 6 2 4831.820 5038.980 249.099 7.200 o
0 6 3 26400.000 22742.300 555.833 0.479 o
0 6 4 1301.780 1034.310 131.574 42.403 o
0 6 5 279.557 198.069 85.830 147.019 o
0 6 6 2942.600 2862.570 326.342 8.764 o
0 6 7 8836.710 8174.950 415.138 2.676 o
0 6 8 754.175 768.635 143.218 49.060 o
0 6 9 13434.700 13888.800 1060.610 0.741 o
0 6 10 654.671 675.109 226.364 24.881 o
0 6 11 177.907 137.281 72.366 213.310 o
0 6 12 949.591 1326.030 217.779 23.675 o
0 6 13 3872.350 4048.620 301.248 7.761 o
0 6 14 2.797 182.637 114.430 107.662 o
0 7 1 6061.290 4723.750 208.707 6.607 o
0 7 2 10776.000 9559.440 305.802 2.370 o
0 7 3 959.615 925.991 122.315 53.393 o
0 7 4 6573.730 6391.020 451.786 3.385 o
0 7 5 4129.640 3803.800 293.802 7.791 o
0 7 6 200.167 173.849 73.419 200.258 o
0 7 7 822.206 574.791 122.775 60.619 o
0 7 8 5208.170 4951.070 246.697 6.871 o
0 7 9 928.861 1158.000 178.804 32.340 o
0 7 10 2925.750 3075.000 303.422 9.464 o
0 7 11 5266.970 5944.900 614.957 2.677 o
0 7 12 296.311 139.244 97.213 122.742 o
0 7 13 327.932 449.965 134.108 66.913 o
0 7 14 3955.180 4230.380 429.667 5.110 o
0 8 0 14310.700 13105.400 447.681 1.334 o
0 8 1 1219.800 1198.430 96.727 54.962 o
0 8 2 2190.670 1781.170 106.576 30.809 o
0 8 3 12146.600 13225.600 484.412 1.507 o
0 8 4 3901.060 3835.230 232.663 9.747 o
0 8 5 211.353 96.297 58.458 284.133 o
0 8 6 3346.540 3040.300 170.248 14.450 o
0 8 7 1849.010 1935.820 129.186 30.258 o
0 8 8 1077.530 1240.760 191.263 28.090 o
0 8 9 6471.370 6916.800 447.331 3.365 o
0 8 10 4963.280 4875.690 390.046 4.975 o
0 8 11 63.516 -23.580 107.523 123.282 o
0 8 12 3148.240 3682.280 372.657 6.867 o
0 8 13 1501.540 1561.530 320.211 11.681 o
0 9 1 6957.530 6495.140 220.428 4.941 o
0 9 2 775.466 1032.320 85.040 80.011 o
0 9 3 1149.900 1265.590 113.239 49.435 o
0 9 4 2169.970 2632.890 159.390 21.308 o
0 9 5 15984.700 15975.000 387.973 1.115 o
0 9 6 285.658 212.972 48.721 286.471 o
0 9 7 5600.060 5452.440 233.988 6.388 o
0 9 8 679.692 562.220 134.819 56.872 o
0 9 9 2642.840 3001.300 305.067 9.839 o
0 9 10 1638.680 1459.770 223.375 19.683 o
0 9 11 11885.500 12246.100 657.938 1.313 o
0 9 12 0.974 21.693 92.432 171.265 o
0 9 13 2446.820 2372.320 323.984 9.736 o
0 10 0 15480.100 15390.000 475.331 1.112 o
0 10 1 37.046 14.309 31.880 1133.550 o
0 10 2 3655.130 3834.560 169.526 12.352 o
0 10 3 18.067 63.450 34.091 994.180 o
0 10 4 11172.200 11025.200 344.502 2.051 o
0 10 5 220.570 287.722 59.079 243.784 o
0 10 6 17370.900 18290.700 438.960 0.916 o
0 10 7 880.379 747.682 147.764 45.221 o
0 10 8 2766.310 2978.150 300.011 9.883 o
0 10 9 159.721 156.694 95.252 138.028 o
0 10 10 7984.320 8117.320 532.935 2.386 o
0 10 11 62.430 10.998 214.575 31.757 o
0 10 12 8374.410 7387.970 743.230 1.662 o
0 11 1 13049.200 13339.500 336.460 1.587 o
0 11 2 5822.690 5863.200 220.707 6.131 o
0 11 3 18.783 -9.094 44.399 705.672 o
0 11 4 5572.450 5878.890 224.373 6.324 o
0 11 5 10273.600 10665.000 357.718 2.236 o
0 11 6 56.733 66.314 32.475 898.234 o
0 11 7 6139.690 5879.050 425.320 3.831 o
0 11 8 3471.990 3173.300 325.229 8.042 o
0 11 9 9.225 109.341 166.472 52.481 o
0 11 10 1374.010 1594.860 252.021 17.212 o
0 11 11 7065.080 6133.530 661.173 2.157 o
0 12 0 2167.850 2021.860 189.759 19.875 o
0 12 1 2055.780 2045.530 138.136 26.555 o
0 12 2 301.619 234.015 57.576 234.251 o
0 12 3 7984.550 7947.350 271.024 3.655 o
0 12 4 3367.790 3273.650 175.766 13.749 o
0 12 5 1638.950 1494.780 120.182 37.081 o
0 12 6 5212.100 4883.950 328.235 5.662 o
0 12 7 2074.850 2381.770 321.626 10.305 o
0 12 8 867.626 881.680 175.845 34.878 o
0 12 9 4701.280 4410.380 400.163 5.108 o
0 12 10 1852.200 1911.340 280.066 13.373 o
0 13 1 1814.510 1951.950 138.886 28.971 o
0 13 2 8210.780 8514.560 292.591 3.344 o
0 13 3 20.978 32.647 37.000 916.962 o
0 13 4 6607.840 6578.910 259.196 4.849 o
0 13 5 1235.400 1427.990 143.490 37.092 o
0 13 6 35.607 38.180 63.337 338.082 o
0 13 7 456.080 737.503 163.649 44.382 o
0 13 8 8376.560 8517.910 862.071 1.333 o
0 13 9 6.966 189.580 180.148 44.569 o
0 14 0 184.475 310.557 119.611 88.485 o
0 14 1 3374.940 3410.950 251.299 10.435 o
0 14 2 175.687 124.001 73.363 210.841 o
0 14 3 6887.850 7133.450 363.221 3.757 o
0 14 4 7.079 70.576 70.802 279.224 o
0 14 5 1774.360 1852.390 240.857 16.732 o
0 14 6 0.891 108.947 105.484 128.520 o
0 14 7 2733.390 2524.770 354.452 8.222 o
0 15 1 964.261 950.555 149.459 41.915 o
0 15 2 5087.600 5645.670 339.094 5.335 o
0 15 3 97.504 48.230 75.548 226.723 o
0 15 4 3958.640 4156.780 367.680 6.189 o
1 0 3 37902.200 44796.600 828.117 0.196 o
1 0 7 27286.900 27353.300 945.072 0.357 o
1 0 9 5201.170 5017.750 453.672 4.093 o
1 0 11 4277.790 4069.840 463.104 4.534 o
1 0 13 13779.300 14310.000 944.128 0.818 o
1 0 15 135.613 138.648 175.432 45.901 o
1 1 2 34502.700 38350.700 381.393 0.263 o
1 1 3 2731.020 2395.090 112.516 22.648 o
1 1 5 15813.500 17867.500 280.711 1.114 o
1 1 6 30547.200 30056.700 440.191 0.354 o
1 1 7 916.293 1431.180 104.213 56.733 o
1 1 8 15741.400 16153.300 371.019 1.138 o
1 1 9 568.393 398.263 85.868 110.784 o
1 1 10 94.268 63.445 51.078 428.834 o
1 1 11 165.594 70.951 88.659 160.156 o
1 1 12 12853.400 13034.700 612.431 1.267 o
1 1 13 853.413 718.924 172.603 36.762 o
1 1 14 3404.400 3620.780 355.141 7.105 o
1 1 15 166.580 230.600 143.836 65.229 o
1 2 1 58694.100 57882.600 569.934 0.102 o
1 2 2 13457.200 12775.200 237.233 1.673 o
1 2 3 2193.630 1954.650 125.791 27.363 o
1 2 4 25231.600 23307.400 325.591 0.535 o
1 2 5 4794.920 4723.480 149.493 9.281 o
1 2 6 6507.240 7538.550 229.044 4.829 o
1 2 7 20353.500 20080.800 399.086 0.740 o
1 2 8 1120.620 818.504 89.841 67.081 o
1 2 9 1992.010 1903.810 146.214 26.556 o
1 2 10 6512.290 6193.030 319.409 4.508 o
1 2 11 6633.850 6705.600 348.374 4.074 o
1 2 12 2892.280 2778.560 237.504 12.689 o
1 2 13 7953.900 7903.820 509.792 2.512 o
1 2 14 84.340 107.829 158.927 56.397 o
1 2 15 2.341 58.556 80.363 221.583 o
1 3 1 1971.810 2091.210 71.990 36.324 o
1 3 2 21459.000 17951.100 233.680 0.779 o
1 3 3 34808.600 32153.000 390.906 0.291 o
1 3 5 46794.800 49508.100 557.138 0.150 o
1 3 6 5454.520 5201.100 125.854 8.086 o
1 3 7 99.067 158.189 41.930 499.871 o
1 3 8 3831.430 3559.440 185.665 11.692 o
1 3 9 6139.010 5441.720 241.462 5.804 o
1 3 10 5444.790 5781.940 301.816 5.513 o
1 3 11 5625.530 5912.500 329.445 5.018 o
1 3 12 3361.760 3598.310 272.366 9.556 o
1 3 13 362.362 234.381 77.920 154.660 o
1 3 14 1094.680 1290.340 217.412 23.151 o
1 3 15 2714.020 2873.590 421.604 6.285 o
1 4 1 519.129 392.198 38.830 211.262 o
1 4 2 4492.490 3968.870 118.670 11.356 o
1 4 4 55630.000 59292.400 826.532 0.104 o
1 4 5 4129.750 4666.720 205.193 9.366 o
1 4 6 2917.810 3060.430 178.551 15.466 o
1 4 7 3113.440 3325.640 174.130 14.563 o
1 4 8 10023.400 10110.000 318.452 2.454 o
1 4 9 190.453 218.032 57.798 272.675 o
1 4 10 17923.700 17859.500 469.712 0.882 o
1 4 11 359.016 314.317 84.071 136.180 o
1 4 12 355.586 392.433 99.389 105.855 o
1 4 13 1084.690 1345.050 176.141 30.921 o
1 4 14 3588.370 3601.380 298.586 8.427 o
1 4 15 21.659 -24.113 89.859 179.723 o
1 5 1 3543.800 3962.710 131.649 13.813 o
1 5 2 2405.170 2896.250 123.799 22.257 o
1 5 3 54363.600 56628.600 555.721 0.114 o
1 5 4 235.800 345.858 38.680 335.113 o
1 5 5 11813.600 10838.100 552.707 1.565 o
1 5 6 63.520 87.716 66.023 291.409 o
1 5 7 1997.730 2501.260 219.050 16.874 o
1 5 8 874.853 956.163 116.165 58.136 o
1 5 9 22642.200 23333.600 525.248 0.571 o
1 5 10 194.530 180.697 57.505 280.025 o
1 5 11 4425.960 5001.420 266.375 7.365 o
1 5 12 149.830 14.177 53.975 372.784 o
1 5 13 2286.540 2280.320 228.069 15.576 o
1 5 14 89.642 136.873 68.750 255.345 o
1 5 15 10716.400 11260.000 557.303 1.659 o
1 6 1 9270.560 8908.120 212.388 3.158 o
1 6 2 14561.000 16423.500 325.758 1.259 o
1 6 3 8.737 91.185 26.304 1413.470 o
1 6 4 19858.300 19590.100 347.304 0.789 o
1 6 5 6160.970 6191.190 198.751 5.885 o
1 6 6 350.292 242.399 108.466 97.291 o
1 6 7 2452.780 2053.330 240.984 14.499 o
1 6 8 8867.980 9271.250 458.513 2.379 o
1 6 9 198.420 170.948 76.710 188.245 o
1 6 10 14995.900 15467.300 542.597 1.088 o
1 6 11 3886.770 4061.440 293.338 7.934 o
1 6 12 190.344 164.467 63.843 248.101 o
1 6 13 1974.810 1778.210 206.523 19.546 o
1 6 14 7257.410 7354.370 436.978 3.120 o
1 7 1 202.430 174.865 35.810 449.489 o
1 7 2 8891.050 7865.630 243.369 3.407 o
1 7 3 4114.630 3977.630 175.651 10.852 o
1 7 4 934.424 1454.090 121.433 48.771 o
1 7 5 2481.400 2580.400 151.155 20.441 o
1 7 6 8524.280 8889.870 421.770 2.638 o
1 7 7 869.251 897.094 151.381 42.884 o
1 7 8 3795.090 3654.690 298.525 8.147 o
1 7 9 10011.400 10325.900 522.081 1.896 o
1 7 10 768.129 651.695 120.335 62.556 o
1 7 11 1189.680 1156.000 163.284 33.928 o
1 7 12 5621.980 5365.460 358.794 4.851 o
1 7 13 709.549 820.995 332.473 12.309 o
1 7 14 1058.610 1049.110 209.168 25.312 o
1 8 1 12794.700 11710.000 334.491 1.739 o
1 8 2 558.974 425.685 52.166 169.442 o
1 8 3 4681.250 3845.820 167.651 9.989 o
1 8 4 4387.080 4356.900 185.968 9.641 o
1 8 5 6165.160 7148.830 251.938 5.017 o
1 8 6 495.155 483.713 62.685 153.698 o
1 8 7 7823.060 7842.610 453.200 2.809 o
1 8 8 102.300 7.111 58.823 355.148 o
1 8 9 167.471 204.586 96.356 132.540 o
1 8 10 3520.030 3380.720 418.303 5.755 o
1 8 11 7104.790 6687.700 394.682 3.545 o
1 8 12 209.722 131.901 71.174 212.022 o
1 8 13 5168.300 5622.490 584.775 2.917 o
1 9 1 741.428 959.698 84.018 84.289 o
1 9 2 14766.300 14795.100 297.888 1.338 o
1 9 3 16.139 26.560 29.791 1370.580 o
1 9 4 457.112 525.065 73.179 135.751 o
1 9 5 7.271 -20.964 37.629 1009.370 o
1 9 6 12863.000 13248.300 354.572 1.596 o
1 9 7 10.997 -74.998 79.699 229.852 o
1 9 8 9137.270 9309.280 506.271 2.163 o
1 9 9 482.938 508.138 137.104 60.321 o
1 9 10 402.038 527.052 144.093 57.210 o
1 9 11 267.043 76.335 68.111 218.527 o
1 9 12 6431.050 7090.270 434.152 3.441 o
1 10 1 13335.600 13852.600 317.503 1.538 o
1 10 2 2398.970 2325.470 131.806 23.556 o
1 10 3 6869.750 7728.960 255.744 4.359 o
1 10 4 97.883 105.446 36.227 637.604 o
1 10 5 5461.580 5114.480 229.009 6.774 o
1 10 6 229.747 121.475 73.568 198.984 o
1 10 7 9933.350 11032.900 546.483 1.797 o
1 10 8 1644.420 1790.120 235.849 17.720 o
1 10 9 2061.020 1819.790 242.408 15.801 o
1 10 10 262.847 100.708 149.023 60.541 o
1 10 11 4281.330 4501.060 408.111 5.196 o
1 10 12 11.991 -45.732 64.362 349.865 o
1 11 1 136.617 159.140 38.765 497.476 o
1 11 2 13040.400 13538.100 333.147 1.579 o
1 11 3 4878.990 5307.410 210.405 7.641 o
1 11 4 511.431 462.021 70.411 138.197 o
1 11 5 1987.330 1936.680 153.112 25.517 o
1 11 6 6432.620 6687.260 424.066 3.582 o
1 11 7 92.986 96.025 89.603 164.663 o
1 11 8 7132.240 7393.640 479.797 2.908 o
1 11 9 2913.960 2837.000 315.302 9.201 o
1 11 10 38.887 61.636 73.632 251.238 o
1 11 11 685.344 808.349 185.018 34.090 o
1 12 1 2940.760 2908.600 161.644 16.675 o
1 12 2 654.715 656.193 79.681 102.899 o
1 12 3 460.087 448.906 89.993 110.943 o
1 12 4 6372.110 6684.790 248.089 5.068 o
1 12 5 1526.720 1593.620 158.170 29.848 o
1 12 6 1607.640 1372.740 200.559 22.982 o
1 12 7 2907.660 3093.130 309.788 9.245 o
1 12 8 1967.100 2380.370 315.024 10.765 o
1 12 9 739.940 935.267 190.962 31.560 o
1 12 10 3541.030 4386.750 632.877 2.979 o
1 13 1 435.640 301.759 65.836 169.796 o
1 13 2 50.699 -27.833 50.129 519.511 o
1 13 3 3393.790 3522.860 215.558 11.659 o
1 13 4 32.744 16.494 53.138 477.963 o
1 13 5 5448.030 5389.110 325.762 5.350 o
1 13 6 1452.920 1810.090 261.942 15.778 o
1 13 7 30.527 19.807 109.409 120.687 o
1 13 8 150.360 225.421 146.194 63.694 o
1 14 1 17.067 -7.909 58.114 423.374 o
1 14 2 1072.340 1072.170 127.140 47.559 o
1 14 3 1.603 -67.241 49.786 593.113 o
1 14 4 5909.410 6487.540 365.408 4.331 o
1 14 5 342.946 174.518 74.964 169.721 o
1 14 6 903.392 814.719 201.680 28.332 o
1 15 1 6.537 45.768 60.352 385.238 o
1 15 2 519.629 368.144 90.033 109.487 o
1 15 3 3016.290 2904.180 301.205 9.539 o
1 15 4 89.004 155.661 107.272 116.946 o
2 0 2 6934.560 5252.600 282.012 4.872 o
2 0 4 4186.850 3350.190 277.296 8.417 o
2 0 6 12201.900 10483.900 333.079 1.935 o
2 0 8 21651.500 19010.300 641.838 0.632 o
2 0 10 2630.820 2774.850 371.615 7.670 o
2 0 12 11257.900 11392.700 836.605 1.119 o
2 0 14 7475.130 8611.280 801.707 1.530 o
2 1 3 4487.420 3146.470 116.979 12.546 o
2 1 4 5478.540 4302.820 138.194 8.619 o
2 1 5 819.231 841.327 50.043 112.179 o
2 1 6 3425.790 2890.720 121.713 16.757 o
2 1 7 17179.400 16073.000 309.148 1.065 o
2 1 8 144.129 134.645 49.358 381.741 o
2 1 9 13463.100 12676.900 402.184 1.499 o
2 1 10 683.966 679.552 262.677 19.072 o
2 1 11 2266.630 1998.030 238.894 15.237 o
2 1 12 2740.590 2812.300 296.822 10.170 o
2 1 13 9020.810 9754.440 574.889 1.936 o
2 1 14 181.127 187.467 130.160 78.387 o
2 1 15 2298.260 2381.960 309.371 10.572 o
2 2 2 5468.760 4969.810 115.354 8.363 o
2 2 3 2537.570 2221.500 83.739 27.352 o
2 2 4 2387.130 2653.640 95.529 25.735 o
2 2 5 35296.900 31679.500 816.669 0.262 o
2 2 6 10434.400 11166.400 288.915 2.301 o
2 2 7 659.987 472.733 64.431 130.554 o
2 2 8 19206.200 19389.100 429.545 0.797 o
2 2 9 190.020 225.021 61.906 249.003 o
2 2 10 90.609 101.775 62.971 300.951 o
2 2 11 4279.170 4403.260 357.056 6.062 o
2 2 12 2702.130 3132.670 316.370 9.242 o
2 2 13 510.817 476.460 151.321 51.469 o
2 2 14 5682.670 5933.510 469.430 3.613 o
2 2 15 939.420 1297.890 234.853 21.153 o
2 3 2 1677.450 2027.150 75.299 41.314 o
2 3 3 14701.800 17290.000 294.195 1.226 o
2 3 4 44166.300 43278.100 384.406 0.179 o
2 3 5 992.452 878.205 61.259 89.239 o
2 3 6 7605.270 7210.910 240.279 4.186 o
2 3 7 8594.500 9230.220 287.218 3.096 o
2 3 8 87.304 63.322 36.164 705.215 o
2 3 9 4524.220 4653.810 230.314 8.192 o
2 3 10 10414.300 10320.300 357.666 2.242 o
2 3 11 7.251 44.455 48.011 591.677 o
2 3 12 3549.910 3088.660 351.336 7.305 o
2 3 13 4568.170 4174.850 384.354 5.489 o
2 3 14 29.687 26.943 78.192 230.905 o
2 3 15 1404.350 1280.110 250.416 17.743 o
2 4 2 28356.200 35977.800 346.348 0.349 o
2 4 3 13119.600 12721.400 288.346 1.674 o
2 4 4 693.921 639.973 86.273 93.733 o
2 4 5 47321.200 47508.400 692.180 0.149 o
2 4 6 1595.530 1805.300 102.339 39.339 o
2 4 7 2006.150 2007.400 96.343 33.092 o
2 4 8 8021.630 8862.990 306.638 3.287 o
2 4 9 4338.440 4707.590 236.111 8.290 o
2 4 10 340.020 308.135 71.715 169.010 o
2 4 11 10689.400 10691.000 390.196 2.075 o
2 4 12 162.933 218.650 84.287 164.463 o
2 4 13 963.891 985.789 197.290 28.387 o
2 4 14 1982.170 1926.160 276.385 13.345 o
2 4 15 3622.320 3730.190 397.356 5.990 o
2 5 2 388.708 473.130 60.691 176.284 o
2 5 3 6159.980 7587.800 270.724 4.718 o
2 5 4 58485.100 63928.700 902.628 0.093 o
2 5 5 771.906 951.674 166.001 38.547 o
2 5 6 26623.300 27425.500 689.452 0.407 o
2 5 7 214.335 179.421 40.798 391.374 o
2 5 8 451.248 521.220 54.832 174.570 o
2 5 9 2.684 -40.220 45.546 705.782 o
2 5 10 23187.000 23536.300 564.295 0.544 o
2 5 11 256.188 291.176 71.976 183.720 o
2 5 12 8701.290 8322.550 536.652 2.223 o
2 5 13 8.051 -37.404 70.570 293.384 o
2 5 14 824.324 830.094 191.200 31.271 o
2 6 2 5764.260 6327.510 233.502 5.831 o
2 6 3 5561.670 6165.720 256.029 5.822 o
2 6 4 4196.940 4844.440 264.092 7.775 o
2 6 5 26244.700 26793.100 870.560 0.388 o
2 6 6 3028.970 3170.270 244.820 11.601 o
2 6 7 2845.320 2960.440 246.398 12.141 o
2 6 8 8472.610 8188.290 255.702 3.464 o
2 6 9 6126.850 6789.940 346.426 4.318 o
2 6 10 416.578 292.675 94.826 112.239 o
2 6 11 10155.900 9853.160 457.348 2.080 o
2 6 12 2728.000 2945.770 261.199 11.677 o
2 6 13 500.099 323.215 97.936 101.123 o
2 6 14 1518.610 1253.700 228.088 19.973 o
2 7 2 3237.080 3134.410 145.002 15.920 o
2 7 3 11154.700 12762.000 386.061 1.829 o
2 7 4 4970.480 5363.410 290.501 6.221 o
2 7 5 480.685 504.732 96.677 98.507 o
2 7 6 2880.940 2807.380 326.342 8.867 o
2 7 7 10892.900 10703.300 483.247 1.831 o
2 7 8 7.513 111.818 73.419 254.397 o
2 7 9 8615.210 8355.110 395.029 2.793 o
2 7 10 6188.610 6249.220 356.856 4.330 o
2 7 11 442.715 473.934 114.471 80.808 o
2 7 12 2391.220 2299.520 238.232 14.521 o
2 7 13 4444.220 4413.720 340.613 6.226 o
2 8 2 24500.200 26621.700 517.321 0.484 o
2 8 3 12.100 2.110 47.159 639.503 o
2 8 4 6894.240 7087.700 471.121 3.061 o
2 8 5 785.199 840.626 149.023 45.430 o
2 8 6 4004.580 4175.610 592.792 3.235 o
2 8 7 125.930 159.636 79.971 189.611 o
2 8 8 13983.500 13712.400 593.563 1.174 o
2 8 9 1171.810 1369.900 166.919 32.195 o
2 8 10 2485.320 2391.290 226.531 14.925 o
2 8 11 862.611 942.410 147.918 43.981 o
2 8 12 3217.230 3206.260 288.142 9.517 o
2 8 13 4.446 29.585 73.014 270.637 o
2 9 2 764.928 889.912 78.398 89.582 o
2 9 3 16699.700 17192.700 367.632 1.030 o
2 9 4 439.358 414.572 81.946 127.361 o
2 9 5 5.856 68.605 68.853 295.232 o
2 9 6 8.691 -26.613 60.914 391.969 o
2 9 7 10258.100 10402.300 509.068 1.887 o
2 9 8 4.497 0.748 67.405 322.701 o
2 9 9 9187.390 8849.370 512.707 2.174 o
2 9 10 199.935 261.541 85.060 154.689 o
2 9 11 334.605 331.261 110.500 93.126 o
2 9 12 53.612 -0.731 64.058 331.650 o
2 10 2 15516.500 14992.400 380.659 1.198 o
2 10 3 683.168 572.911 83.949 98.978 o
2 10 4 3051.740 3086.500 220.460 12.784 o
2 10 5 1621.750 1594.120 325.399 11.206 o
2 10 6 3056.000 2812.780 425.848 6.020 o
2 10 7 1301.420 1309.040 187.871 27.041 o
2 10 8 9882.070 9853.850 531.336 1.926 o
2 10 9 131.490 75.397 59.676 314.531 o
2 10 10 330.120 303.492 102.880 104.872 o
2 10 11 253.518 193.278 80.425 165.421 o
2 11 2 88.673 75.728 35.343 707.578 o
2 11 3 5153.680 5626.720 263.515 6.333 o
2 11 4 2125.970 2187.960 171.849 21.542 o
2 11 5 4.964 7.126 56.799 449.964 o
2 11 6 1985.630 1926.690 225.034 17.381 o
2 11 7 3428.660 3406.410 307.751 8.470 o
2 11 8 575.078 612.086 141.661 54.517 o
2 11 9 1863.880 2258.500 275.553 13.303 o
2 11 10 1230.200 1205.350 176.556 30.217 o
2 12 2 670.136 507.092 82.992 103.185 o
2 12 3 468.531 544.285 100.112 93.843 o
2 12 4 952.174 1089.140 162.336 36.999 o
2 12 5 2064.110 2056.510 268.052 13.593 o
2 12 6 1402.340 1672.270 358.410 9.733 o
2 12 7 614.178 343.319 174.489 40.371 o
2 12 8 1539.890 1771.300 388.592 8.342 o
2 12 9 895.078 1265.750 348.979 10.879 o
2 13 2 0.799 -0.027 61.962 383.993 o
2 13 3 1492.530 1431.820 189.767 25.110 o
2 13 4 2776.180 3496.970 266.190 10.843 o
2 13 5 5.998 -7.114 69.343 304.570 o
2 13 6 1231.060 1385.310 237.604 19.598 o
2 13 7 923.997 830.946 276.353 16.753 o
2 13 8 375.146 405.570 221.649 27.637 o
2 14 2 370.939 289.542 93.258 118.423 o
2 14 3 509.838 581.936 125.516 67.066 o
2 14 4 128.901 81.182 79.640 197.438 o
2 14 5 4402.310 4329.240 354.036 6.052 o
2 14 6 219.679 254.862 128.745 77.664 o
2 15 2 55.172 28.908 83.707 197.870 o
2 15 3 52.060 -9.310 98.290 147.644 o
3 0 3 12505.300 11192.800 510.263 1.541 o
3 0 5 2098.920 1179.920 194.296 21.780 o
3 0 7 25448.500 26806.800 632.406 0.443 o
3 0 9 30959.200 30883.800 412.910 0.344 o
3 0 11 180.145 145.251 122.614 88.063 o
3 0 13 7358.060 7387.030 733.798 1.787 o
3 0 15 8407.950 8939.510 876.219 1.290 o
3 1 3 982.661 1648.700 88.724 58.532 o
3 1 4 16307.700 14051.300 268.119 1.243 o
3 1 5 14929.900 14743.900 311.658 1.314 o
3 1 6 1585.900 2137.610 135.971 30.772 o
3 1 7 61.696 22.900 16.427 1976.600 o
3 1 8 21636.400 22014.800 396.410 0.654 o
3 1 9 339.675 222.645 98.916 113.311 o
3 1 10 7002.220 6489.870 313.168 4.217 o
3 1 11 5101.730 4868.230 383.503 4.985 o
3 1 12 932.325 911.091 176.167 34.072 o
3 1 13 12.679 12.027 70.970 286.267 o
3 1 14 7295.980 7523.730 547.376 2.513 o
3 1 15 409.862 326.576 142.295 60.267 o
3 2 3 12245.400 11435.600 235.608 1.986 o
3 2 4 16393.100 18750.600 408.826 0.977 o
3 2 5 8329.310 9270.270 391.244 2.762 o
3 2 6 7354.840 6159.740 189.540 4.987 o
3 2 7 5423.150 5510.570 184.602 7.196 o
3 2 8 32.527 65.221 39.015 758.582 o
3 2 9 12725.200 12319.200 423.415 1.581 o
3 2 10 5507.780 6216.890 316.829 5.138 o
3 2 11 2229.550 2081.490 190.376 19.388 o
3 2 12 7931.300 8685.650 638.065 1.960 o
3 2 13 2976.220 2571.480 308.886 9.529 o
3 2 14 3.255 93.375 103.591 133.538 o
3 2 15 5954.950 6272.160 791.804 1.775 o
3 3 3 417.430 681.481 67.667 141.326 o
3 3 4 10407.100 12346.500 266.142 2.220 o
3 3 5 19031.700 18467.000 659.725 0.725 o
3 3 6 955.288 1473.580 170.700 32.777 o
3 3 7 5985.150 5505.340 267.681 5.611 o
3 3 8 4833.280 4266.770 246.853 7.702 o
3 3 9 4.879 13.153 41.098 837.566 o
3 3 10 3431.470 3054.700 293.072 9.154 o
3 3 11 9351.840 9396.430 417.649 2.401 o
3 3 12 272.700 271.030 86.577 141.937 o
3 3 13 4727.750 4773.970 654.571 2.618 o
3 3 14 2277.450 2391.440 315.517 10.310 o
3 4 3 12117.600 13301.800 222.288 1.857 o
3 4 4 4149.990 4128.710 154.562 11.166 o
3 4 5 3740.910 4852.320 180.484 10.579 o
3 4 6 25182.400 25135.800 489.413 0.490 o
3 4 7 272.498 215.559 53.551 265.745 o
3 4 8 3364.520 3220.690 190.596 13.171 o
3 4 9 2505.800 2623.550 209.219 15.695 o
3 4 10 6398.340 6521.600 344.603 4.264 o
3 4 11 616.593 545.087 110.012 76.928 o
3 4 12 12044.500 13438.100 533.950 1.433 o
3 4 13 34.977 23.918 67.306 305.379 o
3 4 14 1333.230 1175.130 222.151 21.651 o
3 5 3 471.908 594.675 54.417 165.334 o
3 5 4 32.834 32.266 29.422 1248.000 o
3 5 5 32339.900 32970.900 729.120 0.291 o
3 5 6 1740.740 1918.460 136.298 30.262 o
3 5 7 15920.100 15927.000 346.476 1.148 o
3 5 8 151.458 161.167 41.488 447.347 o
3 5 9 230.081 148.987 65.931 228.579 o
3 5 10 1004.500 956.096 137.235 45.827 o
3 5 11 9146.380 10117.600 458.827 2.238 o
3 5 12 327.315 251.240 84.803 141.255 o
3 5 13 5924.870 6021.240 385.351 4.249 o
3 5 14 41.317 33.265 86.630 187.309 o
3 6 3 4023.520 4521.440 209.462 9.574 o
3 6 4 3619.170 3305.940 202.077 11.914 o
3 6 5 1044.230 1323.290 192.410 27.804 o
3 6 6 17631.000 18613.800 601.587 0.810 o
3 6 7 2439.030 2408.720 145.049 21.740 o
3 6 8 5655.920 5854.190 311.823 5.217 o
3 6 9 3172.250 3113.280 238.230 11.651 o
3 6 10 3880.600 4358.750 293.908 7.756 o
3 6 11 415.015 281.607 84.611 131.101 o
3 6 12 8463.100 8612.970 557.591 2.164 o
3 6 13 727.179 830.179 184.765 33.737 o
3 7 3 2408.940 2442.710 159.248 20.511 o
3 7 4 9903.450 10775.900 371.698 2.267 o
3 7 5 3981.710 4429.200 355.581 6.302 o
3 7 6 1.670 53.762 49.989 550.251 o
3 7 7 7043.110 6526.810 320.456 4.132 o
3 7 8 8033.500 8479.930 384.251 2.990 o
3 7 9 8.655 -25.883 51.937 536.247 o
3 7 10 8782.200 9053.460 534.369 2.154 o
3 7 11 2782.340 3118.550 267.580 11.114 o
3 7 12 6.094 28.296 94.704 162.239 o
3 7 13 1325.570 1185.590 231.672 20.370 o
3 8 3 19717.600 19631.300 425.161 0.769 o
3 8 4 899.645 737.109 99.756 70.587 o
3 8 5 4323.540 5009.260 385.763 5.363 o
3 8 6 2611.380 2628.060 233.887 13.776 o
3 8 7 880.139 917.764 119.992 56.472 o
3 8 8 124.961 93.502 57.109 334.649 o
3 8 9 13274.800 12898.200 508.147 1.373 o
3 8 10 1324.690 1491.200 181.769 27.396 o
3 8 11 1207.580 998.682 155.526 36.655 o
3 8 12 1255.410 1131.960 174.769 30.705 o
3 9 3 321.771 328.711 75.917 158.903 o
3 9 4 11943.000 12177.500 571.570 1.448 o
3 9 5 510.642 501.775 125.444 68.238 o
3 9 6 34.725 87.206 81.585 205.954 o
3 9 7 390.739 150.291 82.529 145.096 o
3 9 8 9744.360 9589.550 429.974 2.260 o
3 9 9 277.632 173.733 69.984 197.796 o
3 9 10 5561.430 6000.330 369.517 4.592 o
3 9 11 477.608 411.864 102.190 94.379 o
3 9 12 281.814 159.518 84.284 153.025 o
3 10 3 15172.400 15102.600 450.478 1.167 o
3 10 4 113.996 137.705 69.796 242.024 o
3 10 5 1820.530 1882.510 200.163 20.715 o
3 10 6 528.006 444.658 105.148 87.601 o
3 10 7 3654.810 3711.470 400.382 5.918 o
3 10 8 66.628 4.402 56.224 408.989 o
3 10 9 7122.670 7184.400 399.674 3.416 o
3 10 10 27.867 -83.739 74.542 257.358 o
3 10 11 206.052 256.723 85.699 152.496 o
3 11 3 19.065 37.292 42.564 718.271 o
3 11 4 6381.720 6315.170 407.624 3.797 o
3 11 5 1931.520 1965.840 207.771 19.201 o
3 11 6 315.796 135.819 115.069 92.526 o
3 11 7 1764.020 1544.940 330.115 10.806 o
3 11 8 4081.010 4287.720 573.457 3.374 o
3 11 9 196.891 109.467 164.586 51.241 o
3 11 10 1977.960 2396.660 322.312 10.388 o
3 12 3 5537.770 5661.020 366.632 4.727 o
3 12 4 1173.770 1053.810 195.791 27.166 o
3 12 5 1237.580 1280.020 221.500 21.927 o
3 12 6 3005.770 3290.770 498.945 4.655 o
3 12 7 484.622 33.955 117.898 84.102 o
3 12 8 204.179 193.353 102.807 116.670 o
3 12 9 1960.250 2098.330 313.609 11.044 o
3 13 3 115.214 64.809 55.554 362.845 o
3 13 4 1722.450 1848.540 223.208 18.644 o
3 13 5 3355.350 3716.010 387.563 6.368 o
3 13 6 95.813 52.153 92.432 157.899 o
3 13 7 3062.560 3721.810 564.025 3.760 o
3 14 3 287.729 224.682 79.103 162.247 o
3 14 4 1970.910 2140.180 222.464 17.296 o
3 14 5 492.767 371.835 108.449 87.262 o
4 0 4 43883.100 45116.300 1190.300 0.152 o
4 0 6 5797.700 6258.980 499.888 3.291 o
4 0 8 12369.800 12586.400 314.762 1.764 o
4 0 10 13760.800 14698.200 531.596 1.221 o
4 0 12 2388.790 2743.730 445.183 5.968 o
4 0 14 4287.170 4380.150 614.957 2.988 o
4 1 4 1424.240 2046.690 131.171 33.944 o
4 1 5 30666.200 31464.800 521.975 0.336 o
4 1 6 1608.770 1998.630 137.170 31.035 o
4 1 7 592.873 587.435 72.805 119.405 o
4 1 8 1274.650 1283.060 99.736 51.407 o
4 1 9 29175.900 29416.700 499.651 0.374 o
4 1 10 647.108 595.865 76.533 109.482 o
4 1 11 8193.510 8257.330 377.713 3.006 o
4 1 12 1364.830 1333.290 219.313 21.578 o
4 1 13 4.809 2.150 94.368 165.069 o
4 1 14 862.218 495.568 162.028 41.542 o
4 2 4 10207.700 9731.560 312.312 2.471 o
4 2 5 4825.730 6452.820 438.581 4.112 o
4 2 6 5682.520 5472.590 337.397 5.029 o
4 2 7 6997.670 7519.960 245.695 4.411 o
4 2 8 3417.920 3427.670 154.162 14.285 o
4 2 9 2261.080 1980.690 177.193 20.805 o
4 2 10 8933.320 9181.210 420.777 2.509 o
4 2 11 5284.130 5213.970 310.365 5.736 o
4 2 12 369.620 335.755 84.705 132.713 o
4 2 13 4511.840 4757.740 432.225 4.683 o
4 2 14 2112.890 2233.430 314.123 10.710 o
4 3 4 665.551 534.068 60.392 132.368 o
4 3 5 3571.290 3214.530 263.620 9.827 o
4 3 6 8674.440 8739.720 432.475 2.578 o
4 3 7 525.035 598.261 120.204 70.555 o
4 3 8 4739.260 4477.580 315.110 6.408 o
4 3 9 4666.940 4131.220 263.857 7.642 o
4 3 10 707.692 673.088 111.976 69.800 o
4 3 11 1273.930 1231.380 155.733 34.594 o
4 3 12 12804.900 12517.600 513.771 1.431 o
4 3 13 1.219 -70.855 106.504 130.053 o
4 3 14 2449.740 2591.120 393.780 7.239 o
4 4 4 1234.800 1891.870 130.260 37.513 o
4 4 5 5699.340 5555.300 300.876 5.420 o
4 4 6 502.223 329.697 116.483 79.272 o
4 4 7 14205.800 14047.500 588.810 1.151 o
4 4 8 2.297 11.656 52.376 528.101 o
4 4 9 4849.210 4497.240 282.619 6.875 o
4 4 10 16.313 -46.468 70.795 288.510 o
4 4 11 2952.800 3169.960 258.859 11.134 o
4 4 12 59.690 72.177 66.576 291.698 o
4 4 13 10159.200 10525.600 502.770 1.908 o
4 4 14 252.676 212.214 177.790 43.251 o
4 5 4 586.401 649.823 55.454 142.290 o
4 5 5 632.841 449.758 132.989 60.316 o
4 5 6 7616.900 6975.430 372.087 3.445 o
4 5 7 689.455 758.321 205.614 28.869 o
4 5 8 8426.290 8507.610 385.145 2.867 o
4 5 9 111.674 119.075 50.528 399.043 o
4 5 10 405.506 402.915 92.510 112.760 o
4 5 11 879.864 664.624 124.586 57.043 o
4 5 12 7927.750 8567.660 449.343 2.709 o
4 5 13 3.232 13.652 72.208 279.667 o
4 6 4 8204.400 8150.840 360.466 3.100 o
4 6 5 2415.300 2181.590 320.683 10.037 o
4 6 6 310.454 338.603 146.194 59.411 o
4 6 7 11710.500 10896.900 422.666 1.820 o
4 6 8 679.706 489.302 124.500 64.391 o
4 6 9 2409.730 2480.720 275.822 11.995 o
4 6 10 3072.330 3178.300 319.127 8.672 o
4 6 11 1900.170 2394.560 286.842 12.393 o
4 6 12 40.159 3.129 64.015 337.986 o
4 6 13 5647.790 6374.120 503.857 3.288 o
4 7 4 2.027 -71.294 35.691 1147.170 o
4 7 5 5218.480 4971.820 298.044 6.062 o
4 7 6 9449.730 9773.350 447.974 2.246 o
4 7 7 441.118 383.655 110.353 87.172 o
4 7 8 5111.950 5273.190 396.441 4.711 o
4 7 9 4076.490 4065.130 362.508 6.235 o
4 7 10 12.099 -10.454 79.202 232.457 o
4 7 11 2533.670 3100.260 337.460 8.704 o
4 7 12 2293.330 2192.210 380.104 7.913 o
4 8 4 8035.160 7775.200 312.412 3.463 o
4 8 5 2126.510 2282.690 205.422 17.991 o
4 8 6 2736.760 2650.640 237.953 13.193 o
4 8 7 3632.130 4142.870 265.840 8.952 o
4 8 8 2696.480 3039.460 240.125 12.706 o
4 8 9 711.966 471.579 134.993 57.050 o
4 8 10 3337.650 3501.340 362.043 7.044 o
4 8 11 1007.530 1220.750 224.968 22.503 o
4 8 12 339.081 421.076 138.687 63.402 o
4 9 4 39.702 41.500 51.875 478.686 o
4 9 5 10765.300 11218.200 571.570 1.627 o
4 9 6 3867.980 4302.490 308.819 7.448 o
4 9 7 88.268 24.580 38.457 689.946 o
4 9 8 1951.270 1468.610 171.729 24.825 o
4 9 9 7884.790 8873.690 435.589 2.743 o
4 9 10 5.697 -44.862 95.606 160.861 o
4 9 11 3794.240 3787.840 403.479 5.753 o
4 10 4 18717.700 18359.100 666.832 0.736 o
4 10 5 3.036 39.614 63.193 356.546 o
4 10 6 2192.330 2177.950 191.085 19.269 o
4 10 7 79.424 181.144 90.246 159.039 o
4 10 8 3484.840 3433.360 358.029 7.047 o
4 10 9 10.581 -115.281 95.201 161.671 o
4 10 10 8718.590 8608.250 600.362 1.982 o
4 11 4 357.661 240.512 173.546 43.963 o
4 11 5 11277.800 9829.880 815.855 1.195 o
4 11 6 874.872 516.866 224.478 24.639 o
4 11 7 5.503 84.232 92.904 165.135 o
4 11 8 1172.650 1250.720 224.876 21.772 o
4 11 9 4682.500 3710.910 397.897 5.348 o
4 12 4 6778.410 6562.230 495.782 3.014 o
4 12 5 2634.490 1915.890 355.109 8.583 o
4 12 6 1092.540 1248.780 323.513 12.213 o
4 12 7 8613.480 8949.350 599.092 1.977 o
4 12 8 344.121 180.854 121.128 83.005 o
4 13 4 0.463 -46.881 105.165 133.441 o
4 13 5 1199.090 932.573 428.678 7.406 o
4 13 6 5045.760 4605.820 451.035 4.263 o
4 14 4 68.333 25.034 103.050 132.423 o
5 0 5 51575.100 53499.400 1473.260 0.109 o
5 0 7 8914.990 9416.870 562.138 2.015 o
5 0 9 3991.560 3868.100 190.209 10.821 o
5 0 11 15237.600 15121.100 1034.670 0.690 o
5 0 13 1822.550 1794.880 398.024 7.813 o
5 1 5 2575.600 3204.140 183.703 16.143 o
5 1 6 16775.900 16971.700 429.569 0.998 o
5 1 7 1551.710 1519.860 131.307 35.565 o
5 1 8 815.694 873.559 79.968 85.896 o
5 1 9 3407.510 3374.570 176.623 13.437 o
5 1 10 13186.500 12061.900 449.501 1.505 o
5 1 11 16.535 26.657 83.870 204.277 o
5 1 12 7976.380 7713.150 546.363 2.370 o
5 1 13 1107.410 1194.570 337.660 11.349 o
5 1 14 138.540 4.949 103.713 126.248 o
5 2 5 11609.600 11060.900 402.110 1.861 o
5 2 6 459.619 340.852 190.523 35.978 o
5 2 7 1834.940 1610.330 203.385 20.904 o
5 2 8 6056.580 5952.660 245.144 5.618 o
5 2 9 4363.550 4175.310 264.489 7.975 o
5 2 10 1864.250 1826.240 182.922 22.741 o
5 2 11 3655.980 3916.030 278.657 8.709 o
5 2 12 1068.870 1114.280 240.041 20.303 o
5 2 13 918.536 1071.150 207.248 26.360 o
5 3 5 780.608 851.979 176.376 35.652 o
5 3 6 2240.330 2245.340 236.091 15.168 o
5 3 7 1915.560 1809.960 219.626 18.362 o
5 3 8 0.360 59.029 49.038 568.372 o
5 3 9 11421.500 12096.000 465.286 1.696 o
5 3 10 3299.490 3422.470 257.554 10.326 o
5 3 11 245.869 303.119 91.394 132.117 o
5 3 12 356.072 390.361 99.882 105.148 o
5 3 13 3354.690 3516.200 390.128 6.382 o
5 4 5 33.865 -44.330 90.546 175.385 o
5 4 6 2884.080 3229.800 282.075 10.232 o
5 4 7 12.643 8.356 55.279 466.601 o
5 4 8 10767.600 10498.800 557.865 1.698 o
5 4 9 1964.530 2145.500 204.918 18.977 o
5 4 10 1383.530 1456.510 173.820 28.591 o
5 4 11 134.554 183.574 61.569 277.050 o
5 4 12 5946.590 5874.420 371.461 4.407 o
5 4 13 53.584 -113.899 224.478 29.095 o
5 5 5 374.456 500.900 141.478 59.757 o
5 5 6 587.181 682.866 197.126 31.866 o
5 5 7 11181.500 11262.600 786.616 1.202 o
5 5 8 76.728 114.125 86.773 175.397 o
5 5 9 6784.800 7585.520 392.106 3.514 o
5 5 10 238.083 62.100 59.094 276.401 o
5 5 11 844.565 671.936 159.066 41.793 o
5 5 12 4.603 43.077 88.193 185.775 o
5 5 13 9468.080 9371.650 499.078 2.123 o
5 6 5 2654.710 2945.570 379.160 7.366 o
5 6 6 5147.860 4612.180 499.888 3.726 o
5 6 7 13.463 -108.466 108.466 124.562 o
5 6 8 9156.600 9052.690 763.980 1.471 o
5 6 9 1699.240 1481.230 273.524 14.618 o
5 6 10 731.781 689.599 151.732 46.187 o
5 6 11 1207.310 1111.660 208.281 24.534 o
5 6 12 3473.650 3596.390 374.274 6.616 o
5 7 5 6.522 -88.659 114.125 112.978 o
5 7 6 3332.930 2931.420 406.513 6.233 o
5 7 7 5115.610 4725.360 535.729 3.400 o
5 7 8 399.813 193.385 126.387 75.376 o
5 7 9 6079.450 5152.610 535.729 3.105 o
5 7 10 3065.660 2963.660 328.856 8.487 o
5 7 11 6.078 -35.963 251.830 23.263 o
5 7 12 1133.630 1523.650 254.607 17.717 o
5 8 5 7766.140 8779.170 691.355 1.804 o
5 8 6 1196.070 903.571 239.569 20.292 o
5 8 7 1057.890 867.730 236.739 21.231 o
5 8 8 4475.940 3869.800 361.208 6.039 o
5 8 9 1407.400 1402.790 231.637 19.674 o
5 8 10 778.671 593.661 157.958 43.573 o
5 8 11 4303.020 4492.690 426.675 4.919 o
5 9 5 3.756 12.261 80.171 227.435 o
5 9 6 9717.110 9767.630 785.673 1.355 o
5 9 7 1972.050 2106.130 379.160 8.231 o
5 9 8 119.925 82.559 204.671 34.357 o
5 9 9 1490.990 1106.940 212.372 22.506 o
5 9 10 5524.170 4756.750 437.274 4.186 o
5 10 5 15070.100 14964.600 961.106 0.749 o
5 10 6 20.480 87.716 122.614 95.531 o
5 10 7 3495.600 3500.230 358.810 6.991 o
5 10 8 154.563 58.255 74.655 216.858 o
5 10 9 2964.160 2889.080 340.521 8.263 o
5 10 10 104.710 52.555 185.336 41.918 o
5 11 5 42.840 75.455 94.319 156.670 o
5 11 6 8268.340 7924.760 536.836 2.336 o
5 11 7 2695.600 2827.840 333.436 8.816 o
5 11 8 408.214 106.539 112.711 92.083 o
5 12 5 5111.010 4982.100 444.081 4.237 o
5 12 6 690.120 553.936 220.234 26.200 o
5 12 7 1150.020 921.738 207.763 25.421 o
5 13 5 78.326 121.500 72.987 236.183 o
5 13 6 340.926 290.048 96.824 114.435 o
6 0 6 19262.900 18955.400 582.605 0.742 o
6 0 8 10609.400 10635.600 746.060 1.331 o
6 0 10 1232.810 1213.880 304.649 13.350 o
6 0 12 3968.130 3851.030 564.968 3.527 o
6 1 6 87.966 43.983 45.531 527.729 o
6 1 7 6406.030 6687.460 297.425 4.619 o
6 1 8 108.234 48.768 36.776 661.598 o
6 1 9 12.703 24.574 31.656 1269.420 o
6 1 10 598.202 546.896 102.170 85.040 o
6 1 11 7979.310 9176.020 591.170 2.078 o
6 1 12 46.769 205.296 121.195 94.129 o
6 1 13 4520.590 4780.470 465.427 4.271 o
6 2 6 12845.500 12331.600 397.298 1.602 o
6 2 7 675.963 501.032 135.932 56.945 o
6 2 8 6502.330 6547.400 447.681 3.412 o
6 2 9 6575.480 6937.900 478.974 3.122 o
6 2 10 1015.750 966.937 138.598 45.029 o
6 2 11 1404.870 1324.660 167.402 30.234 o
6 2 12 5059.880 4418.830 432.160 4.513 o
6 2 13 778.974 694.443 188.317 32.868 o
6 3 6 2647.460 2519.230 257.456 12.471 o
6 3 7 3587.090 3240.450 306.411 8.419 o
6 3 8 4076.090 4243.300 363.122 6.159 o
6 3 9 678.633 459.977 126.358 63.521 o
6 3 10 5256.820 5706.380 342.214 5.166 o
6 3 11 1654.180 1312.860 168.534 28.036 o
6 3 12 0.714 -44.487 106.471 130.170 o
6 3 13 1891.190 2001.790 305.207 11.670 o
6 4 6 2745.460 2771.020 274.092 11.197 o
6 4 7 3345.180 3484.960 321.103 8.129 o
6 4 8 137.284 55.498 68.967 251.931 o
6 4 9 13477.500 13752.800 685.205 1.105 o
6 4 10 1170.880 1183.490 213.468 23.675 o
6 4 11 1031.280 852.583 142.898 44.054 o
6 4 12 1032.030 896.453 153.385 40.028 o
6 5 6 160.453 192.410 128.273 81.060 o
6 5 7 41.655 65.080 81.114 208.994 o
6 5 8 10905.100 11326.700 858.299 1.110 o
6 5 9 67.324 57.534 135.819 77.381 o
6 5 10 7778.470 7954.750 427.013 2.935 o
6 5 11 41.795 57.374 55.702 414.435 o
6 5 12 627.697 376.987 99.417 90.657 o
6 6 6 3563.270 3691.630 464.047 4.890 o
6 6 7 4599.620 4698.950 544.218 3.462 o
6 6 8 12.236 160.341 154.682 60.174 o
6 6 9 12961.700 12099.100 629.540 1.273 o
6 6 10 185.937 136.861 85.001 164.651 o
6 6 11 1621.430 1643.960 252.678 16.390 o
6 6 12 864.779 645.677 164.049 39.889 o
6 7 6 251.930 129.216 118.841 90.431 o
6 7 7 4542.800 4534.830 542.332 3.515 o
6 7 8 5367.860 5500.660 626.275 2.631 o
6 7 9 89.566 46.037 64.716 299.420 o
6 7 10 3403.040 3211.600 343.737 7.581 o
6 7 11 4084.550 3679.690 384.319 5.955 o
6 8 6 13273.000 12603.800 887.537 0.926 o
6 8 7 210.197 34.898 91.489 148.854 o
6 8 8 2680.600 3081.390 481.024 5.090 o
6 8 9 1102.380 1159.900 278.240 15.840 o
6 8 10 1024.920 811.241 188.122 30.647 o
6 9 6 335.337 524.411 197.126 34.084 o
6 9 7 6699.990 6698.500 685.696 2.068 o
6 9 8 29.263 126.602 74.512 239.692 o
6 9 9 0.050 29.239 83.367 209.567 o
6 9 10 174.639 92.142 82.316 178.438 o
6 10 6 8909.160 9197.940 801.707 1.402 o
6 10 7 610.866 497.059 194.296 33.132 o
6 10 8 1766.250 1750.980 265.105 14.827 o
6 10 9 592.169 510.714 157.134 47.038 o
6 11 6 597.348 799.821 255.603 20.092 o
6 11 7 3789.340 4307.500 720.594 2.381 o
6 11 8 926.056 787.190 186.660 31.836 o
6 12 6 1434.530 1503.600 250.815 17.292 o
7 0 7 4721.050 4420.010 308.815 6.561 o
7 0 9 2555.850 3206.830 475.365 5.211 o
7 0 11 2092.530 2390.970 453.672 6.000 o
7 1 7 89.519 3.952 44.983 562.770 o
7 1 8 12097.600 12779.600 368.662 1.714 o
7 1 9 833.458 814.290 178.540 34.702 o
7 1 10 281.957 123.897 91.489 136.962 o
7 1 11 82.107 116.218 82.267 191.743 o
7 1 12 3795.390 4226.520 877.162 1.698 o
7 2 7 8235.350 8235.510 502.994 2.448 o
7 2 8 2013.270 2001.940 256.766 14.568 o
7 2 9 3342.680 3159.150 338.127 7.818 o
7 2 10 4015.930 4299.260 300.393 7.487 o
7 2 11 1069.180 1155.160 228.103 21.911 o
7 2 12 97.204 145.859 149.023 63.230 o
7 3 7 222.778 190.974 80.438 169.988 o
7 3 8 6538.480 6517.640 475.365 3.216 o
7 3 9 6231.910 6168.620 475.671 3.355 o
7 3 10 207.460 -36.409 75.290 208.773 o
7 3 11 3744.450 4006.230 413.016 5.550 o
7 3 12 2768.950 2774.970 358.898 7.934 o
7 4 7 2613.890 2778.190 299.774 10.258 o
7 4 8 1973.780 1813.740 254.302 15.091 o
7 4 9 898.726 524.861 137.592 51.351 o
7 4 10 11095.900 11218.700 510.126 1.711 o
7 4 11 150.718 203.184 73.743 206.069 o
7 4 12 2112.200 2072.840 311.460 10.956 o
7 5 7 1153.360 1171.440 286.728 14.957 o
7 5 8 17.744 -48.102 99.978 146.023 o
7 5 9 12285.600 12205.800 955.447 0.905 o
7 5 10 89.308 -57.470 88.188 176.538 o
7 5 11 7575.660 6663.510 645.610 2.115 o
7 6 7 2714.380 2130.660 372.558 7.838 o
7 6 8 1800.570 1424.210 329.172 10.884 o
7 6 9 1151.070 1408.180 334.831 11.348 o
7 6 10 8638.830 8432.150 558.040 2.148 o
7 6 11 176.667 82.518 91.017 151.231 o
7 7 7 309.330 188.637 145.251 61.594 o
7 7 8 6132.720 5601.580 645.139 2.400 o
7 7 9 1916.820 1394.970 338.603 10.287 o
7 7 10 292.037 137.085 75.177 180.312 o
7 8 7 8885.190 8587.700 779.071 1.477 o
7 8 8 98.593 -27.352 124.500 91.419 o
7 8 9 2527.430 2141.120 346.149 8.903 o
7 8 10 724.045 788.365 188.408 32.903 o
7 9 7 235.025 -49.989 145.251 65.037 o
7 9 8 6440.200 6723.970 735.684 1.906 o
7 9 9 104.102 163.129 70.707 236.296 o
7 10 7 5034.810 5391.250 650.798 2.549 o
7 10 8 53.449 10.375 128.273 87.688 o
7 11 7 471.414 227.308 125.444 73.504 o
8 0 8 16848.700 17507.900 651.765 0.842 o
8 0 10 2179.770 2361.740 452.729 5.989 o
8 1 8 138.893 60.249 47.888 431.114 o
8 1 9 9342.160 9412.380 602.658 1.837 o
8 1 10 1226.880 1197.100 222.151 22.054 o
8 1 11 34.487 134.674 121.664 95.416 o
8 2 8 9898.510 10545.200 615.200 1.669 o
8 2 9 2094.090 1997.320 315.495 10.831 o
8 2 10 3592.080 3518.930 508.848 4.291 o
8 2 11 3577.200 3505.400 400.785 6.022 o
8 3 8 463.982 451.833 139.762 59.553 o
8 3 9 3466.670 3099.470 349.133 7.431 o
8 3 10 5714.760 5447.800 478.955 3.602 o
8 3 11 1.553 100.286 85.606 192.631 o
8 4 8 956.587 973.247 233.438 21.897 o
8 4 9 1959.370 2074.930 293.307 12.187 o
8 4 10 164.552 127.865 174.018 46.371 o
8 4 11 6363.990 7639.100 610.712 2.372 o
8 5 8 153.672 -34.898 137.705 73.860 o
8 5 9 13.318 132.046 153.739 61.117 o
8 5 10 4476.090 4734.790 643.252 2.730 o
8 6 8 2345.290 2390.970 426.320 6.513 o
8 6 9 407.489 646.082 226.364 25.963 o
8 6 10 1373.280 1261.290 232.967 19.891 o
8 7 8 231.977 238.626 175.432 44.410 o
8 7 9 2571.050 2320.240 445.183 5.982 o
8 8 8 4212.960 4431.080 596.093 3.142 o
8 8 9 512.313 333.888 199.012 32.976 o
8 9 8 519.925 306.535 152.796 51.881 o
9 0 9 13331.500 13013.100 1042.220 0.772 o
9 1 9 83.189 111.250 159.870 55.749 o
9 1 10 9841.460 9825.520 661.780 1.606 o
9 2 9 7206.740 7310.900 556.337 2.508 o
9 2 10 938.182 290.051 251.359 20.450 o
9 3 9 319.728 373.668 137.110 65.631 o
9 3 10 744.029 825.388 206.931 28.070 o
9 4 9 19.585 141.478 147.137 66.374 o
9 4 10 985.717 891.310 296.160 14.689 o
9 5 9 92.977 137.705 102.807 126.713 o
9 6 9 982.851 1603.410 382.933 9.018 o
;
_olex2_submission_special_instructions 'No special instructions were received'
loop_
_space_group_symop_id
_space_group_symop_operation_xyz
1 x,y,z
2 -x+1/2,y+1/2,-z+1/2
3 -x,-y,-z
4 x-1/2,-y-1/2,z-1/2
loop_
_atom_site_label
_atom_site_type_symbol
_atom_site_fract_x
_atom_site_fract_y
_atom_site_fract_z
_atom_site_U_iso_or_equiv
_atom_site_adp_type
_atom_site_occupancy
_atom_site_refinement_flags_posn
_atom_site_refinement_flags_adp
Eu1 Eu 0.59068(3) 0.05284(2) 0.91193(2) 0.01748(15) Uani 1.000000 . .
Cl1 Cl 0.80191(13) 0.13799(12) 0.92281(13) 0.0212(4) Uani 1.000000 . .
O11 O 0.4632(4) -0.0699(4) 0.8332(4) 0.0334(13) Uani 1.000000 . .
O12 O 0.3499(4) -0.1124(4) 0.9245(4) 0.0313(13) Uani 1.000000 . .
O13 O 0.2033(4) -0.4072(4) 0.4728(4) 0.0315(13) Uani 1.000000 . .
O14 O 0.0688(4) -0.4140(4) 0.5418(4) 0.0247(11) Uani 1.000000 . U
C11 C 0.3214(6) -0.1795(5) 0.7643(5) 0.0231(16) Uani 1.000000 . .
C12 C 0.3443(6) -0.1785(6) 0.6728(5) 0.0315(19) Uani 1.000000 . .
H12 H 0.3947(6) -0.1339(6) 0.6603(5) 0.038(2) Uiso 1.000000 R .
C13 C 0.2922(6) -0.2436(6) 0.6008(5) 0.0318(18) Uani 1.000000 . .
H13 H 0.3102(6) -0.2449(6) 0.5407(5) 0.038(2) Uiso 1.000000 R .
C14 C 0.2131(6) -0.3076(5) 0.6162(5) 0.0225(16) Uani 1.000000 . .
C15 C 0.1877(6) -0.3061(6) 0.7063(5) 0.0285(17) Uani 1.000000 . .
H15 H 0.1338(6) -0.3475(6) 0.7171(5) 0.034(2) Uiso 1.000000 R .
C16 C 0.2425(6) -0.2428(6) 0.7806(5) 0.0276(17) Uani 1.000000 . .
H16 H 0.2262(6) -0.2429(6) 0.8414(5) 0.033(2) Uiso 1.000000 R .
C17 C 0.3843(6) -0.1151(5) 0.8475(5) 0.0262(17) Uani 1.000000 . .
C18 C 0.1598(6) -0.3797(5) 0.5394(5) 0.0246(15) Uani 1.000000 . U
O21 O 0.5573(5) 0.2475(4) 0.9137(4) 0.0371(13) Uani 1.000000 . .
O22 O 0.7098(5) 0.3293(5) 0.9756(5) 0.0551(18) Uani 1.000000 . .
C21 C 0.5522(7) 0.4159(6) 0.9767(6) 0.0347(19) Uani 1.000000 . .
C22 C 0.6091(8) 0.4918(7) 1.0379(7) 0.046(2) Uani 1.000000 . .
H22 H 0.6816(8) 0.4857(7) 1.0633(7) 0.055(3) Uiso 1.000000 R .
C23 C 0.4442(7) 0.4249(7) 0.9407(7) 0.045(2) Uani 1.000000 . .
H23 H 0.4072(7) 0.3737(7) 0.9012(7) 0.054(3) Uiso 1.000000 R .
C24 C 0.6068(7) 0.3214(6) 0.9518(6) 0.0350(19) Uani 1.000000 . .
O31 O 0.6415(4) -0.0134(4) 0.7607(4) 0.0294(12) Uani 1.000000 . .
O32 O 0.5272(4) 0.1113(4) 0.7444(4) 0.0313(12) Uani 1.000000 . .
C31 C 0.5351(6) 0.0203(6) 0.5996(5) 0.0247(16) Uani 1.000000 . .
C32 C 0.5795(7) -0.0557(6) 0.5583(6) 0.038(2) Uani 1.000000 . .
H32 H 0.6334(7) -0.0944(6) 0.5971(6) 0.045(3) Uiso 1.000000 R .
C33 C 0.4549(7) 0.0766(7) 0.5421(6) 0.038(2) Uani 1.000000 . .
H33 H 0.4235(7) 0.1286(7) 0.5698(6) 0.046(2) Uiso 1.000000 R .
C34 C 0.5704(6) 0.0417(6) 0.7081(5) 0.0240(16) Uani 1.000000 . .
N1 N 0.9367(10) 0.0782(12) 0.7383(9) 0.094(4) Uani 1.000000 . .
N2 N 0.9576(10) -0.0620(9) 0.8211(11) 0.098(4) Uani 1.000000 . U
C1 C 0.8899(10) -0.0003(12) 0.7676(11) 0.078(4) Uani 1.000000 . .
H1 H 0.8171(10) -0.0103(12) 0.7519(11) 0.094(5) Uiso 1.000000 R .
C2 C 1.0433(13) 0.0623(15) 0.7751(12) 0.099(5) Uani 1.000000 . .
H2 H 1.0976(13) 0.1043(15) 0.7664(12) 0.119(6) Uiso 1.000000 R .
C3 C 1.0539(11) -0.0225(13) 0.8242(13) 0.094(5) Uani 1.000000 . .
H3 H 1.1179(11) -0.0515(13) 0.8566(13) 0.113(6) Uiso 1.000000 R .
C4 C 0.873(2) 0.177(2) 0.6784(13) 0.216(13) Uani 1.000000 . .
H4a H 0.923(2) 0.225(2) 0.6647(13) 0.32(2) Uiso 1.000000 R .
H4b H 0.827(2) 0.154(2) 0.6179(13) 0.32(2) Uiso 1.000000 R .
H4c H 0.832(2) 0.209(2) 0.7179(13) 0.32(2) Uiso 1.000000 R .
C5 C 0.939(2) -0.1541(16) 0.893(3) 0.242(11) Uani 1.000000 D U
H5a H 1.001(2) -0.1722(16) 0.944(3) 0.290(13) Uiso 1.000000 R .
H5b H 0.878(2) -0.1439(16) 0.921(3) 0.290(13) Uiso 1.000000 R .
C6 C 0.918(5) -0.220(4) 0.809(3) 0.43(3) Uani 1.000000 D U
H6a H 0.903(5) -0.287(4) 0.827(3) 0.64(4) Uiso 1.000000 R .
H6b H 0.859(5) -0.194(4) 0.760(3) 0.64(4) Uiso 1.000000 R .
H6c H 0.979(5) -0.222(4) 0.782(3) 0.64(4) Uiso 1.000000 R .
loop_
_atom_site_aniso_label
_atom_site_aniso_U_11
_atom_site_aniso_U_22
_atom_site_aniso_U_33
_atom_site_aniso_U_12
_atom_site_aniso_U_13
_atom_site_aniso_U_23
Eu1 0.0196(2) 0.0187(2) 0.0124(2) 0.00009(14) 0.00055(15) -0.00033(14)
Cl1 0.0160(8) 0.0223(8) 0.0287(9) -0.0050(7) 0.0117(7) -0.0112(7)
O11 0.031(3) 0.045(3) 0.024(3) -0.017(3) 0.006(2) -0.012(3)
O12 0.039(3) 0.039(3) 0.016(3) -0.012(3) 0.006(2) -0.007(2)
O13 0.038(3) 0.033(3) 0.024(3) -0.014(3) 0.010(2) -0.016(2)
O14 0.024(2) 0.025(2) 0.023(3) -0.011(2) 0.003(2) -0.003(2)
C11 0.025(4) 0.026(4) 0.016(3) -0.004(3) 0.000(3) -0.007(3)
C12 0.037(5) 0.035(4) 0.025(4) -0.021(4) 0.011(4) -0.009(4)
C13 0.040(5) 0.037(4) 0.018(4) -0.013(4) 0.005(3) -0.008(3)
C14 0.024(4) 0.021(3) 0.018(4) -0.008(3) -0.003(3) -0.002(3)
C15 0.029(4) 0.030(4) 0.030(4) -0.011(3) 0.013(3) -0.004(4)
C16 0.033(4) 0.032(4) 0.017(4) -0.012(4) 0.006(3) -0.007(3)
C17 0.033(4) 0.023(4) 0.021(4) -0.007(3) 0.002(3) -0.009(3)
C18 0.023(3) 0.026(4) 0.021(4) -0.001(3) -0.003(3) 0.003(3)
O21 0.042(3) 0.020(3) 0.047(3) -0.009(3) 0.004(3) -0.006(3)
O22 0.040(4) 0.042(4) 0.084(5) -0.011(3) 0.018(4) -0.020(4)
C21 0.046(5) 0.020(4) 0.038(5) -0.006(4) 0.010(4) -0.005(4)
C22 0.040(5) 0.033(5) 0.062(6) -0.001(4) 0.004(5) -0.010(5)
C23 0.045(5) 0.037(5) 0.046(5) -0.012(4) -0.004(4) -0.023(4)
C24 0.040(5) 0.032(4) 0.034(4) -0.006(4) 0.010(4) 0.003(4)
O31 0.028(3) 0.041(3) 0.018(3) 0.004(3) 0.004(2) -0.004(2)
O32 0.042(3) 0.034(3) 0.019(3) 0.012(3) 0.011(2) 0.003(2)
C31 0.024(4) 0.031(4) 0.017(4) -0.001(3) 0.002(3) 0.001(3)
C32 0.041(5) 0.047(5) 0.022(4) 0.019(4) 0.002(4) -0.006(4)
C33 0.042(5) 0.047(5) 0.024(4) 0.018(4) 0.006(4) -0.006(4)
C34 0.023(4) 0.031(4) 0.018(4) -0.001(3) 0.005(3) 0.004(3)
N1 0.078(8) 0.135(11) 0.073(8) 0.000(8) 0.027(7) -0.037(8)
N2 0.072(8) 0.076(7) 0.140(12) 0.006(7) 0.012(8) -0.034(7)
C1 0.047(7) 0.095(10) 0.091(10) 0.008(8) 0.012(7) -0.040(9)
C2 0.072(10) 0.120(14) 0.099(12) -0.011(10) 0.007(9) -0.030(11)
C3 0.050(8) 0.089(10) 0.137(15) 0.009(8) 0.009(9) -0.012(11)
C4 0.34(4) 0.24(3) 0.077(12) 0.11(3) 0.064(17) 0.063(16)
C5 0.21(3) 0.091(14) 0.47(3) 0.051(16) 0.16(3) 0.096(16)
C6 0.43(3) 0.43(3) 0.43(3) -0.000(2) 0.104(4) -0.000(2)
loop_
_atom_type_symbol
_atom_type_scat_dispersion_real
_atom_type_scat_dispersion_imag
_atom_type_scat_Cromer_Mann_a1
_atom_type_scat_Cromer_Mann_a2
_atom_type_scat_Cromer_Mann_a3
_atom_type_scat_Cromer_Mann_a4
_atom_type_scat_Cromer_Mann_b1
_atom_type_scat_Cromer_Mann_b2
_atom_type_scat_Cromer_Mann_b3
_atom_type_scat_Cromer_Mann_b4
_atom_type_scat_Cromer_Mann_c
_atom_type_scat_source
_atom_type_scat_dispersion_source
C 0.00347 0.00161 2.31000 1.02000 1.58860 0.86500 20.84390 10.20750 0.56870
51.65120 0.215599998832
'International Tables Volume C Table 6.1.1.4 (pp. 500-502)'
'Henke, Gullikson and Davis, At. Data and Nucl. Data Tables, 1993, 54, 2'
Cl 0.14873 0.16029 11.46040 7.19640 6.25560 1.64550 0.01040 1.16620 18.51940
47.77840 -9.55739974976
'International Tables Volume C Table 6.1.1.4 (pp. 500-502)'
'Henke, Gullikson and Davis, At. Data and Nucl. Data Tables, 1993, 54, 2'
H 0.00000 0.00000 0.49300 0.32291 0.14019 0.04081 10.51090 26.12570 3.14236
57.79970 0.0030380000826
'International Tables Volume C Table 6.1.1.4 (pp. 500-502)'
'Henke, Gullikson and Davis, At. Data and Nucl. Data Tables, 1993, 54, 2'
O 0.01158 0.00611 3.04850 2.28680 1.54630 0.86700 13.27710 5.70110 0.32390
32.90890 0.250800013542
'International Tables Volume C Table 6.1.1.4 (pp. 500-502)'
'Henke, Gullikson and Davis, At. Data and Nucl. Data Tables, 1993, 54, 2'
N 0.00653 0.00323 12.21260 3.13220 2.01250 1.16630 0.00570 9.89330 28.99750
0.58260 -11.5290002823
'International Tables Volume C Table 6.1.1.4 (pp. 500-502)'
'Henke, Gullikson and Davis, At. Data and Nucl. Data Tables, 1993, 54, 2'
Eu -0.00847 3.77655 24.62740 19.08860 13.76030 2.92270 2.38790 0.19420 13.75460
123.17400 2.57450008392
'International Tables Volume C Table 6.1.1.4 (pp. 500-502)'
'Henke, Gullikson and Davis, At. Data and Nucl. Data Tables, 1993, 54, 2'
loop_
_geom_angle_atom_site_label_1
_geom_angle_atom_site_label_2
_geom_angle_atom_site_label_3
_geom_angle
_geom_angle_site_symmetry_1
_geom_angle_site_symmetry_3
O11 Eu1 Cl1 144.98(13) . .
O12 Eu1 Cl1 75.12(13) 3_657 .
O12 Eu1 O11 134.31(18) 3_657 .
O13 Eu1 Cl1 78.66(14) 4_656 .
O13 Eu1 O11 85.7(2) 4_656 .
O13 Eu1 O12 83.81(19) 4_656 3_657
O14 Eu1 Cl1 118.91(11) 4_656 .
O14 Eu1 Cl1 142.23(13) 2_556 .
O14 Eu1 O11 72.03(18) 2_556 .
O14 Eu1 O11 70.93(17) 4_656 .
O14 Eu1 O12 67.91(17) 4_656 3_657
O14 Eu1 O12 77.01(18) 2_556 3_657
O14 Eu1 O13 122.91(17) 2_556 4_656
O14 Eu1 O13 51.21(16) 4_656 4_656
C18 Eu1 Cl1 96.88(15) 4_656 .
C18 Eu1 O11 80.4(2) 4_656 .
C18 Eu1 O12 71.42(19) 4_656 3_657
C18 Eu1 O13 25.48(18) 4_656 4_656
C18 Eu1 O14 97.84(19) 4_656 2_556
C18 Eu1 O14 26.13(18) 4_656 4_656
O21 Eu1 Cl1 77.41(13) . .
O21 Eu1 O11 124.81(19) . .
O21 Eu1 O12 71.44(18) . 3_657
O21 Eu1 O13 149.15(19) . 4_656
O21 Eu1 O14 69.85(18) . 2_556
O21 Eu1 O14 128.81(17) . 4_656
O21 Eu1 C18 142.63(19) . 4_656
O31 Eu1 Cl1 74.99(12) . .
O31 Eu1 O11 70.95(18) . .
O31 Eu1 O12 146.78(17) . 3_657
O31 Eu1 O13 76.43(17) . 4_656
O31 Eu1 O14 136.21(17) . 2_556
O31 Eu1 O14 115.88(16) . 4_656
O31 Eu1 C18 98.23(19) . 4_656
O31 Eu1 O21 115.22(18) . .
O32 Eu1 Cl1 91.38(14) . .
O32 Eu1 O11 74.29(19) . .
O32 Eu1 O12 142.24(19) . 3_657
O32 Eu1 O13 128.62(17) . 4_656
O32 Eu1 O14 145.13(18) . 4_656
O32 Eu1 O14 95.35(17) . 2_556
O32 Eu1 C18 146.13(19) . 4_656
O32 Eu1 O21 71.24(18) . .
O32 Eu1 O31 52.44(17) . .
C34 Eu1 Cl1 85.83(15) . .
C34 Eu1 O11 67.1(2) . .
C34 Eu1 O12 158.47(19) . 3_657
C34 Eu1 O13 102.44(19) . 4_656
C34 Eu1 O14 131.84(18) . 4_656
C34 Eu1 O14 114.71(19) . 2_556
C34 Eu1 C18 121.7(2) . 4_656
C34 Eu1 O21 94.95(19) . .
C34 Eu1 O31 26.68(18) . .
C34 Eu1 O32 26.18(19) . .
C17 O11 Eu1 139.2(5) . .
C17 O12 Eu1 137.3(5) . 3_657
C18 O13 Eu1 98.3(4) . 4
C18 O14 Eu1 163.0(5) . 2_546
C18 O14 Eu1 88.2(4) . 4
C16 C11 C12 119.6(6) . .
C17 C11 C12 120.8(6) . .
C17 C11 C16 119.6(6) . .
C13 C12 C11 119.8(7) . .
C14 C13 C12 121.1(7) . .
C15 C14 C13 119.1(6) . .
C18 C14 C13 120.7(6) . .
C18 C14 C15 120.1(6) . .
C16 C15 C14 120.1(7) . .
C15 C16 C11 120.2(6) . .
O12 C17 O11 127.0(7) . .
C11 C17 O11 117.1(6) . .
C11 C17 O12 115.9(6) . .
O13 C18 Eu1 56.3(4) . 4
O14 C18 Eu1 65.7(4) . 4
O14 C18 O13 120.5(6) . .
C14 C18 Eu1 167.2(5) . 4
C14 C18 O13 120.6(6) . .
C14 C18 O14 118.9(6) . .
C24 O21 Eu1 136.0(6) . .
C23 C21 C22 120.2(8) . .
C24 C21 C22 121.0(8) . .
C24 C21 C23 118.8(7) . .
C23 C22 C21 118.7(8) 3_667 .
C22 C23 C21 121.1(8) 3_667 .
O22 C24 O21 125.4(8) . .
C21 C24 O21 121.9(8) . .
C21 C24 O22 112.8(7) . .
C34 O31 Eu1 89.4(4) . .
C34 O32 Eu1 94.7(4) . .
C33 C31 C32 119.3(7) . .
C34 C31 C32 121.0(7) . .
C34 C31 C33 119.7(7) . .
C33 C32 C31 120.8(8) 3_656 .
C32 C33 C31 119.9(7) 3_656 .
O31 C34 Eu1 64.0(4) . .
O32 C34 Eu1 59.1(4) . .
O32 C34 O31 121.5(7) . .
C31 C34 Eu1 165.5(5) . .
C31 C34 O31 118.9(6) . .
C31 C34 O32 119.5(7) . .
C2 N1 C1 105.5(15) . .
C4 N1 C1 124.1(16) . .
C4 N1 C2 130.2(18) . .
C3 N2 C1 106.1(14) . .
C5 N2 C1 129.6(16) . .
C5 N2 C3 122.9(17) . .
N2 C1 N1 111.7(13) . .
C3 C2 N1 107.2(16) . .
C2 C3 N2 109.5(15) . .
C6 C5 N2 88(3) . .
loop_
_geom_bond_atom_site_label_1
_geom_bond_atom_site_label_2
_geom_bond_distance
_geom_bond_site_symmetry_2
Eu1 Cl1 2.9452(16) .
Eu1 O11 2.387(5) .
Eu1 O12 2.373(5) 3_657
Eu1 O13 2.438(5) 4_656
Eu1 O14 2.367(5) 2_556
Eu1 O14 2.645(5) 4_656
Eu1 C18 2.902(7) 4_656
Eu1 O21 2.597(5) .
Eu1 O31 2.530(5) .
Eu1 O32 2.424(5) .
Eu1 C34 2.815(7) .
O11 C17 1.247(9) .
O12 C17 1.268(9) .
O13 C18 1.261(9) .
O14 C18 1.278(9) .
C11 C12 1.390(10) .
C11 C16 1.386(10) .
C11 C17 1.513(9) .
C12 C13 1.372(10) .
C13 C14 1.389(10) .
C14 C15 1.384(10) .
C14 C18 1.478(10) .
C15 C16 1.390(10) .
O21 C24 1.216(9) .
O22 C24 1.309(10) .
C21 C22 1.407(12) .
C21 C23 1.382(12) .
C21 C24 1.515(12) .
C22 C23 1.370(12) 3_667
O31 C34 1.264(9) .
O32 C34 1.246(9) .
C31 C32 1.353(11) .
C31 C33 1.374(11) .
C31 C34 1.508(10) .
C32 C33 1.400(11) 3_656
N1 C1 1.316(18) .
N1 C2 1.377(18) .
N1 C4 1.66(2) .
N2 C1 1.296(18) .
N2 C3 1.350(17) .
N2 C5 1.64(3) .
C2 C3 1.30(2) .
C5 C6 1.446(19) .
loop_
_restr_distance_atom_site_label_1
_restr_distance_atom_site_label_2
_restr_distance_site_symmetry_2
_restr_distance_target
_restr_distance_target_weight_param
_restr_distance_diff
C5 C6 1 1.5000 0.0200 0.0537
loop_
_restr_u_iso_atom_site_label
_restr_u_iso_weight_param
C6 0.0040
loop_
_restr_u_rigid_atom_site_label_1
_restr_u_rigid_atom_site_label_2
_restr_u_rigid_target_weight_param
_restr_u_rigid_u_parallel
_restr_u_rigid_diff
O14 C18 0.0040 0.0228 -0.0069
N2 C5 0.0100 0.1440 0.0012
C5 C6 0.0040 0.4242 -0.0015
