#------------------------------------------------------------------------------
#$Date: 2019-11-24 05:34:54 +0200 (Sun, 24 Nov 2019) $
#$Revision: 236841 $
#$URL: file:///home/coder/svn-repositories/cod/cif/7/70/21/7702194.cif $
#------------------------------------------------------------------------------
#
# This file is available in the Crystallography Open Database (COD),
# http://www.crystallography.net/
#
# All data on this site have been placed in the public domain by the
# contributors.
#
data_7702194
loop_
_publ_author_name
'Li, Yuan-Han'
'Wang, Sue-Lein'
'Su, Yu-Chia'
'Ko, Bao-Tsan'
'Tsai, Chen-Yen'
'Lin, Chia-Her'
_publ_section_title
;
 Microporous 2D indium metal-organic frameworks for selective
 CO<sub>2</sub> capture and their application in the catalytic
 CO<sub>2</sub>-cycloaddition of epoxides.
;
_journal_issue                   28
_journal_name_full
'Dalton transactions (Cambridge, England : 2003)'
_journal_page_first              9474
_journal_page_last               9481
_journal_paper_doi               10.1039/c8dt01405a
_journal_volume                  47
_journal_year                    2018
_chemical_formula_sum            'C70 H40 Cl2 In3 O20'
_chemical_formula_weight         1616.38
_space_group_crystal_system      orthorhombic
_space_group_IT_number           18
_space_group_name_Hall           'P 2 2ab'
_space_group_name_H-M_alt        'P 21 21 2'
_atom_sites_solution_hydrogens   geom
_audit_creation_method           SHELXL-2014/7
_audit_update_record
;
2018-06-07 deposited with the CCDC.
2018-06-13 downloaded from the CCDC.
;
_cell_angle_alpha                90
_cell_angle_beta                 90
_cell_angle_gamma                90
_cell_formula_units_Z            4
_cell_length_a                   29.6876(5)
_cell_length_b                   33.7481(5)
_cell_length_c                   9.44870(10)
_cell_measurement_reflns_used    16405
_cell_measurement_temperature    296(2)
_cell_measurement_theta_max      66.32
_cell_measurement_theta_min      1.98
_cell_volume                     9466.7(2)
_computing_cell_refinement       'SAINT V8.34A (Bruker AXS Inc., 2013)'
_computing_data_collection       'APEX2 (Bruker AXS, 2010)'
_computing_data_reduction        'SAINT V8.34A (Bruker AXS Inc., 2013)'
_computing_molecular_graphics    'SHELXTL (Sheldrick, 2008)'
_computing_publication_material  SHELXTL
_computing_structure_refinement  'SHELXL-2014/6 (Sheldrick, 2014)'
_computing_structure_solution    'SHELXS-97 (Sheldrick, 2008)'
_diffrn_ambient_temperature      296(2)
_diffrn_detector_area_resol_mean 8.3333
_diffrn_measured_fraction_theta_full 0.989
_diffrn_measured_fraction_theta_max 0.989
_diffrn_measurement_device_type  'Bruker APEX-II CCD'
_diffrn_measurement_method       '\f and \w scans'
_diffrn_radiation_type           CuK\a
_diffrn_radiation_wavelength     1.54178
_diffrn_reflns_av_R_equivalents  0.0415
_diffrn_reflns_av_unetI/netI     0.0521
_diffrn_reflns_Laue_measured_fraction_full 0.989
_diffrn_reflns_Laue_measured_fraction_max 0.989
_diffrn_reflns_limit_h_max       35
_diffrn_reflns_limit_h_min       -35
_diffrn_reflns_limit_k_max       40
_diffrn_reflns_limit_k_min       -39
_diffrn_reflns_limit_l_max       10
_diffrn_reflns_limit_l_min       -6
_diffrn_reflns_number            63058
_diffrn_reflns_point_group_measured_fraction_full 0.987
_diffrn_reflns_point_group_measured_fraction_max 0.987
_diffrn_reflns_theta_full        66.320
_diffrn_reflns_theta_max         66.320
_diffrn_reflns_theta_min         1.982
_exptl_absorpt_coefficient_mu    6.755
_exptl_absorpt_correction_T_max  0.9423
_exptl_absorpt_correction_T_min  0.7754
_exptl_absorpt_correction_type   multi-scan
_exptl_absorpt_process_details   'SADABS V2008/1 (Bruker AXS)'
_exptl_crystal_colour            colorless
_exptl_crystal_density_diffrn    1.134
_exptl_crystal_density_meas      ?
_exptl_crystal_density_method    'not measured'
_exptl_crystal_description       paller
_exptl_crystal_F_000             3204
_exptl_crystal_size_max          0.18
_exptl_crystal_size_mid          0.15
_exptl_crystal_size_min          0.11
_refine_diff_density_max         3.141
_refine_diff_density_min         -2.496
_refine_diff_density_rms         0.227
_refine_ls_abs_structure_details
;
 Flack x determined using 5795 quotients [(I+)-(I-)]/[(I+)+(I-)]
 (Parsons, Flack and Wagner, Acta Cryst. B69 (2013) 249-259).
;
_refine_ls_abs_structure_Flack   0.031(4)
_refine_ls_extinction_method     none
_refine_ls_goodness_of_fit_ref   1.060
_refine_ls_hydrogen_treatment    constr
_refine_ls_matrix_type           full
_refine_ls_number_parameters     856
_refine_ls_number_reflns         16405
_refine_ls_number_restraints     0
_refine_ls_restrained_S_all      1.060
_refine_ls_R_factor_all          0.0737
_refine_ls_R_factor_gt           0.0656
_refine_ls_shift/su_max          0.050
_refine_ls_shift/su_mean         0.004
_refine_ls_structure_factor_coef Fsqd
_refine_ls_weighting_details
'w=1/[\s^2^(Fo^2^)+(0.1703P)^2^+0.0610P] where P=(Fo^2^+2Fc^2^)/3'
_refine_ls_weighting_scheme      calc
_refine_ls_wR_factor_gt          0.2044
_refine_ls_wR_factor_ref         0.2162
_reflns_Friedel_coverage         0.806
_reflns_Friedel_fraction_full    0.983
_reflns_Friedel_fraction_max     0.983
_reflns_number_gt                14469
_reflns_number_total             16405
_reflns_threshold_expression     'I > 2\s(I)'
_cod_data_source_file            c8dt01405a2.cif
_cod_data_source_block           4
_cod_depositor_comments
;
The following automatic conversions were performed:

data item '_exptl_crystal_density_meas' value 'not measured' was
changed to '?' -- the value is perceived as not measured.

Automatic conversion script
Id: cif_fix_values 6909 2019-04-08 15:41:33Z antanas 
;
_cod_database_code               7702194
_shelx_shelxl_version_number     2014/7
_shelx_space_group_comment
;
The symmetry employed for this shelxl refinement is uniquely defined
by the following loop, which should always be used as a source of
symmetry information in preference to the above space-group names.
They are only intended as comments.
;
_shelx_res_file
;

    1_sq.res created by SHELXL-2014/7


TITL 1 in P2(1)2(1)2
CELL 1.54178 29.6876 33.7481 9.4487 90.000 90.000 90.000
ZERR 4.00 0.0005 0.0005 0.0001 0.000 0.000 0.000
LATT -1
SYMM x+1/2, -y+1/2, -z
SYMM -x+1/2, y+1/2, -z
SYMM -x, -y, z
SFAC C  H  O  In Cl
UNIT 280  160  80  12 8
L.S. 4  322
acta
BOND $H
FMAP 2
PLAN 20

omit 5 1 0
omit 6 1 0
omit 2 3 0
omit 10 2 0
omit 4 5 0
omit 0 1 1
omit 0 3 1
omit 6 2 2
omit 9 8 1
omit 5 0 3
omit 1 0 2
omit 9 0 2
omit -4 5 1
omit 4 8 1
omit 14 7 1
omit -5 2 2
omit -5 10 1
omit 4 5 1
omit 1 0 1
omit 5 2 2
free in3 c26
free in3 c42
free in3 C12
free in1 c13
free in1 c55
free in1 c69
free in1 c56
free in2 c40
free in2 c41
free in2 c27
free in2 c11
TEMP 23.000
ABIN
WGHT    0.170300    0.061000
FVAR       0.04642
IN1   4    0.522298    0.266345    0.997400    11.00000    0.04651    0.04069 =
         0.03507   -0.00192    0.00401   -0.00340
IN2   4    0.702488    0.885593    0.343310    11.00000    0.06032    0.03421 =
         0.03798   -0.00343   -0.00598   -0.00338
IN3   4    0.746859    0.626089    1.665651    11.00000    0.05928    0.03793 =
         0.03758   -0.00350    0.00103    0.00285
CL1   5    0.777015    0.887285    0.247583    11.00000    0.06919    0.08558 =
         0.08320   -0.01900    0.01045   -0.01189
CL2   5    0.821783    0.633481    1.752042    11.00000    0.06756    0.10489 =
         0.08781   -0.01709   -0.01531   -0.00491
O1    3    0.687180    0.594151    1.580933    11.00000    0.05779    0.03672 =
         0.05322    0.00199   -0.00431    0.00393
O2    3    0.749383    0.560998    1.615314    11.00000    0.06382    0.03613 =
         0.05757   -0.01215   -0.00900    0.00109
O3    3    0.521581    0.328311    1.087959    11.00000    0.06249    0.06395 =
         0.06328   -0.00128   -0.00228   -0.01084
O4    3    0.585978    0.301003    1.045847    11.00000    0.06378    0.05332 =
         0.07078   -0.01944    0.00938   -0.01439
O5    3    0.737913    0.678903    1.538824    11.00000    0.10437    0.06400 =
         0.03886    0.01715    0.00963    0.00123
O6    3    0.770853    0.632008    1.415624    11.00000    0.07608    0.07625 =
         0.06398    0.02544   -0.00134    0.00036
O7    3    0.728638    0.887084    0.601307    11.00000    0.07040    0.05453 =
         0.06965    0.02071   -0.00679   -0.00618
O8    3    0.707059    0.835217    0.481416    11.00000    0.07344    0.06582 =
         0.04999    0.01522   -0.01665   -0.00074
O9    3    0.697313    0.948917    0.381671    11.00000    0.06781    0.03355 =
         0.05233   -0.01082    0.00684   -0.00080
O10   3    0.638513    0.913853    0.446664    11.00000    0.08008    0.03654 =
         0.05191   -0.00413    0.00260    0.00037
O11   3    0.672664    0.903923    0.110989    11.00000    0.10429    0.06380 =
         0.05740   -0.00628   -0.01334   -0.01752
O12   3    0.665065    0.845445    0.208979    11.00000    0.08086    0.06072 =
         0.03826   -0.00582   -0.01437   -0.01008
O13   3    0.723041    0.601542    1.897974    11.00000    0.10441    0.07099 =
         0.06252   -0.00401    0.01402    0.03482
O14   3    0.702421    0.658211    1.808830    11.00000    0.09325    0.04864 =
         0.03898   -0.00082    0.01958    0.00262
O15   3    0.468851    0.282516    0.855485    11.00000    0.10318    0.07942 =
         0.05245    0.02332   -0.02828   -0.01930
O16   3    0.528730    0.296570    0.749748    11.00000    0.07728    0.15261 =
         0.06427   -0.00432   -0.01387    0.03206
O17   3    0.464361    0.251549    1.136761    11.00000    0.05038    0.06327 =
         0.03749    0.00537    0.00626    0.00409
O18   3    0.530872    0.242149    1.226349    11.00000    0.06216    0.07248 =
         0.04779    0.01037    0.00598   -0.01252
O19   3    0.573790    0.225482    0.900662    11.00000    0.12244    0.04767 =
         0.09690   -0.01801    0.02686    0.00751
O20   3    0.509034    0.199186    0.947652    11.00000    0.06925    0.10915 =
         0.08376   -0.05142   -0.00017    0.02130
C1    1    0.687775    0.526786    1.504880    11.00000    0.06927    0.03373 =
         0.05633   -0.00824   -0.01353   -0.00208
C2    1    0.645564    0.529744    1.443005    11.00000    0.08250    0.04123 =
         0.12801   -0.02075   -0.02599    0.01336
AFIX  43
H2A   2    0.629837    0.553569    1.445270    11.00000   -1.20000
AFIX   0
C3    1    0.627863    0.498110    1.380430    11.00000    0.07111    0.06241 =
         0.11596   -0.01875   -0.02993    0.01519
AFIX  43
H3A   2    0.599719    0.500614    1.338139    11.00000   -1.20000
AFIX   0
C4    1    0.649463    0.460989    1.374753    11.00000    0.06137    0.04514 =
         0.10786   -0.01025   -0.01944    0.01279
C5    1    0.691971    0.458313    1.435931    11.00000    0.07786    0.04670 =
         0.09682   -0.00786   -0.02636    0.00634
AFIX  43
H5A   2    0.707944    0.434627    1.432459    11.00000   -1.20000
AFIX   0
C6    1    0.710099    0.490768    1.501218    11.00000    0.06546    0.05177 =
         0.08263   -0.01928   -0.02861    0.00309
AFIX  43
H6A   2    0.738157    0.488597    1.544295    11.00000   -1.20000
AFIX   0
C7    1    0.628469    0.426001    1.302477    11.00000    0.06824    0.03834 =
         0.12806   -0.01036   -0.03574    0.00749
C8    1    0.581729    0.422817    1.301158    11.00000    0.06666    0.06405 =
         0.14277   -0.05790    0.00493   -0.01628
AFIX  43
H8A   2    0.564082    0.441932    1.345341    11.00000   -1.20000
AFIX   0
C9    1    0.561142    0.390042    1.231586    11.00000    0.06366    0.06793 =
         0.07596   -0.02632    0.00900   -0.00180
AFIX  43
H9A   2    0.529941    0.387579    1.231189    11.00000   -1.20000
AFIX   0
C10   1    0.586485    0.362880    1.167018    11.00000    0.06957    0.04873 =
         0.08408   -0.00759    0.00483   -0.01647
C11   1    0.632411    0.367073    1.158927    11.00000    0.07040    0.06874 =
         0.09035   -0.02543    0.00034   -0.01408
AFIX  43
H11A  2    0.650121    0.349459    1.107611    11.00000   -1.20000
AFIX   0
C12   1    0.708579    0.562734    1.571619    11.00000    0.05134    0.03736 =
         0.04770    0.00011   -0.00334    0.00118
C13   1    0.562098    0.329305    1.094449    11.00000    0.08267    0.05006 =
         0.05241    0.00211   -0.00457   -0.02037
C14   1    0.751654    0.693526    1.297567    11.00000    0.06487    0.06191 =
         0.03715    0.00780   -0.00045    0.00308
C15   1    0.729224    0.729488    1.312235    11.00000    0.08480    0.04989 =
         0.04674   -0.00311    0.00562   -0.00033
AFIX  43
H15A  2    0.716471    0.736868    1.398185    11.00000   -1.20000
AFIX   0
C16   1    0.726463    0.754061    1.194385    11.00000    0.08686    0.04420 =
         0.04144    0.00156    0.00761    0.00688
AFIX  43
H16A  2    0.710365    0.777608    1.201868    11.00000   -1.20000
AFIX   0
C17   1    0.746262    0.745130    1.068987    11.00000    0.06800    0.04654 =
         0.03722    0.00370   -0.00164   -0.00086
C18   1    0.769616    0.708969    1.056316    11.00000    0.07397    0.04935 =
         0.04197    0.00072    0.00663    0.00112
AFIX  43
H18A  2    0.783431    0.702401    0.971149    11.00000   -1.20000
AFIX   0
C19   1    0.772116    0.683240    1.169507    11.00000    0.07350    0.05132 =
         0.05015    0.00258    0.00124    0.00469
AFIX  43
H19A  2    0.787287    0.659257    1.160679    11.00000   -1.20000
AFIX   0
C20   1    0.741075    0.772398    0.946448    11.00000    0.06616    0.03868 =
         0.04008    0.00441   -0.00382   -0.00929
C21   1    0.748568    0.812155    0.959308    11.00000    0.07225    0.05806 =
         0.04147    0.00559   -0.01028   -0.01676
AFIX  43
H21A  2    0.758490    0.822130    1.045601    11.00000   -1.20000
AFIX   0
C22   1    0.741924    0.837687    0.849238    11.00000    0.06567    0.03885 =
         0.04446    0.00157   -0.00880   -0.00931
AFIX  43
H22A  2    0.746546    0.864702    0.862152    11.00000   -1.20000
AFIX   0
C23   1    0.728167    0.823387    0.716824    11.00000    0.05420    0.05065 =
         0.03874    0.00429   -0.00690   -0.00717
C24   1    0.720929    0.783469    0.702057    11.00000    0.07341    0.05069 =
         0.04363    0.00072   -0.01388    0.00042
AFIX  43
H24A  2    0.711582    0.773477    0.615158    11.00000   -1.20000
AFIX   0
C25   1    0.727195    0.758394    0.812162    11.00000    0.08101    0.03760 =
         0.04190    0.00367   -0.00013   -0.00443
AFIX  43
H25A  2    0.722278    0.731419    0.799292    11.00000   -1.20000
AFIX   0
C26   1    0.752414    0.666476    1.424007    11.00000    0.05642    0.05526 =
         0.05873    0.01878    0.00229    0.00315
C27   1    0.720513    0.850724    0.594281    11.00000    0.05430    0.05157 =
         0.06717    0.01057   -0.00125    0.00814
C28   1    0.634986    0.853859   -0.022064    11.00000    0.05943    0.05471 =
         0.03603    0.00275   -0.00169   -0.01190
C29   1    0.618774    0.815813   -0.021811    11.00000    0.08926    0.06565 =
         0.03276    0.00608   -0.01218   -0.02073
AFIX  43
H29A  2    0.622285    0.799634    0.057100    11.00000   -1.20000
AFIX   0
C30   1    0.596450    0.801667   -0.145145    11.00000    0.09996    0.07704 =
         0.06078    0.00624   -0.00780   -0.04431
AFIX  43
H30A  2    0.583053    0.776760   -0.143807    11.00000   -1.20000
AFIX   0
C31   1    0.594371    0.823850   -0.264489    11.00000    0.05326    0.06097 =
         0.02944    0.00146   -0.00708   -0.00658
C32   1    0.612376    0.860306   -0.264871    11.00000    0.09110    0.05554 =
         0.04518    0.01004   -0.01242   -0.01240
AFIX  43
H32A  2    0.611630    0.875148   -0.347769    11.00000   -1.20000
AFIX   0
C33   1    0.632459    0.876767   -0.142576    11.00000    0.09900    0.05973 =
         0.05124   -0.00152   -0.03288   -0.02311
AFIX  43
H33A  2    0.643715    0.902482   -0.143433    11.00000   -1.20000
AFIX   0
C34   1    0.572263    0.808049   -0.393247    11.00000    0.06151    0.05916 =
         0.03467   -0.00343   -0.00750   -0.00748
C35   1    0.528882    0.796790   -0.391649    11.00000    0.06883    0.08449 =
         0.03683   -0.00641    0.00862   -0.02255
AFIX  43
H35A  2    0.512415    0.798691   -0.308195    11.00000   -1.20000
AFIX   0
C36   1    0.508394    0.782390   -0.512733    11.00000    0.04550    0.07171 =
         0.05123   -0.01641    0.01177   -0.00989
AFIX  43
H36A  2    0.477657    0.777084   -0.511452    11.00000   -1.20000
AFIX   0
C37   1    0.532350    0.775755   -0.634627    11.00000    0.05597    0.05776 =
         0.04104    0.00766   -0.00945   -0.00967
C38   1    0.579225    0.785995   -0.634947    11.00000    0.05210    0.10757 =
         0.02909   -0.00333    0.01067   -0.02140
AFIX  43
H38A  2    0.596730    0.781203   -0.714758    11.00000   -1.20000
AFIX   0
C39   1    0.597962    0.802732   -0.518135    11.00000    0.05247    0.10133 =
         0.05696   -0.00902    0.00134   -0.02828
AFIX  43
H39A  2    0.627920    0.810766   -0.520199    11.00000   -1.20000
AFIX   0
C40   1    0.657959    0.868791    0.107808    11.00000    0.06945    0.05601 =
         0.03910   -0.00957    0.00434   -0.00340
C41   1    0.658404    0.946825    0.438905    11.00000    0.06456    0.03803 =
         0.04083   -0.00364   -0.01062   -0.00148
C42   1    0.702028    0.633556    1.910225    11.00000    0.06062    0.04863 =
         0.06312   -0.01246    0.00229    0.00580
C43   1    0.673601    0.641897    2.033662    11.00000    0.06269    0.05331 =
         0.02907   -0.00123   -0.00170    0.00198
C44   1    0.459985    0.308573    0.627322    11.00000    0.06410    0.05383 =
         0.04461    0.00752   -0.00521    0.01342
C45   1    0.480171    0.319983    0.503221    11.00000    0.05256    0.10192 =
         0.05104    0.01729    0.00387    0.00595
AFIX  43
H45A  2    0.511386    0.321742    0.497818    11.00000   -1.20000
AFIX   0
C46   1    0.453911    0.328931    0.385341    11.00000    0.06527    0.07372 =
         0.03979    0.00674    0.01099    0.00943
AFIX  43
H46A  2    0.467912    0.334757    0.299785    11.00000   -1.20000
AFIX   0
C47   1    0.407830    0.329310    0.393108    11.00000    0.05706    0.06527 =
         0.03496   -0.00011   -0.00614    0.00932
C48   1    0.387430    0.318559    0.522832    11.00000    0.05485    0.10442 =
         0.04138    0.00462    0.01298   -0.00730
AFIX  43
H48A  2    0.356246    0.319470    0.531609    11.00000   -1.20000
AFIX   0
C49   1    0.413110    0.306837    0.635493    11.00000    0.05315    0.10225 =
         0.04669    0.02833    0.00535   -0.00375
AFIX  43
H49A  2    0.399309    0.297702    0.717607    11.00000   -1.20000
AFIX   0
C50   1    0.378914    0.338706    0.267852    11.00000    0.06319    0.05591 =
         0.04113    0.00100   -0.00100    0.00277
C51   1    0.383213    0.317837    0.143565    11.00000    0.07366    0.08087 =
         0.05033   -0.00916   -0.00959    0.03365
AFIX  43
H51A  2    0.404502    0.297722    0.136403    11.00000   -1.20000
AFIX   0
C52   1    0.355972    0.326696    0.029348    11.00000    0.07503    0.08827 =
         0.03911   -0.00606   -0.00609    0.02685
AFIX  43
H52A  2    0.357634    0.311186   -0.051839    11.00000   -1.20000
AFIX   0
C53   1    0.347801    0.368231    0.279275    11.00000    0.06313    0.06183 =
         0.05056   -0.00648   -0.00659    0.01027
AFIX  43
H53A  2    0.344110    0.381701    0.364355    11.00000   -1.20000
AFIX   0
C55   1    0.487074    0.295521    0.751664    11.00000    0.07887    0.05903 =
         0.05086   -0.00475   -0.01811    0.00833
C56   1    0.488568    0.239950    1.238021    11.00000    0.06036    0.04041 =
         0.04090   -0.00357    0.00735   -0.00295
C57   1    0.561522    0.158026    0.837031    11.00000    0.07868    0.04054 =
         0.07968   -0.01981    0.03247    0.01033
C58   1    0.607060    0.153701    0.790291    11.00000    0.06497    0.05930 =
         0.12307    0.00576   -0.00654   -0.00193
AFIX  43
H58A  2    0.627363    0.174414    0.802331    11.00000   -1.20000
AFIX   0
C59   1    0.620475    0.120175    0.729689    11.00000    0.05427    0.05690 =
         0.14380   -0.03935    0.00896    0.00129
AFIX  43
H59A  2    0.650638    0.117537    0.704845    11.00000   -1.20000
AFIX   0
C60   1    0.591410    0.088968    0.701936    11.00000    0.06965    0.04836 =
         0.07934    0.00540    0.01254   -0.00628
C61   1    0.546114    0.092301    0.746418    11.00000    0.07060    0.05392 =
         0.15428   -0.04434    0.03198    0.00321
AFIX  43
H61A  2    0.525567    0.072111    0.728524    11.00000   -1.20000
AFIX   0
C62   1    0.532662    0.127316    0.819320    11.00000    0.07714    0.05277 =
         0.06786   -0.02869    0.00940    0.00492
AFIX  43
H62A  2    0.503583    0.129124    0.855354    11.00000   -1.20000
AFIX   0
C63   1    0.608477    0.051644    0.637739    11.00000    0.08476    0.04377 =
         0.06885   -0.00321   -0.00473    0.00270
C64   1    0.642672    0.052011    0.539111    11.00000    0.06825    0.04875 =
         0.07664   -0.01238    0.02231   -0.00810
AFIX  43
H64A  2    0.654922    0.076245    0.512378    11.00000   -1.20000
AFIX   0
C65   1    0.658729    0.019407    0.481105    11.00000    0.07165    0.03499 =
         0.09186   -0.00448    0.00775   -0.00244
AFIX  43
H65A  2    0.683870    0.021048    0.422676    11.00000   -1.20000
AFIX   0
C66   1    0.638926   -0.017570    0.505192    11.00000    0.06170    0.04600 =
         0.06113    0.01473    0.00614    0.00268
C67   1    0.602752   -0.019051    0.596881    11.00000    0.07593    0.04747 =
         0.06535    0.00266    0.01630   -0.00278
AFIX  43
H67A  2    0.588856   -0.043204    0.615289    11.00000   -1.20000
AFIX   0
C68   1    0.587107    0.014601    0.660984    11.00000    0.07476    0.04671 =
         0.08181    0.00173    0.02361   -0.00759
AFIX  43
H68A  2    0.562194    0.013179    0.720439    11.00000   -1.20000
AFIX   0
C69   1    0.548241    0.197399    0.901055    11.00000    0.08780    0.07111 =
         0.05218   -0.01762   -0.01434    0.03019
C71   1    0.651572    0.399685    1.232901    11.00000    0.06943    0.07075 =
         0.11746   -0.03219    0.01145   -0.03362
AFIX  43
H71A  2    0.682746    0.402371    1.231408    11.00000   -1.20000
AFIX   0
C54   1    0.678904    0.621816    2.159854    11.00000    0.08303    0.05200 =
         0.05487    0.00511    0.01043    0.02051
AFIX  43
H54A  2    0.700116    0.601628    2.166665    11.00000   -1.20000

AFIX   0
HKLF 4 1 1 0 0 0 1 0 0 0 1

REM  1 in P2(1)2(1)2
REM R1 =  0.0656 for   14469 Fo > 4sig(Fo)  and  0.0737 for all   16405 data
REM    856 parameters refined using      0 restraints

END

WGHT      0.1704      0.0000

REM Highest difference peak  3.141,  deepest hole -2.496,  1-sigma level  0.227
Q1    1   0.5000  0.0000  0.9467  10.50000  0.05    3.14
Q2    1   0.5564  0.5757  1.8489  11.00000  0.05    1.58
Q3    1   0.4987  0.0989  1.2720  11.00000  0.05    1.56
Q4    1   0.5000  0.5000  1.3281  10.50000  0.05    1.56
Q5    1   0.6437  0.2913  0.5691  11.00000  0.05    1.33
Q6    1   0.7200  1.0020 -0.0406  11.00000  0.05    1.28
Q7    1   0.7663  0.5401  2.1521  11.00000  0.05    1.27
Q8    1   0.7137  0.9701 -0.1401  11.00000  0.05    1.25
Q9    1   0.5238  0.8912  0.4009  11.00000  0.05    0.97
Q10   1   0.4889  0.0971  1.1744  11.00000  0.05    0.92
Q11   1   0.5000  0.0000  0.7275  10.50000  0.05    0.91
Q12   1   0.6508  0.2886  0.7352  11.00000  0.05    0.85
Q13   1   0.7694  0.6143  1.2828  11.00000  0.05    0.80
Q14   1   0.7533  0.4998  1.9003  11.00000  0.05    0.77
Q15   1   0.7377  0.9010  0.6460  11.00000  0.05    0.75
Q16   1   0.5242 -0.0634  0.3089  11.00000  0.05    0.75
Q17   1   0.4524  0.8665 -0.6597  11.00000  0.05    0.74
Q18   1   0.6179  0.3314  0.5936  11.00000  0.05    0.74
Q19   1   0.5993  0.5811  1.8008  11.00000  0.05    0.72
Q20   1   0.5931  0.5884  1.7657  11.00000  0.05    0.72
;
_shelx_res_checksum              70559
_shelx_fab_file
;
    2    0    0    251.25     -1.83
    4    0    0     85.31     -0.53
    6    0    0     60.20     -0.39
    8    0    0     33.89     -0.97
   10    0    0     20.86     -4.46
   12    0    0     -5.50      0.64
   14    0    0     34.18      0.28
   16    0    0     25.22      1.78
   18    0    0     15.02      1.87
   20    0    0     11.86      0.29
   22    0    0      8.95      1.05
   24    0    0     -4.57      0.92
   26    0    0      3.25      0.58
   28    0    0      7.89     -0.02
   30    0    0      1.98      1.28
   32    0    0      0.36      1.91
   34    0    0      4.08     -0.03
    1    1    0     42.40     -0.95
    2    1    0   -204.55      0.47
    3    1    0     -1.89      0.58
    4    1    0    101.06      0.12
    7    1    0     12.03      0.69
    8    1    0    -12.46     -1.91
    9    1    0    -10.82      0.92
   10    1    0    -15.46      1.07
   11    1    0     24.03      0.92
   12    1    0      5.85     -0.09
   13    1    0     -9.59      0.87
   14    1    0      7.02      0.64
   15    1    0     13.82      2.08
   16    1    0    -11.68      1.00
   17    1    0      6.17      1.67
   18    1    0      0.07      0.12
   19    1    0     -4.06     -0.81
   20    1    0     12.24     -0.70
   21    1    0      7.01      1.64
   22    1    0     -0.17      0.29
   23    1    0     -2.61     -0.64
   24    1    0      2.35     -0.03
   25    1    0     -0.25      1.39
   26    1    0      7.13     -0.01
   27    1    0     -1.95      1.04
   28    1    0      0.74     -0.09
   29    1    0     -1.03      0.32
   30    1    0     -3.79      1.65
   31    1    0     -4.40      0.34
   32    1    0      0.60      0.69
   33    1    0      3.33      0.33
   34    1    0      0.04     -0.11
   35    1    0      0.72     -0.03
    1    2    0     -4.32     -0.41
    2    2    0    145.38     -0.62
    3    2    0     60.48     -0.81
    4    2    0    297.57     -0.48
    5    2    0     95.23     -1.92
    6    2    0    -32.44     -0.96
    7    2    0     27.85     -1.43
    8    2    0    -25.28      1.95
    9    2    0    -15.43     -1.12
   11    2    0    -17.44     -0.43
   12    2    0     22.46      2.12
   13    2    0     -8.92     -0.26
   14    2    0     21.42      1.55
   15    2    0      0.11      0.52
   16    2    0     12.12      0.63
   17    2    0     -3.63      0.06
   18    2    0     29.73     -0.70
   19    2    0      2.49     -0.53
   20    2    0      3.78     -0.40
   21    2    0     -0.52      0.25
   22    2    0      0.74      1.58
   23    2    0     -6.38      1.74
   24    2    0      6.86      0.92
   25    2    0      2.46      0.37
   26    2    0      0.60      0.35
   27    2    0     -1.56     -1.90
   28    2    0     -2.20      0.50
   29    2    0      0.15     -1.70
   30    2    0      3.02      1.26
   31    2    0     -0.24     -0.58
   32    2    0      3.93      0.12
   33    2    0      2.36      0.19
   34    2    0     -0.39      0.09
   35    2    0      0.00      0.20
    1    3    0     16.08      1.27
    3    3    0    150.63      3.23
    4    3    0     42.93     -1.95
    5    3    0     -3.59     -0.06
    6    3    0     -6.21     -0.87
    7    3    0     15.59      0.06
    8    3    0     53.15     -0.19
    9    3    0    -14.43      0.53
   10    3    0     17.74     -0.36
   11    3    0      8.14     -0.28
   12    3    0     -6.60      0.09
   13    3    0     -4.49     -0.17
   14    3    0     -8.78      2.48
   15    3    0      4.87      0.34
   16    3    0      4.71      0.00
   17    3    0      3.35      0.70
   18    3    0      4.06     -0.58
   19    3    0      0.79      1.73
   20    3    0      1.46      0.91
   21    3    0      0.40      7.52
   22    3    0     15.31      1.12
   23    3    0      3.77      2.06
   24    3    0      6.36      0.45
   25    3    0      3.03      0.32
   26    3    0     -0.87      0.25
   27    3    0     -3.37     -0.78
   28    3    0      1.57      0.58
   29    3    0      3.94     -0.12
   30    3    0      4.09      0.01
   31    3    0      2.42      0.02
   32    3    0     -2.32      0.62
   33    3    0      1.97      0.23
   34    3    0     -0.98      0.50
   35    3    0     -0.38     -0.24
    0    4    0    234.53      1.83
    1    4    0    106.16     -1.32
    2    4    0   -178.00      0.77
    3    4    0     81.24     -0.58
    4    4    0    -20.37      0.84
    5    4    0     13.82     -1.98
    6    4    0     56.12      0.11
    7    4    0     30.10     -0.81
    8    4    0     52.68     -0.21
    9    4    0    -12.53     -1.84
   10    4    0     29.25     -1.40
   11    4    0     -2.20     -0.95
   12    4    0     13.19      4.42
   13    4    0     -4.53      0.62
   14    4    0     33.40     -0.02
   15    4    0     -0.73      0.42
   16    4    0      9.22     -2.19
   17    4    0      9.98      0.76
   18    4    0      2.99      1.15
   19    4    0     -4.36      2.29
   20    4    0      6.02      0.58
   21    4    0      0.99      1.29
   22    4    0      6.72      0.44
   23    4    0      3.59      0.63
   24    4    0     -0.95     -0.28
   25    4    0     -0.76      1.79
   26    4    0     -2.10      0.26
   27    4    0     -2.91      0.87
   28    4    0      3.45     -0.49
   29    4    0      5.71      1.20
   30    4    0      2.25     -0.53
   31    4    0     -2.20     -0.12
   32    4    0     -0.97      0.42
   33    4    0      0.24      0.03
   34    4    0     -2.06      0.72
   35    4    0      1.39     -0.27
    1    5    0     51.04      5.49
    2    5    0    -23.91     -1.12
    3    5    0     23.12      9.31
    5    5    0     39.83      1.78
    6    5    0     63.19     -1.84
    7    5    0     51.06      0.29
    8    5    0      4.19     -3.05
    9    5    0      0.04     -3.29
   10    5    0     -6.92      1.69
   11    5    0     13.09     -0.36
   12    5    0      9.77      0.26
   13    5    0    -10.71     -1.11
   14    5    0     -5.62      0.97
   15    5    0      8.93     -0.57
   16    5    0     -9.68      3.29
   17    5    0     -2.61      0.45
   18    5    0      9.02      2.29
   19    5    0     -5.40      0.87
   20    5    0      7.80     -0.62
   21    5    0     12.21      3.40
   22    5    0      5.96     -0.08
   24    5    0      2.11      1.27
   25    5    0     -3.01      0.77
   26    5    0      1.54      1.31
   27    5    0      1.19      1.61
   28    5    0      1.87     -0.15
   29    5    0      2.46     -0.28
   30    5    0     -1.25     -0.05
   31    5    0     -1.19     -0.49
   32    5    0     -2.40      0.96
   33    5    0      5.29     -0.65
   34    5    0     -0.90     -0.03
    0    6    0    -21.92      2.14
    1    6    0    -26.45      0.31
    2    6    0   -129.33      0.01
    3    6    0      1.37      0.76
    4    6    0     47.55      1.56
    5    6    0     38.55      0.61
    6    6    0     15.49     -3.20
    7    6    0      6.86     -1.03
    8    6    0     29.06     -4.44
    9    6    0      1.83     -0.01
   10    6    0     49.00     -5.87
   11    6    0      5.39      0.95
   12    6    0     16.57     -3.89
   13    6    0      2.59      0.21
   14    6    0     10.54     -1.13
   15    6    0      4.96      0.97
   16    6    0      8.65      0.19
   17    6    0      5.92      1.02
   18    6    0      8.32     -0.52
   19    6    0      8.93      0.22
   20    6    0      0.57     -1.79
   21    6    0      2.46     -0.41
   22    6    0      4.31      0.49
   24    6    0      4.02      0.38
   25    6    0      7.70      7.18
   26    6    0      1.07     -0.24
   27    6    0      1.70      2.81
   28    6    0      0.57     -0.52
   29    6    0      1.67      0.68
   30    6    0     -0.61     -0.02
   31    6    0      1.40     -0.34
   32    6    0      0.97     -0.28
   33    6    0      3.03     -0.65
   34    6    0     -0.57      0.00
    1    7    0    -71.76      4.10
    2    7    0      0.21      1.48
    3    7    0     26.74      9.74
    4    7    0      4.33      0.65
    5    7    0     -6.79      0.92
    6    7    0      1.43     -0.03
    7    7    0     10.62     -0.33
    8    7    0     24.86      0.89
    9    7    0     17.53     -2.58
   10    7    0      5.42      1.34
   11    7    0      7.76     -3.11
   12    7    0     -0.43     -2.15
   13    7    0      0.29     -1.91
   14    7    0      2.83      3.22
   15    7    0      8.94     -0.09
   16    7    0      2.80      1.79
   17    7    0      5.87     -1.58
   18    7    0      2.85      0.96
   19    7    0     -3.95     -4.10
   20    7    0      1.42      0.87
   21    7    0     -6.31     -0.06
   22    7    0      3.42      0.66
   23    7    0      4.27      0.74
   24    7    0      1.56      0.58
   25    7    0      4.59      0.09
   26    7    0     -0.61      0.90
   27    7    0     -4.79     -1.42
   28    7    0     -2.88      0.46
   29    7    0     -2.38      0.47
   30    7    0     -1.92     -0.19
   31    7    0     -0.32      0.19
   32    7    0      0.18      0.11
   33    7    0     -1.17      0.43
   34    7    0      0.98      0.04
    0    8    0     57.74      1.92
    1    8    0     18.03      0.35
    2    8    0     -8.43      0.69
    3    8    0    -14.99      3.61
    4    8    0     57.07      0.29
    5    8    0     -8.64      1.79
    6    8    0     41.54     -1.16
    7    8    0     18.64      2.81
    8    8    0     42.63     -4.54
    9    8    0     -2.64      0.42
   10    8    0     26.51    -13.86
   11    8    0      1.63     -0.82
   12    8    0     16.84     -7.56
   13    8    0      9.43      0.98
   14    8    0     20.69     -3.12
   15    8    0      6.70      0.35
   16    8    0      3.90     -3.81
   17    8    0      3.71      0.09
   18    8    0      9.78      0.20
   19    8    0     -6.76      0.47
   20    8    0      4.85     -3.22
   21    8    0      4.36      1.39
   22    8    0      3.24     -1.37
   23    8    0      7.04      1.39
   24    8    0      6.01     -0.19
   25    8    0      3.30      2.37
   26    8    0      1.51      0.22
   27    8    0     -0.56      1.27
   28    8    0      1.10     -0.05
   29    8    0      5.39      1.50
   30    8    0      1.61     -0.03
   31    8    0     -0.48     -0.19
   32    8    0      1.93      0.12
   33    8    0      0.70     -0.17
   34    8    0     -1.20      0.19
    1    9    0    -32.81      1.03
    2    9    0      0.67      1.17
    3    9    0    -24.22      2.02
    4    9    0    -28.55      3.84
    5    9    0    -16.40     -3.55
    6    9    0      0.45      5.88
    7    9    0    -12.23     -0.84
    8    9    0     17.01     -0.14
    9    9    0     -7.05     -5.41
   10    9    0      5.95      2.35
   11    9    0      8.52     -2.50
   12    9    0     23.54      0.44
   13    9    0      9.95     -2.43
   14    9    0     10.95     -3.56
   15    9    0      5.26     -1.09
   16    9    0      6.41     -0.31
   17    9    0     -6.94     -1.31
   18    9    0      3.10      0.10
   19    9    0      0.95     -2.78
   20    9    0     -5.71     -0.11
   21    9    0      5.54     -1.51
   22    9    0      2.15      1.32
   23    9    0     -0.83     -2.09
   24    9    0      1.12      0.10
   25    9    0     -1.11     -0.05
   26    9    0     -1.30     -0.21
   27    9    0     -0.62      0.89
   28    9    0     -1.96      0.40
   29    9    0     -0.51      0.46
   30    9    0     -1.12      0.14
   31    9    0     -2.81     -0.09
   32    9    0     -0.74      0.49
   33    9    0      0.26      0.49
   34    9    0      2.39     -0.66
    0   10    0     86.57      1.09
    1   10    0     -1.34      0.26
    2   10    0     19.12     -0.37
    3   10    0    -18.04      1.22
    4   10    0     45.38      2.11
    5   10    0      1.30      5.11
    6   10    0     48.72     -1.06
    7   10    0     -4.15      2.80
    8   10    0     29.53     -1.40
    9   10    0     -3.72      0.67
   10   10    0     29.79     -4.89
   11   10    0      6.69      0.57
   12   10    0     27.95     -9.78
   13   10    0      1.03     -0.37
   14   10    0     22.55     -5.47
   15   10    0     -7.97     -0.94
   16   10    0      4.59     -2.50
   17   10    0      5.74      0.42
   18   10    0      7.36     -1.27
   19   10    0      7.02      0.88
   20   10    0     11.67     -2.01
   21   10    0     -2.96     -0.16
   23   10    0     -1.73     -0.48
   24   10    0      1.39     -1.51
   25   10    0      2.67      1.20
   26   10    0      1.33      0.43
   27   10    0      3.38     -1.28
   28   10    0      3.72      0.44
   29   10    0      1.55     -0.59
   30   10    0      1.17      0.27
   31   10    0     -0.64      0.34
   32   10    0      0.90     -0.05
   33   10    0      1.88      0.48
   34   10    0     -0.69     -0.14
    1   11    0      0.09     -4.08
    2   11    0     -4.13      1.93
    3   11    0      9.28     -0.05
    4   11    0      5.89      2.66
    5   11    0     -2.71     -3.56
    6   11    0      1.96      3.30
    7   11    0    -13.54     -3.36
    8   11    0      8.43      3.30
    9   11    0     -0.39     -2.90
   10   11    0     15.93      2.11
   11   11    0     -4.45     -1.38
   12   11    0     18.90     -3.15
   13   11    0     -1.14     -4.81
   14   11    0      5.40     -1.25
   15   11    0      3.77     -1.47
   16   11    0      2.70     -1.83
   17   11    0      4.65     -0.13
   18   11    0     10.66     -1.41
   19   11    0     -0.21     -1.20
   20   11    0     -4.14     -0.01
   21   11    0      1.47     -0.84
   22   11    0     -8.45     -0.57
   23   11    0      3.16     -0.12
   24   11    0     -0.97     -0.16
   25   11    0      1.87     -0.25
   26   11    0      4.78      0.19
   27   11    0     -1.04     -1.16
   28   11    0      0.24     -0.05
   29   11    0      1.02      0.39
   30   11    0     -2.20      0.39
   31   11    0      3.93     -0.18
   32   11    0     -0.53     -0.04
   33   11    0      0.22      0.52
    0   12    0     30.71      0.05
    1   12    0      5.33      0.75
    2   12    0     23.34     -1.43
    3   12    0     -0.51      2.02
    4   12    0     29.24     -1.53
    5   12    0     -1.06      0.61
    6   12    0      8.68      0.03
    7   12    0     -9.67      0.71
    8   12    0     28.27      3.78
    9   12    0     -3.95      2.40
   10   12    0     20.34     -2.00
   11   12    0      1.53     -0.98
   12   12    0     13.67     -2.45
   13   12    0      4.19     -0.44
   14   12    0     17.24      0.34
   15   12    0     -0.15      0.29
   16   12    0     16.49     -2.79
   17   12    0      1.02     -0.98
   18   12    0     16.63      0.57
   19   12    0      1.04     -0.17
   20   12    0      0.08     -1.37
   21   12    0      1.09     -0.13
   22   12    0     -0.29     -0.34
   23   12    0      0.70     -0.77
   24   12    0      7.34     -0.16
   25   12    0     -0.01     -1.42
   26   12    0      2.69     -0.28
   27   12    0      0.30     -0.77
   28   12    0     -2.15      0.22
   29   12    0      2.95      0.42
   30   12    0      0.64     -0.01
   31   12    0     -0.74      0.65
   32   12    0      0.65      0.07
   33   12    0     -0.46      0.35
    1   13    0     17.36     -0.65
    2   13    0     23.64      0.09
    3   13    0     17.84     -0.61
    4   13    0     -2.20     -0.09
    5   13    0     -3.89     -2.20
    6   13    0      6.61      2.03
    7   13    0      6.26      0.82
    8   13    0     13.80      0.21
    9   13    0     17.44     -1.37
   10   13    0     -5.18      0.95
   11   13    0     -2.00     -0.93
   12   13    0      1.98      1.66
   13   13    0      1.28     -1.03
   14   13    0      6.32     -0.68
   15   13    0     -1.66     -1.79
   16   13    0     10.23      0.40
   17   13    0      2.39     -1.05
   18   13    0     -2.88     -0.86
   19   13    0      8.34     -0.15
   20   13    0     -6.46     -1.26
   21   13    0      4.33     -0.01
   22   13    0      2.81      0.00
   23   13    0      3.04     -0.40
   24   13    0      3.20     -0.25
   25   13    0     -0.92      0.02
   26   13    0      1.08      0.35
   27   13    0     -0.17     -0.53
   28   13    0     -0.23     -0.08
   29   13    0      2.38     -0.33
   30   13    0      2.18      0.08
   31   13    0      2.34     -1.31
   32   13    0     -1.92     -0.03
   33   13    0      0.47     -0.15
    0   14    0     34.83      0.02
    1   14    0      5.14      0.72
    2   14    0      7.40     -1.08
    3   14    0     -4.73     -0.40
    4   14    0      6.16     -0.51
    5   14    0      8.29      0.01
    6   14    0     10.88     -1.12
    7   14    0      6.42     -0.46
    8   14    0     10.72      0.50
    9   14    0     -7.24     -0.24
   10   14    0      0.65      1.68
   11   14    0     -1.03      0.76
   12   14    0      9.11      1.20
   13   14    0      2.51     -0.06
   14   14    0     18.88      4.26
   15   14    0     -1.19     -0.74
   16   14    0      4.96      0.62
   17   14    0      2.70     -0.70
   18   14    0      6.94     -0.46
   19   14    0     -3.56     -0.66
   20   14    0     10.33      0.00
   21   14    0     -1.82     -0.62
   22   14    0      1.45      0.57
   23   14    0      0.93      0.02
   24   14    0      4.02      0.29
   25   14    0      1.18      0.08
   26   14    0      0.80     -0.43
   27   14    0      1.78     -0.21
   28   14    0      1.41     -0.28
   29   14    0      2.99     -0.27
   30   14    0     -0.04      0.27
   31   14    0      0.82      0.06
   32   14    0     -3.21      0.12
    1   15    0      2.35     -0.04
    2   15    0      2.98     -0.99
    3   15    0     11.08      0.76
    4   15    0     10.55     -1.43
    5   15    0      7.08      0.65
    6   15    0      9.74     -2.24
    7   15    0      2.57     -0.20
    8   15    0     -0.24     -0.02
    9   15    0     14.49     -1.15
   10   15    0     -1.36      0.89
   11   15    0      3.68      0.50
   12   15    0      4.19      1.51
   13   15    0      4.17      0.02
   14   15    0     -1.15      1.29
   15   15    0      6.13      0.53
   16   15    0     -1.42      0.54
   17   15    0     -0.04     -0.35
   18   15    0      9.51      0.10
   19   15    0      4.59     -0.04
   20   15    0      2.05     -0.18
   21   15    0      4.46      0.30
   22   15    0      4.73     -0.17
   23   15    0      4.16      0.43
   24   15    0      6.97     -0.12
   25   15    0     -0.82     -0.10
   26   15    0      3.34     -0.18
   27   15    0      0.43     -1.02
   28   15    0      0.76      0.00
   29   15    0      2.40      0.00
   30   15    0     -1.24     -0.28
   31   15    0     -1.47     -1.11
   32   15    0      0.75     -0.37
    0   16    0      1.95      0.37
    1   16    0      4.09      0.47
    2   16    0      5.11      0.76
    3   16    0      9.89      0.08
    4   16    0     24.19     -0.72
    5   16    0     10.14     -0.73
    6   16    0      5.96     -1.05
    7   16    0     -2.13     -1.18
    8   16    0     11.13     -0.14
    9   16    0     -0.47      0.02
   10   16    0      6.97     -0.08
   11   16    0     -0.39      0.63
   12   16    0      1.62      0.69
   13   16    0      0.89      0.15
   14   16    0      5.02      3.64
   15   16    0     -3.52      0.03
   16   16    0      6.44      1.52
   17   16    0     -4.19     -0.38
   18   16    0      5.98      0.74
   19   16    0     -0.97     -0.04
   20   16    0      1.14      0.00
   21   16    0      1.12     -0.47
   22   16    0      4.30      0.27
   23   16    0     -0.18      0.30
   24   16    0      3.24      0.46
   25   16    0      2.33     -0.07
   26   16    0      2.03      0.74
   27   16    0      4.59      0.27
   28   16    0      0.13      0.73
   29   16    0      1.81     -0.44
   30   16    0      2.75     -0.18
   31   16    0      0.92     -0.41
   32   16    0      0.44      0.28
    1   17    0     -6.19      0.40
    2   17    0     19.49     -3.00
    3   17    0      5.05      0.39
    4   17    0     10.90     -1.48
    5   17    0    -13.21     -0.20
    6   17    0     -2.59     -1.12
    7   17    0     -1.57     -0.77
    8   17    0      9.44     -0.78
    9   17    0     10.36     -0.84
   10   17    0      6.13     -1.42
   11   17    0     -2.68     -0.10
   12   17    0      0.85     -0.91
   13   17    0      0.99      0.23
   14   17    0      6.50      0.17
   15   17    0      2.56      1.03
   16   17    0      5.45      0.61
   17   17    0      0.69      0.96
   18   17    0      4.71      0.06
   19   17    0      6.88      0.39
   20   17    0      6.66     -0.37
   21   17    0     -1.43      0.27
   22   17    0      5.78     -0.12
   23   17    0      2.26      0.13
   24   17    0      5.94      0.22
   25   17    0      3.61      0.25
   26   17    0      3.02      0.26
   27   17    0      0.18      0.05
   28   17    0      3.54     -1.75
   29   17    0      0.29      0.77
   30   17    0      2.82     -0.88
   31   17    0     -0.51      0.04
    0   18    0     15.77     -0.37
    1   18    0      6.75     -0.42
    2   18    0      2.64      0.35
    3   18    0      3.66     -0.30
    4   18    0      9.85      0.80
    5   18    0      5.10      0.00
    6   18    0     12.49     -0.89
    7   18    0      7.57      0.77
    8   18    0     23.06     -0.57
    9   18    0      0.49     -0.18
   10   18    0      7.13     -0.36
   11   18    0     -2.17     -0.39
   12   18    0      7.22     -1.04
   13   18    0     -4.36     -0.57
   14   18    0     11.37      0.96
   15   18    0      1.62      0.31
   16   18    0     -3.18      0.73
   17   18    0      3.99     -0.06
   18   18    0      1.70      0.89
   19   18    0     -1.13      0.34
   20   18    0     -2.59      0.85
   21   18    0      1.70     -0.08
   22   18    0      0.79      0.43
   23   18    0      3.52      0.11
   24   18    0      3.03      1.29
   25   18    0      1.23      0.34
   26   18    0      5.31      0.02
   27   18    0     -1.87     -0.26
   28   18    0      2.26      0.27
   29   18    0      1.94     -0.18
   30   18    0      1.39      0.82
   31   18    0      2.64      0.22
    1   19    0     -5.48      0.50
    2   19    0     -1.73     -1.57
    3   19    0     -7.08      0.30
    4   19    0      7.89     -0.67
    5   19    0    -13.27      0.16
    6   19    0      4.61     -1.14
    7   19    0      2.75     -0.69
    8   19    0     10.84     -0.72
    9   19    0     -3.00     -0.55
   10   19    0      9.54     -3.03
   11   19    0     -6.20     -0.15
   12   19    0      9.34     -2.98
   13   19    0     -1.98     -0.24
   14   19    0      3.64     -0.70
   15   19    0      5.98      0.13
   16   19    0      3.38      0.16
   17   19    0     -5.49      0.76
   18   19    0      3.57      0.38
   19   19    0      4.54      0.84
   20   19    0      2.07     -0.31
   21   19    0     -0.72     -0.06
   22   19    0      4.51     -0.20
   23   19    0      2.10      0.06
   24   19    0      5.74     -0.79
   25   19    0      1.44      0.07
   26   19    0      2.10     -1.07
   27   19    0      2.39      0.18
   28   19    0      1.53     -0.52
   29   19    0      4.18      2.43
   30   19    0      0.74     -0.11
   31   19    0     -0.97      0.33
    0   20    0      3.76      0.11
    1   20    0     -2.18     -0.49
    2   20    0     -1.86      0.65
    3   20    0     -3.82     -0.01
    4   20    0     16.60      0.38
    5   20    0     10.63      0.27
    6   20    0     14.14      0.08
    7   20    0      1.70      0.90
    8   20    0     20.28     -0.07
    9   20    0     -3.39      0.02
   10   20    0     13.78     -0.08
   11   20    0      4.85     -0.86
   12   20    0      6.69     -0.07
   13   20    0      0.56     -1.08
   14   20    0      6.86     -0.21
   15   20    0      3.34     -0.17
   16   20    0     -3.22     -0.21
   17   20    0      3.21      0.10
   18   20    0      1.77      0.46
   19   20    0      2.04      0.14
   20   20    0      0.39      0.55
   21   20    0      1.53     -0.05
   22   20    0      2.66      0.19
   23   20    0      0.29      0.21
   24   20    0     -0.27      0.23
   25   20    0     -0.80     -0.28
   26   20    0      1.53      0.33
   27   20    0     -1.48      0.59
   28   20    0     -0.39      0.84
   29   20    0     -1.84      0.26
   30   20    0      0.61      0.13
    1   21    0     -7.29      0.46
    2   21    0     -3.20     -0.78
    3   21    0      2.53      0.23
    4   21    0      4.89     -0.27
    5   21    0     -9.56     -0.07
    6   21    0     -9.21     -0.60
    7   21    0     -1.70      0.26
    8   21    0      3.18     -0.83
    9   21    0      0.51     -0.01
   10   21    0      4.49     -1.02
   11   21    0      5.58      0.10
   12   21    0      3.05     -1.65
   13   21    0     -3.02     -0.41
   14   21    0      4.36     -1.31
   15   21    0      2.59     -0.81
   16   21    0      2.32     -0.02
   17   21    0     -6.08     -0.60
   18   21    0      4.42      0.24
   19   21    0      4.14     -0.10
   20   21    0      1.42      0.16
   21   21    0     -1.76      0.27
   22   21    0     -2.37     -0.18
   23   21    0      2.97     -0.25
   24   21    0     -1.72     -0.90
   25   21    0      3.72      0.14
   26   21    0      1.87     -0.22
   27   21    0     -0.83      0.43
   28   21    0      2.44     -0.14
   29   21    0      2.22      0.58
   30   21    0     -0.16      0.06
    0   22    0      1.57      1.29
    1   22    0      2.77      0.63
    2   22    0     -1.02      0.87
    3   22    0     -3.08      0.08
    4   22    0     12.98      1.17
    5   22    0     -1.54      0.38
    6   22    0      4.61      0.42
    7   22    0     -1.40      0.01
    8   22    0     14.99      0.43
    9   22    0      2.81     -0.38
   10   22    0      8.13      0.28
   11   22    0      6.32     -0.35
   12   22    0      6.71     -0.17
   13   22    0      0.00     -0.84
   14   22    0      4.99     -0.23
   15   22    0      3.47     -0.28
   16   22    0     -1.24      0.08
   17   22    0      2.00     -0.20
   18   22    0      5.88     -0.16
   19   22    0      0.32      0.42
   20   22    0     -1.21      0.25
   21   22    0     -0.40     -0.04
   22   22    0      0.44     -0.25
   23   22    0     -0.47     -0.56
   24   22    0      2.11      0.30
   25   22    0     -4.53     -0.04
   26   22    0      2.59      0.21
   27   22    0     -1.03     -0.48
   28   22    0     -2.90      0.12
   29   22    0      1.49     -0.17
    1   23    0      0.16     -0.25
    2   23    0     -1.62     -0.21
    3   23    0      1.73     -0.13
    4   23    0     -4.41     -0.31
    5   23    0     -4.14     -0.27
    6   23    0    -16.50     -0.17
    7   23    0      5.71      0.11
    8   23    0     -3.32     -0.66
    9   23    0      0.99      0.56
   10   23    0     -1.70      0.42
   11   23    0      9.02      0.12
   12   23    0      2.28      0.39
   13   23    0     -1.38     -0.20
   14   23    0      3.34      0.28
   15   23    0      0.99     -0.79
   16   23    0      4.16     -0.10
   17   23    0     -3.89     -1.25
   18   23    0      1.35     -0.06
   19   23    0      0.41     -0.63
   20   23    0      0.17      0.29
   21   23    0     -0.62     -0.70
   22   23    0      1.36      0.30
   23   23    0      1.75      0.12
   24   23    0     -1.20     -0.25
   25   23    0      3.49      0.15
   26   23    0     -0.70     -0.03
   27   23    0      0.22     -0.53
   28   23    0      2.51     -0.17
    0   24    0      8.34      0.00
    1   24    0     -1.86      0.30
    2   24    0     -2.70      0.15
    3   24    0     -4.16      0.22
    4   24    0      5.59      0.73
    5   24    0     -2.15      0.18
    6   24    0     -0.59      0.11
    7   24    0     -1.07     -0.10
    8   24    0      2.97     -0.18
    9   24    0     -0.33     -0.24
   10   24    0      1.02      0.18
   11   24    0      3.75      0.25
   12   24    0      2.51     -0.16
   13   24    0     -3.97      0.37
   14   24    0      3.36     -0.59
   15   24    0      3.91     -0.13
   16   24    0      0.37     -0.46
   17   24    0     -0.13     -0.33
   18   24    0      4.16     -0.10
   19   24    0     -3.44     -0.12
   20   24    0      2.34      0.28
   21   24    0      0.53     -0.04
   22   24    0      0.31      0.11
   23   24    0      1.00     -0.19
   24   24    0     -1.36      0.39
   25   24    0     -1.05     -1.02
   26   24    0      2.91     -0.05
   27   24    0     -2.73     -0.33
   28   24    0     -0.47     -0.08
    1   25    0      2.97      0.22
    2   25    0     -5.24      0.35
    3   25    0      4.76     -0.12
    4   25    0      1.66      0.30
    5   25    0      0.68     -0.09
    6   25    0     -8.04     -0.01
    7   25    0      4.60      0.10
    8   25    0      0.93     -0.40
    9   25    0     -4.60      0.35
   10   25    0      0.80      0.47
   11   25    0      3.41     -0.06
   12   25    0      3.15      0.41
   13   25    0     -2.92     -0.32
   14   25    0      5.63      0.49
   15   25    0      4.66     -0.67
   16   25    0      3.99      0.82
   17   25    0     -4.06     -0.73
   18   25    0      2.46      0.26
   19   25    0     -0.25     -0.53
   20   25    0      1.58      0.02
   21   25    0      1.53     -0.21
   22   25    0      1.36      0.13
   23   25    0      0.82     -0.53
   24   25    0      2.61     -0.22
   25   25    0     -0.91      0.25
   26   25    0      2.39     -0.16
   27   25    0     -0.82      0.11
    0   26    0      6.98     -0.70
    1   26    0     -4.91      0.01
    2   26    0      1.12     -0.11
    3   26    0     -4.41     -0.54
    4   26    0      6.30     -0.27
    5   26    0      0.00      0.19
    6   26    0     -3.28     -0.56
    7   26    0     -1.74     -0.07
    8   26    0     -1.47     -0.23
    9   26    0     -3.57     -0.30
   10   26    0     -3.28     -0.41
   11   26    0     -0.27      0.16
   12   26    0     -0.16     -0.21
   13   26    0     -0.08      0.61
   14   26    0      2.70      0.24
   15   26    0      2.84      0.43
   16   26    0      1.00      0.00
   17   26    0     -2.10     -0.02
   18   26    0      1.42     -0.53
   19   26    0     -2.02     -0.16
   20   26    0      0.66      0.04
   21   26    0      0.35     -0.35
   22   26    0      1.50      0.23
   23   26    0     -0.74     -0.16
   24   26    0      0.25      0.16
   25   26    0      1.43     -0.18
   26   26    0     -0.30      0.16
    1   27    0     -0.59     -0.35
    2   27    0     -1.42      0.01
    3   27    0      5.95      0.02
    4   27    0      6.16      0.09
    5   27    0     -1.40      0.27
    6   27    0      0.26      1.12
    7   27    0     -0.45     -0.29
    8   27    0      6.10      0.36
    9   27    0     -7.79     -0.29
   10   27    0      3.98      0.31
   11   27    0      2.68     -0.14
   12   27    0      3.59      0.41
   13   27    0     -1.70     -0.26
   14   27    0      4.08      0.15
   15   27    0      2.77      0.08
   16   27    0     -0.70      0.39
   17   27    0     -1.72     -0.37
   18   27    0      2.42      0.04
   19   27    0     -3.01     -0.32
   20   27    0      2.98      0.19
   21   27    0     -1.89     -0.05
   22   27    0      2.16     -0.22
   23   27    0     -0.87     -0.06
   24   27    0     -0.85     -0.10
   25   27    0      1.86     -0.08
   26   27    0      1.88      0.09
    0   28    0      7.55     -0.71
    1   28    0      1.70      0.09
    2   28    0      1.64      0.21
    3   28    0     -0.49      0.12
    4   28    0      8.10      0.53
    5   28    0     -0.87     -0.33
    6   28    0     -1.95      0.07
    7   28    0      0.67     -0.29
    8   28    0      1.82     -0.27
    9   28    0     -0.97     -0.15
   10   28    0     -2.09     -0.11
   11   28    0      2.70     -0.49
   12   28    0      0.94     -0.10
   13   28    0     -2.05      0.17
   14   28    0      1.28      0.58
   15   28    0      1.70      0.29
   16   28    0      1.40      0.36
   17   28    0     -0.70     -0.15
   18   28    0      2.70     -0.06
   19   28    0     -0.84      0.12
   20   28    0      0.64      0.17
   21   28    0      0.67      0.00
   22   28    0      0.67     -0.16
   23   28    0      1.73      0.01
   24   28    0      0.99     -0.02
   25   28    0      0.66      0.01
    1   29    0      1.39      0.25
    2   29    0      4.12      0.30
    3   29    0     -1.42     -0.18
    4   29    0      4.56     -0.01
    5   29    0     -2.67     -0.01
    6   29    0     -2.19      0.65
    7   29    0      0.11      0.30
    8   29    0      4.26      0.47
    9   29    0     -4.36     -0.36
   10   29    0      0.89      0.34
   11   29    0      3.01     -0.02
   12   29    0      1.20      0.13
   13   29    0     -0.53      0.29
   14   29    0     -0.95      0.13
   15   29    0      5.30      0.04
   16   29    0     -0.33      0.13
   17   29    0     -3.44     -0.01
   18   29    0      1.59      0.45
   19   29    0     -6.75     -0.11
   20   29    0      1.14      0.04
   21   29    0     -1.84      0.10
   22   29    0     -0.19     -0.39
   23   29    0     -2.04     -0.16
   24   29    0     -0.70      0.12
    0   30    0     11.00      0.11
    1   30    0      0.72      0.24
    2   30    0     -2.27      0.29
    3   30    0     -0.07      0.33
    4   30    0      0.69      0.16
    5   30    0      3.29      0.39
    6   30    0      0.74      0.10
    7   30    0      1.76     -0.10
    8   30    0      3.48      0.13
    9   30    0     -0.23     -0.05
   10   30    0      1.16      0.45
   11   30    0      3.07     -0.16
   12   30    0      0.99      0.38
   13   30    0     -0.74     -0.33
   14   30    0      2.71      0.42
   15   30    0      0.07     -0.14
   16   30    0      1.09      0.45
   17   30    0     -2.57      0.08
   18   30    0      0.69      0.05
   19   30    0      1.98      0.36
   20   30    0      0.81     -0.27
   21   30    0      1.61      0.04
   22   30    0      2.73      0.01
   23   30    0     -1.98      0.09
    1   31    0      0.98      0.32
    2   31    0     -2.21     -0.06
    3   31    0      0.13      0.51
    4   31    0      6.35      0.03
    5   31    0     -0.84      0.08
    6   31    0      1.21     -0.06
    7   31    0     -0.06      0.75
    8   31    0      1.02      0.05
    9   31    0      0.80      0.87
   10   31    0     -3.30      0.08
   11   31    0      5.45      0.37
   12   31    0     -2.67     -0.14
   13   31    0     -2.50     -0.07
   14   31    0      0.43     -0.11
   15   31    0      2.56     -0.07
   16   31    0     -1.06      0.32
   17   31    0     -3.07      0.19
   18   31    0      1.71      0.17
   19   31    0     -2.89     -0.30
   20   31    0      2.00      0.58
   21   31    0     -3.64     -0.10
   22   31    0      1.16     -0.01
    0   32    0     -2.05      0.06
    1   32    0     -0.49      0.12
    2   32    0     -2.84     -0.05
    3   32    0     -2.03      0.29
    4   32    0      5.33     -0.03
    5   32    0      4.06     -0.39
    6   32    0     -1.50      0.18
    7   32    0      1.96      0.55
    8   32    0      1.56      0.33
    9   32    0      1.23      0.39
   10   32    0     -0.10      0.16
   11   32    0     -2.10     -0.33
   12   32    0      2.19     -0.03
   13   32    0     -1.34     -0.01
   14   32    0      0.63      0.12
   15   32    0      3.14      0.32
   16   32    0     -1.25      0.08
   17   32    0      1.11      0.15
   18   32    0      0.87      0.04
   19   32    0     -0.05      0.02
   20   32    0      0.80      0.11
   21   32    0     -1.09      0.13
    1   33    0     -0.74     -0.04
    2   33    0      7.34     -0.05
    3   33    0      4.61     -0.16
    4   33    0      2.87      0.29
    5   33    0      2.63      0.52
    6   33    0      1.95     -0.13
    7   33    0     -0.47      2.29
    8   33    0      0.74     -0.60
    9   33    0      1.73      0.42
   10   33    0     -1.76      0.03
   11   33    0      0.21      0.35
   12   33    0     -2.45      0.23
   13   33    0     -1.94      0.08
   14   33    0      0.83      0.29
   15   33    0      2.33     -0.13
   16   33    0      0.97      0.05
   17   33    0     -2.47     -0.26
   18   33    0      0.67      0.18
   19   33    0     -2.76     -0.14
   20   33    0      0.45      0.44
    0   34    0      5.74     -0.24
    1   34    0      0.96     -0.36
    2   34    0     -4.04     -0.16
    3   34    0     -1.18     -0.08
    4   34    0      1.29      0.39
    5   34    0     -1.73      0.42
    6   34    0     -0.44      0.23
    7   34    0     -0.28     -0.46
    8   34    0     -0.22      0.20
    9   34    0     -0.02     -0.52
   10   34    0     -0.22     -0.07
   11   34    0     -1.11      0.59
   12   34    0     -0.59     -0.20
   13   34    0      0.60      0.45
   14   34    0      0.97     -0.37
   15   34    0      1.29      0.28
   16   34    0     -0.95     -0.37
   17   34    0     -0.64      0.24
   18   34    0     -0.21      0.00
    1   35    0      1.06     -0.17
    2   35    0      1.35     -0.12
    3   35    0      1.48      0.44
    4   35    0      1.19      0.12
    5   35    0      1.92      0.22
    6   35    0      1.04     -0.27
    7   35    0      1.10      0.53
    8   35    0      0.86     -0.49
    9   35    0      5.18      0.49
   10   35    0      0.58      0.51
   11   35    0     -3.47      0.18
   12   35    0      0.33      0.42
   13   35    0     -5.97     -0.13
   14   35    0      3.00      0.13
   15   35    0      0.79      0.17
   16   35    0      0.26     -0.09
   17   35    0      0.75      0.19
    0   36    0      2.80      0.04
    1   36    0     -2.67     -0.18
    2   36    0     -0.26      0.03
    3   36    0     -2.07     -0.16
    4   36    0      0.43      0.62
    5   36    0     -0.67     -0.49
    6   36    0     -0.92      0.05
    7   36    0      1.30     -0.16
    8   36    0     -1.05      0.41
    9   36    0     -1.40      0.15
   10   36    0     -0.67      0.00
   11   36    0     -5.77      0.58
   12   36    0      0.19     -0.28
   13   36    0      0.62      0.87
   14   36    0      1.48     -0.21
   15   36    0      0.11      0.43
    1   37    0     -1.46      0.16
    2   37    0     -0.08     -0.08
    3   37    0      2.45      0.44
    4   37    0     -2.14     -0.28
    5   37    0      0.93      0.01
    6   37    0      0.80     -0.21
    7   37    0     -1.05      0.10
    8   37    0     -1.81      0.05
    9   37    0      1.41     -0.53
   10   37    0      0.41      0.14
   11   37    0     -2.61      0.16
   12   37    0      0.78      0.21
   13   37    0     -1.00     -0.06
    0   38    0      2.01      0.54
    1   38    0     -0.18     -0.10
    2   38    0      0.40      0.16
    3   38    0     -1.20     -0.15
    4   38    0      0.77      0.41
    5   38    0     -0.85     -0.16
    6   38    0     -2.49      0.25
    7   38    0      0.31     -0.35
    8   38    0     -2.08      0.08
    9   38    0     -0.67      0.33
   10   38    0      1.44     -0.13
   11   38    0     -1.07      0.57
    1   39    0     -1.48      0.26
    2   39    0      0.15      0.16
    3   39    0     -1.13      0.66
    4   39    0     -2.81      0.04
    5   39    0     -0.03     -0.31
    6   39    0     -1.64      0.09
    7   39    0     -1.48     -0.28
    8   39    0      0.85     -0.02
    0   40    0      1.08      0.59
    1   40    0     -1.01      0.06
    2   40    0     -0.68      0.06
    0    0    1    147.72     -2.36
    1    0    1      0.75     37.91
    2    0    1    -44.34     -0.32
    3    0    1      2.25    128.96
    4    0    1    116.30     -0.36
    5    0    1      0.25     37.63
    6    0    1    -59.18     -0.73
    7    0    1      0.26     32.00
    8    0    1    -60.07     -0.37
    9    0    1     -0.12    -19.92
   10    0    1     -1.32     -0.97
   11    0    1      0.68      8.12
   12    0    1      9.92      1.11
   13    0    1     -0.29     -1.79
   14    0    1     12.45      0.35
   15    0    1      0.04     -0.21
   16    0    1     -1.69     -0.61
   17    0    1     -1.08      6.22
   18    0    1     17.54     -1.17
   19    0    1     -1.33     -1.43
   20    0    1     -0.09     -1.14
   21    0    1     -1.82      1.59
   22    0    1     -4.58     -0.15
   23    0    1     -1.15      1.61
   24    0    1      4.59     -0.60
   25    0    1      0.51      3.72
   26    0    1     -0.94      0.31
   27    0    1      0.60     -0.85
   28    0    1     -0.12      0.36
   29    0    1     -0.76      0.83
   30    0    1      1.63      0.20
   31    0    1     -0.54     -1.30
   32    0    1      4.88     -0.06
   33    0    1     -0.15      0.96
   34    0    1     -2.35     -0.09
   35    0    1      0.46      0.52
   35    1    1     -0.59     -1.08
   34    1    1     -1.01     -1.43
   33    1    1      0.23     -0.05
   32    1    1     -1.08     -4.02
   31    1    1     -2.05     -0.01
   30    1    1      2.42     -2.75
   29    1    1     -2.25      1.91
   28    1    1     -2.21     -4.91
   27    1    1     -6.33     -0.44
   26    1    1     -4.67      1.09
   25    1    1     -2.16      0.10
   24    1    1      2.00      4.48
   23    1    1     -5.91      1.36
   22    1    1      6.07      3.49
   21    1    1     -4.18      2.79
   20    1    1     -6.47      3.97
   19    1    1    -10.11      0.36
   18    1    1      5.77      4.83
   17    1    1     -5.53      4.06
   16    1    1      3.37     -2.87
   15    1    1     -4.10      3.64
   14    1    1    -12.92      9.28
   13    1    1    -21.64     -5.75
   12    1    1      0.21     -2.42
   11    1    1    -18.29      2.78
   10    1    1     11.65     21.87
    9    1    1    -41.30     16.30
    8    1    1      2.68     26.81
    7    1    1    -19.33     -4.07
    6    1    1    -42.11     25.89
    5    1    1    -54.35    -31.88
    4    1    1     -2.99     15.24
    3    1    1     30.66    -17.55
    2    1    1    137.48   -187.87
    1    1    1    -23.41      8.27
   34    2    1     -0.86     -0.30
   33    2    1      0.54      0.96
   32    2    1      0.02     -1.61
   31    2    1     -1.15     -4.11
   30    2    1      2.64     -0.38
   29    2    1      1.01     -1.28
   28    2    1      7.09     -0.88
   27    2    1     -2.06      0.17
   26    2    1     -2.19     -3.01
   25    2    1     -0.40      0.89
   24    2    1     -4.08     -3.79
   23    2    1      3.91     -0.34
   22    2    1      4.05     -5.40
   21    2    1      1.65      2.29
   20    2    1     -0.64     -5.62
   19    2    1      0.02     -2.89
   18    2    1     -0.42     -1.27
   17    2    1      4.87      5.38
   16    2    1     11.11      4.03
   15    2    1     -9.14      8.98
   14    2    1     10.85     -1.48
   13    2    1     -4.50      4.81
   12    2    1    -15.11     -7.94
   11    2    1     -0.49     -2.22
   10    2    1      6.73      0.58
    9    2    1    -14.43    -12.51
    8    2    1     -2.58     12.86
    7    2    1      8.23     46.74
    6    2    1    -11.26    -12.24
    5    2    1      3.14      6.40
    4    2    1    -47.04      1.89
    3    2    1     52.03     39.57
    2    2    1    -89.69     48.73
    1    2    1     55.06      4.67
    0    2    1    377.80     -3.56
   35    2    1     -0.43     -0.46
   34    3    1      1.05      0.21
   33    3    1      1.23     -0.63
   32    3    1     -1.01     -1.63
   31    3    1     -2.46      0.82
   30    3    1     -4.03     -1.02
   29    3    1     -0.14     -0.02
   28    3    1     -0.67     -1.61
   27    3    1      0.54      1.42
   26    3    1      2.19      3.42
   25    3    1     -2.59      4.23
   24    3    1     -2.08      1.86
   23    3    1     -4.11     -0.34
   22    3    1      1.03      1.98
   21    3    1      1.16      4.37
   20    3    1      6.94      4.64
   19    3    1    -20.43      1.86
   18    3    1      2.77      5.39
   17    3    1     -6.55     -2.74
   16    3    1     -8.24     -0.99
   15    3    1     -2.13      2.26
   14    3    1      0.05     15.24
   13    3    1    -30.32      7.61
   12    3    1     -6.64     -2.93
   11    3    1     -6.25     13.19
   10    3    1    -16.33      9.67
    9    3    1    -26.73      5.82
    8    3    1     -3.29     38.64
    7    3    1    -12.88    -12.87
    6    3    1     43.27     47.35
    5    3    1    -56.43    -17.13
    4    3    1     68.67     25.65
    3    3    1    -49.80    -24.54
    2    3    1    -62.63      7.19
    1    3    1    -20.60    -12.15
   35    3    1      1.15     -2.49
   34    4    1     -0.34      0.22
   33    4    1      1.40     -1.56
   32    4    1      4.24     -3.31
   31    4    1     -1.42     -3.12
   30    4    1      0.12     -1.83
   29    4    1     -1.12     -2.01
   28    4    1      0.18     -2.53
   27    4    1     -0.81     -2.88
   26    4    1      0.41     -2.50
   25    4    1      3.51      2.12
   24    4    1      4.06     -1.42
   23    4    1     -6.16      0.53
   22    4    1     -3.18     -6.45
   21    4    1      5.15     -0.25
   20    4    1     -4.83     -3.11
   19    4    1      3.46      0.47
   18    4    1      4.29      0.60
   17    4    1     -4.76      5.91
   16    4    1     -0.84      0.37
   15    4    1      0.38      0.52
   14    4    1     -0.12      4.04
   13    4    1    -10.92      6.18
   12    4    1     -3.98     15.81
   11    4    1    -14.31     16.74
   10    4    1      5.16     -5.00
    9    4    1     -5.45      3.77
    8    4    1    -16.00     -9.44
    7    4    1     11.78     14.48
    6    4    1    -12.62     17.43
    5    4    1     32.90    -41.52
    4    4    1     70.57      8.45
    3    4    1     18.69    -20.77
    2    4    1    -58.87    -42.32
    1    4    1    -16.79    -34.50
    0    4    1     93.19     -0.69
   34    5    1     -0.88      0.92
   33    5    1      0.65      0.09
   32    5    1      0.78      1.46
   31    5    1      1.60     -1.19
   30    5    1      1.79      1.07
   29    5    1      0.33      0.28
   28    5    1     -3.04      1.38
   27    5    1     -1.52     -0.04
   26    5    1     -3.59      1.24
   25    5    1      4.82      1.86
   24    5    1     -0.06      1.90
   23    5    1     -0.54     -1.78
   22    5    1      2.50      0.60
   21    5    1    -11.55      3.64
   20    5    1     -3.47      4.16
   19    5    1     -9.20     -2.15
   18    5    1      1.25     13.78
   17    5    1    -10.13     -0.95
   16    5    1     -0.49      4.90
   15    5    1     -6.17      0.43
   14    5    1     -0.30      3.10
   13    5    1    -14.00     -2.69
   12    5    1     -4.74      7.97
   10    5    1     -0.84     33.87
    9    5    1    -28.53     11.66
    8    5    1      5.26      8.82
    7    5    1    -22.10     -5.27
    6    5    1     -4.92     17.02
    5    5    1    -42.36      3.04
    4    5    1     24.94    104.29
    3    5    1      0.69     -9.02
    2    5    1     38.49    131.31
    1    5    1    -87.76    -10.09
    0    5    1     -2.45    107.67
   11    5    1    -23.32     10.55
   34    6    1     -1.59     -0.53
   33    6    1     -1.50      0.58
   32    6    1      0.69     -2.83
   31    6    1     -1.48      2.81
   30    6    1      1.69     -1.16
   29    6    1      2.83      1.85
   28    6    1      3.11      0.03
   27    6    1     -3.72     -1.95
   26    6    1     -1.86     -1.42
   25    6    1     -1.22      1.55
   24    6    1      2.37      0.30
   23    6    1      3.84      0.53
   22    6    1     -0.84     -0.89
   21    6    1     -3.23      2.80
   20    6    1     -2.74     -6.25
   19    6    1     -9.78      3.19
   18    6    1     -0.88      0.91
   17    6    1      2.67      4.62
   16    6    1     -9.07     13.36
   15    6    1     -7.22      5.37
   14    6    1      2.84      9.14
   13    6    1      1.63      2.85
   12    6    1     -4.07      3.49
   11    6    1     -4.80      3.29
   10    6    1      6.85     11.82
    9    6    1    -18.85     -3.18
    8    6    1     15.85     22.70
    7    6    1     12.51     -3.87
    6    6    1     12.25    -22.21
    5    6    1    -10.55    -20.30
    4    6    1     21.28    -33.71
    3    6    1      8.57     13.24
    2    6    1    -55.55     30.26
    1    6    1     32.76     -7.97
    0    6    1     85.62      0.22
   34    7    1     -0.59     -0.68
   33    7    1      0.91     -1.33
   32    7    1     -1.06      2.13
   31    7    1     -0.46     -0.45
   30    7    1     -2.12     -0.95
   29    7    1      1.29      0.60
   28    7    1     -1.61      0.00
   27    7    1      0.32     -0.34
   26    7    1     -3.95      0.26
   25    7    1     -5.97     -1.32
   24    7    1     -3.00      0.14
   23    7    1     -3.90     -2.04
   22    7    1     -0.82      5.10
   21    7    1      1.49      2.48
   20    7    1     -9.80      6.31
   19    7    1    -10.61     -0.24
   18    7    1      3.52      3.01
   17    7    1    -10.36     -1.23
   16    7    1     -1.09      7.13
   15    7    1     -7.42      1.03
   14    7    1     -1.44     17.99
   13    7    1    -17.94      0.78
   12    7    1      6.88      7.58
   11    7    1     -7.42      5.06
   10    7    1     -5.90      1.31
    9    7    1    -30.61     10.99
    8    7    1      8.44     11.82
    7    7    1    -27.22     -3.84
    6    7    1     15.49     46.42
    5    7    1    -22.85     -9.40
    4    7    1      8.99     13.41
    3    7    1    -34.87     11.20
    2    7    1      3.41     54.79
    1    7    1    -35.83     19.79
    0    7    1     -4.26     86.24
   34    8    1     -1.62     -1.23
   33    8    1      0.99      2.62
   32    8    1      1.24     -1.56
   31    8    1     -1.59      3.41
   30    8    1      0.18      2.31
   29    8    1      0.23      2.51
   28    8    1      1.61      0.20
   27    8    1      2.75     -0.31
   26    8    1     -0.36     -1.23
   25    8    1      3.03      2.73
   24    8    1     -1.88     -0.74
   23    8    1     -6.41      1.72
   22    8    1      0.64      0.10
   21    8    1     -5.01      6.34
   20    8    1      0.12      5.23
   19    8    1     -1.44      5.27
   18    8    1     -1.72      5.82
   17    8    1      0.06      7.06
   16    8    1     -4.45     -0.51
   15    8    1     -6.05      2.49
   14    8    1     -1.30      4.65
   13    8    1     -6.00      1.14
   12    8    1      2.75     13.66
   11    8    1     -1.50     -4.02
   10    8    1     13.70      4.24
    8    8    1      6.89    -13.55
    7    8    1     -5.56      9.14
    6    8    1     17.17      6.80
    5    8    1      5.95     13.90
    4    8    1     24.54     21.25
    3    8    1     -2.63      7.27
    2    8    1    -31.05     -5.16
    1    8    1     -5.62     41.26
    0    8    1     54.10      0.05
    9    8    1     -2.09    -10.05
   34    9    1     -2.15     -0.25
   33    9    1      0.18      1.68
   32    9    1     -1.03     -0.25
   31    9    1      2.50      1.11
   30    9    1     -1.66     -4.04
   29    9    1     -2.94     -0.77
   28    9    1     -3.63     -0.56
   27    9    1     -5.51     -1.47
   26    9    1     -1.09      0.51
   25    9    1      0.42     -1.29
   24    9    1     -4.15      2.31
   23    9    1     -1.19     -1.06
   22    9    1     -8.39      1.11
   21    9    1     -9.25      4.48
   20    9    1     -4.76      0.44
   19    9    1     -8.17      3.84
   18    9    1      4.51     10.71
   17    9    1     -3.53      0.91
   16    9    1      0.24      9.79
   15    9    1     -0.70      0.92
   14    9    1     -1.63      0.77
   13    9    1     -9.77      3.13
   12    9    1      0.57      0.39
   11    9    1    -14.09     10.87
   10    9    1      4.06     14.72
    9    9    1     -8.53      4.80
    8    9    1      8.21     -5.01
    7    9    1    -18.34    -13.33
    6    9    1      8.02    -11.05
    5    9    1    -28.97     14.75
    4    9    1      7.98     -4.92
    3    9    1    -11.45      9.44
    2    9    1     -5.93     29.36
    1    9    1    -37.41    -11.60
    0    9    1     -2.01    -15.02
   33   10    1     -1.10      1.38
   32   10    1     -0.70     -0.51
   31   10    1     -0.05      0.79
   30   10    1      1.43      1.15
   29   10    1      4.20     -0.27
   28   10    1     -0.52     -2.08
   27   10    1     -2.45      0.13
   26   10    1     -1.84     -0.46
   25   10    1     -1.86      4.35
   24   10    1      4.42      2.14
   23   10    1      4.71      1.97
   22   10    1     -2.45      7.98
   21   10    1     -0.91     -0.47
   20   10    1     -5.54      3.99
   19   10    1     -7.71      4.41
   18   10    1      6.12      4.15
   17   10    1     -5.27     12.84
   16   10    1     -1.63      5.98
   15   10    1     -5.63      3.94
   14   10    1      4.25      2.20
   13   10    1      5.47     -4.07
   12   10    1     -3.62    -10.17
   11   10    1      0.87      1.86
   10   10    1      4.25     -6.79
    9   10    1     -5.81     15.22
    8   10    1     11.96     13.54
    7   10    1      3.52     -2.33
    6   10    1      0.82     10.47
    5   10    1      4.18     -2.23
    3   10    1     -2.55     14.85
    2   10    1      0.15      7.39
    1   10    1      7.81     11.05
    0   10    1     23.22     -0.40
    4   10    1     27.87     -1.60
   33   11    1     -0.35      0.89
   32   11    1     -0.85     -0.19
   31   11    1     -1.44      0.85
   30   11    1     -0.44     -2.88
   29   11    1     -0.40     -0.35
   28   11    1     -1.49     -0.87
   27   11    1     -1.75      1.18
   26   11    1     -3.69     -0.21
   25   11    1     -6.30     -0.53
   24   11    1     -3.40      2.59
   23   11    1     -3.24      4.67
   22   11    1      2.58      4.08
   21   11    1     -0.13      4.59
   20   11    1     -7.94      3.56
   19   11    1     -2.83     -4.36
   18   11    1     -2.99      1.56
   17   11    1     -6.85      0.67
   16   11    1      4.24      5.40
   15   11    1     -5.32      6.01
   14   11    1     -0.68      5.13
   13   11    1     -2.77      3.35
   12   11    1      3.33      2.60
   11   11    1     -1.10     -5.18
   10   11    1     -7.52     -5.28
    9   11    1     -0.95      5.84
    8   11    1     10.71     -8.51
    7   11    1    -12.46     14.84
    6   11    1      1.58     12.05
    5   11    1    -25.15      3.91
    4   11    1    -13.89     -9.60
    3   11    1    -18.35     -0.75
    2   11    1     20.36     17.76
    1   11    1    -31.46      1.12
    0   11    1     -0.73    -10.66
   33   12    1      1.96     -0.55
   32   12    1     -1.42     -1.57
   31   12    1     -0.06     -2.88
   30   12    1      0.24      0.84
   29   12    1      0.37     -2.80
   28   12    1      0.36     -2.30
   27   12    1      0.43      1.89
   26   12    1     -0.06      0.25
   25   12    1     -1.76      3.65
   24   12    1     -0.16      1.33
   23   12    1     -1.13     -0.34
   22   12    1     -0.28      9.01
   21   12    1     -3.52      3.79
   20   12    1      5.27      8.40
   19   12    1     -1.91      0.12
   18   12    1     -2.69      6.00
   17   12    1     -2.56      0.90
   16   12    1     -3.47      0.06
   15   12    1     -7.35      7.14
   14   12    1     11.09      4.12
   13   12    1      0.39      8.38
   12   12    1      2.81      0.80
   11   12    1      2.32      3.99
   10   12    1     -2.33      1.14
    9   12    1     -1.89     -3.91
    8   12    1      0.21     -3.34
    6   12    1      8.80      8.13
    5   12    1     -1.80      6.58
    4   12    1      4.27      4.20
    3   12    1    -11.82    -19.23
    2   12    1     -4.99     -2.62
    1   12    1      4.55    -10.36
    0   12    1     42.70     -0.80
    7   12    1     -0.74     -7.53
   33   13    1     -1.03     -0.17
   32   13    1      0.01      1.00
   31   13    1      1.27     -0.22
   30   13    1     -2.08      0.57
   29   13    1     -0.44     -0.71
   28   13    1     -2.72      0.84
   27   13    1     -2.00      2.41
   26   13    1      0.68     -0.68
   25   13    1     -3.20      1.79
   24   13    1      0.73      1.43
   23   13    1     -0.98      2.26
   22   13    1     -2.49      3.46
   21   13    1     -1.56      2.70
   20   13    1     -3.13      5.85
   19   13    1     -6.05      7.48
   18   13    1      0.26      0.34
   17   13    1     -4.94      0.11
   16   13    1     -8.04     -0.76
   15   13    1     -2.45     -4.41
   14   13    1     -2.82      4.50
   13   13    1     -1.42      2.04
   12   13    1      7.03      8.49
   11   13    1     -7.89      2.89
   10   13    1      0.05      7.92
    9   13    1     -4.54      5.05
    8   13    1     -0.88      7.14
    7   13    1    -12.72     -3.37
    6   13    1      0.16     16.61
    5   13    1    -18.56      7.80
    4   13    1      0.59      6.99
    3   13    1    -14.60      8.20
    2   13    1     -3.19     24.60
    1   13    1    -22.45     -5.62
    0   13    1     -0.55     -7.38
   32   14    1     -0.40     -1.07
   31   14    1      0.09     -1.14
   30   14    1      0.06      1.71
   29   14    1      1.37     -1.30
   28   14    1     -3.47      1.20
   27   14    1     -0.21      1.95
   26   14    1     -1.99      1.59
   25   14    1     -1.95      2.27
   24   14    1      2.73     -1.53
   23   14    1     -1.94      2.24
   22   14    1     -0.01      1.08
   21   14    1     -0.67     -1.66
   20   14    1     -2.10      3.34
   19   14    1     -2.28     -3.51
   18   14    1      2.61     11.31
   17   14    1     -8.21      5.25
   16   14    1      2.01     -0.30
   15   14    1     -8.03      2.86
   14   14    1      5.43      3.82
   13   14    1     -2.63      0.11
   12   14    1      3.68      5.64
   11   14    1     -0.43     -2.69
   10   14    1      4.04      5.44
    9   14    1     -7.02      1.64
    8   14    1      5.30     -1.85
    7   14    1    -11.91    -14.30
    6   14    1     -5.23      2.96
    5   14    1     -3.93     -7.08
    4   14    1      8.69     -3.25
    3   14    1     -7.27    -15.81
    2   14    1     -3.05      2.12
    1   14    1     -0.07     -9.53
    0   14    1      4.65     -0.17
   32   15    1      0.29      0.50
   31   15    1      0.30      0.42
   30   15    1      0.40      0.57
   29   15    1      0.16     -0.94
   28   15    1     -0.76     -0.88
   27   15    1     -0.62      0.96
   26   15    1      0.75      0.47
   25   15    1     -1.70      0.14
   24   15    1      1.16      4.05
   23   15    1     -2.39      3.08
   22   15    1     -0.91      4.17
   21   15    1     -4.64      7.60
   20   15    1     -4.29     -2.17
   19   15    1     -0.29      3.64
   18   15    1     -6.18      1.67
   17   15    1     -3.89      2.74
   16   15    1      1.88      5.49
   15   15    1     -6.05      4.77
   14   15    1      1.55      4.72
   13   15    1     -4.81      2.48
   12   15    1      0.34      9.86
   11   15    1    -13.64     -1.70
   10   15    1     -2.59     12.75
    9   15    1     -1.61      5.69
    8   15    1      3.04     13.35
    7   15    1    -16.52      4.83
    6   15    1     -5.26     16.56
    5   15    1    -27.23     -3.51
    4   15    1     -3.74      6.00
    3   15    1     -2.16     -2.79
    2   15    1     10.57     22.76
    1   15    1     -7.24     -6.62
    0   15    1     -0.20      8.20
   32   16    1     -1.79     -0.72
   31   16    1      0.99      1.56
   30   16    1     -0.62      3.05
   29   16    1     -0.04      1.67
   28   16    1     -3.55      1.15
   27   16    1     -1.56      1.12
   26   16    1     -1.62     -0.95
   25   16    1      0.51      0.60
   24   16    1      3.34     -3.39
   23   16    1      1.28     -1.03
   22   16    1     -3.03      3.77
   21   16    1     -2.83      1.02
   20   16    1     -1.78     -0.73
   19   16    1     -5.67      0.30
   18   16    1     -2.47      0.36
   17   16    1     -2.06     -4.08
   16   16    1     -2.58      3.11
   15   16    1     -5.64      0.76
   14   16    1     12.03      7.77
   13   16    1     -8.00      1.69
   12   16    1      4.76      1.15
   11   16    1     -9.62     -2.79
   10   16    1      1.48      2.37
    9   16    1     -9.39     -1.49
    8   16    1      9.16      2.78
    7   16    1      1.08     -3.62
    6   16    1      0.44      5.52
    5   16    1     -4.23      6.75
    4   16    1     -2.77    -10.34
    3   16    1     -8.02     -6.96
    2   16    1     -7.05     -4.12
    1   16    1      1.38     -2.52
    0   16    1      9.26     -0.97
   31   17    1      0.58      0.04
   30   17    1      1.87     -0.33
   29   17    1      2.55      1.39
   28   17    1      1.88     -1.22
   27   17    1     -1.09      0.37
   26   17    1     -1.56     -1.24
   25   17    1     -3.08      0.94
   24   17    1      3.39      0.58
   23   17    1     -0.56      1.41
   22   17    1      0.34      2.42
   21   17    1     -3.62      1.42
   20   17    1     -4.99      7.31
   19   17    1     -3.27      3.94
   18   17    1      0.61      4.61
   17   17    1     -8.26      0.74
   16   17    1     -1.09     -0.32
   15   17    1     -1.59      2.65
   14   17    1     -0.62      8.42
   13   17    1     -3.66      4.49
   12   17    1      1.60      5.13
   11   17    1    -10.96      4.02
   10   17    1     -4.64      0.95
    9   17    1     -7.03      4.14
    8   17    1      0.59      2.44
    7   17    1     -7.72     -1.93
    6   17    1      0.80     13.02
    5   17    1    -15.81     -5.11
    4   17    1     -0.20      4.50
    3   17    1     -3.02     -1.55
    2   17    1     -5.12     13.01
    1   17    1     -4.30     -4.03
    0   17    1      0.20      7.78
   31   18    1     -0.65     -0.20
   30   18    1     -0.27      1.37
   29   18    1     -1.22      1.38
   28   18    1     -0.51      2.17
   27   18    1     -0.23     -0.09
   26   18    1     -1.41      1.03
   25   18    1     -1.23     -0.23
   24   18    1     -2.06     -0.88
   23   18    1      0.25      1.52
   22   18    1      2.21     -0.54
   21   18    1      0.70      0.67
   20   18    1     -1.51     -4.89
   19   18    1     -2.34      0.04
   18   18    1     -0.16      8.39
   17   18    1     -1.64     -2.12
   16   18    1      0.84     -1.51
   15   18    1     -4.28      0.41
   14   18    1      1.76      3.55
   13   18    1     -6.57      1.24
   12   18    1     -0.85      5.66
   11   18    1     -4.77      2.89
   10   18    1      0.75     -0.65
    9   18    1     -8.64      6.06
    8   18    1      3.58     -4.93
    7   18    1     -2.46      3.01
    6   18    1      2.28      3.89
    5   18    1      4.29      6.69
    4   18    1      9.51     -4.76
    3   18    1     -4.75      1.24
    2   18    1     -5.80     -1.50
    1   18    1     -1.78      8.05
    0   18    1     -4.46     -1.31
   30   19    1      1.02      0.15
   29   19    1      1.40      2.10
   28   19    1      3.13     -2.34
   27   19    1     -0.46      1.51
   26   19    1      2.58     -1.07
   25   19    1      0.07      0.34
   24   19    1     -0.50      2.47
   23   19    1     -2.10      0.68
   22   19    1     -3.67      6.01
   21   19    1     -5.07     -0.39
   20   19    1      0.06     -1.05
   19   19    1     -1.44      0.25
   18   19    1     -0.36      5.34
   17   19    1     -8.60     -4.32
   16   19    1      1.93      6.45
   15   19    1     -1.00      0.54
   14   19    1      3.21      0.68
   13   19    1     -4.66      0.13
   12   19    1     -4.71     -0.87
   11   19    1     -2.00      2.85
   10   19    1     -1.01      2.28
    9   19    1      1.21      2.34
    8   19    1      1.35     -6.76
    7   19    1     -3.12      2.15
    6   19    1     -6.54     -1.77
    5   19    1    -11.63      0.09
    4   19    1      4.51      2.71
    3   19    1      3.45     -3.25
    2   19    1      1.76      5.00
    1   19    1     -9.87     -3.13
    0   19    1      0.43      3.29
   30   20    1      0.24      2.45
   29   20    1     -0.22      0.19
   28   20    1     -1.88      2.35
   27   20    1     -1.35     -0.32
   26   20    1      2.44      0.28
   25   20    1     -2.52     -0.08
   24   20    1      2.81      0.07
   23   20    1     -0.82      0.46
   22   20    1     -0.80      5.88
   21   20    1     -1.99      2.20
   20   20    1     -1.92     -0.87
   19   20    1     -2.56      2.75
   18   20    1      4.08     -0.14
   17   20    1     -1.07      1.92
   16   20    1     -5.40      0.83
   15   20    1     -2.65      1.36
   14   20    1      1.89      3.92
   13   20    1     -6.66      1.46
   12   20    1     -1.33     -1.07
   11   20    1     -3.41      2.76
   10   20    1     -2.64     -1.58
    9   20    1     -2.95      1.88
    8   20    1      6.03      3.54
    7   20    1     -1.96     -0.48
    6   20    1     -1.05      2.68
    5   20    1     -2.67      7.59
    4   20    1      7.69     -0.75
    3   20    1     -3.35      6.25
    2   20    1     -2.80      4.80
    1   20    1      4.71      2.02
    0   20    1      1.75     -1.26
   29   21    1      0.32      1.84
   28   21    1      1.73      1.65
   27   21    1      0.82     -0.33
   26   21    1     -0.87      1.20
   25   21    1      1.37      2.94
   24   21    1      2.64     -0.72
   23   21    1     -0.91      1.45
   22   21    1      1.00      1.98
   21   21    1     -4.17     -1.44
   20   21    1     -2.20      1.39
   19   21    1     -0.58     -1.24
   18   21    1      1.69      1.95
   17   21    1     -6.16     -2.68
   16   21    1      2.29      1.46
   15   21    1      0.41      1.35
   14   21    1      1.12      5.40
   13   21    1     -3.59     -6.07
   12   21    1      1.35     -0.34
   11   21    1      1.34      1.31
   10   21    1      2.45     -2.18
    9   21    1     -0.89      2.35
    8   21    1      3.52     -6.72
    7   21    1      4.69      2.81
    6   21    1     -9.53     -1.91
    5   21    1     -9.51     -0.63
    4   21    1      0.33     -1.48
    3   21    1     -3.31      3.22
    2   21    1     -0.54      1.09
    1   21    1     -3.54      3.11
    0   21    1     -0.23      4.62
   29   22    1     -0.53      2.08
   28   22    1     -0.29      0.10
   27   22    1     -1.37      0.79
   26   22    1      2.20      2.48
   25   22    1     -1.72     -1.48
   24   22    1     -0.72      3.21
   23   22    1     -1.16      0.32
   22   22    1      1.73      3.83
   21   22    1     -3.58      3.12
   20   22    1     -2.04     -0.13
   19   22    1     -5.13      3.73
   18   22    1      0.71      3.27
   17   22    1     -1.83      1.22
   16   22    1     -4.04     -1.30
   15   22    1     -1.98      5.55
   14   22    1      2.04      0.12
   13   22    1     -7.02     -0.17
   12   22    1     -1.04      2.61
   11   22    1      0.81     -3.05
   10   22    1      0.23      1.06
    9   22    1     -3.86     -0.59
    8   22    1      7.03      6.54
    7   22    1     -3.64      1.75
    6   22    1      2.90      9.29
    5   22    1      0.16      0.24
    4   22    1      6.21      5.16
    3   22    1     -7.88     -3.17
    2   22    1     -3.06      3.24
    1   22    1     -1.19      0.87
    0   22    1      5.72     -2.16
   28   23    1      0.59      1.09
   27   23    1     -0.53      1.31
   26   23    1      1.00      0.37
   25   23    1     -1.42      3.50
   24   23    1      0.56      1.77
   23   23    1     -0.58      0.30
   22   23    1      0.70      1.93
   21   23    1     -1.05     -1.62
   20   23    1      2.52     -0.59
   19   23    1     -0.65      1.94
   18   23    1      2.15      0.11
   17   23    1     -4.41     -1.26
   16   23    1     -0.47      3.57
   15   23    1      3.29      1.33
   14   23    1      3.87      2.52
   13   23    1     -6.31     -0.80
   12   23    1      2.97     -1.55
   11   23    1      0.54     -0.77
   10   23    1      2.38      3.42
    9   23    1     -4.84     -1.95
    8   23    1      1.97     -1.33
    7   23    1      0.52      3.65
    6   23    1     -7.00      0.99
    5   23    1     -5.93      4.21
    4   23    1      3.54      3.04
    3   23    1      0.62      0.50
    2   23    1     -5.16      1.84
    1   23    1     -3.42     -1.63
    0   23    1     -1.05      4.92
   28   24    1     -0.33     -0.20
   27   24    1      2.35      0.38
   26   24    1      1.46     -1.02
   25   24    1      0.62      1.76
   24   24    1     -0.04      0.71
   23   24    1     -1.00     -0.37
   22   24    1     -0.90      3.13
   21   24    1     -0.56     -0.13
   20   24    1     -1.95      0.72
   19   24    1     -2.71      1.21
   18   24    1      3.19      2.84
   17   24    1     -3.20      1.89
   16   24    1     -2.73     -1.83
   15   24    1      1.15      1.52
   14   24    1      2.59      2.47
   13   24    1     -2.29      1.21
   12   24    1      1.37     -0.38
   11   24    1      0.93      0.21
   10   24    1      0.57      0.43
    9   24    1     -1.56     -2.18
    8   24    1      2.03      6.41
    7   24    1     -4.32     -1.27
    6   24    1     -0.43      4.70
    5   24    1     -1.10     -1.84
    4   24    1     10.06      4.40
    3   24    1     -7.11     -3.60
    2   24    1     -0.16      1.87
    1   24    1     -1.38     -4.98
    0   24    1      2.39     -1.48
   27   25    1     -1.46     -0.71
   26   25    1      0.22      1.55
   25   25    1     -0.08      0.87
   24   25    1     -0.65      1.50
   23   25    1     -2.84      1.09
   22   25    1      1.33      4.22
   21   25    1     -1.13     -0.64
   20   25    1      2.57      0.52
   19   25    1     -0.99      1.78
   18   25    1      3.70      1.91
   17   25    1     -2.59      0.42
   16   25    1     -0.92      2.33
   15   25    1      0.46      0.42
   14   25    1      2.00      1.56
   13   25    1     -3.61     -0.27
   12   25    1      0.75      2.62
   11   25    1      0.14      4.31
   10   25    1      2.46      2.60
    9   25    1     -7.48      0.88
    8   25    1      3.43      5.35
    7   25    1     -1.50      0.55
    6   25    1     -5.62      3.88
    5   25    1     -4.87     -0.42
    4   25    1      5.69      3.74
    3   25    1      2.39      2.76
    2   25    1      2.83      0.89
    1   25    1     -2.24     -0.14
    0   25    1     -1.64      2.44
   26   26    1      1.29     -1.87
   25   26    1      1.75      0.14
   24   26    1      0.12     -2.22
   23   26    1      2.22     -0.59
   22   26    1      0.03      0.99
   21   26    1      0.78      0.09
   20   26    1     -0.04      2.03
   19   26    1      0.10     -1.42
   18   26    1      4.63      1.16
   17   26    1     -1.10     -0.08
   16   26    1      0.39     -0.14
   15   26    1      0.32      0.30
   14   26    1      1.35     -1.06
   13   26    1     -3.74     -0.45
   12   26    1     -2.04     -0.34
   11   26    1      3.95      0.36
   10   26    1     -2.53     -1.85
    9   26    1     -0.33      1.44
    8   26    1      1.58     -2.41
    7   26    1     -0.26      1.16
    6   26    1     -1.74     -1.52
    5   26    1     -0.31     -3.79
    4   26    1      3.51     -0.87
    3   26    1     -3.01     -3.85
    2   26    1     -1.42     -0.11
    1   26    1      0.04     -1.95
    0   26    1      7.97     -0.40
   25   27    1     -1.09     -0.43
   24   27    1     -0.34      1.79
   23   27    1     -2.91     -2.00
   22   27    1      1.63      2.28
   21   27    1     -1.34      1.02
   20   27    1      3.65      1.60
   19   27    1     -3.58      0.74
   18   27    1      3.92      2.52
   17   27    1      0.80     -1.66
   16   27    1      0.01      2.07
   15   27    1      4.08     -0.93
   14   27    1      0.94      1.69
   13   27    1     -4.69     -0.38
   12   27    1      0.12     -0.39
   11   27    1     -0.11      1.16
   10   27    1     -2.31      4.35
    9   27    1     -5.32     -0.71
    8   27    1      1.91      2.50
    7   27    1     -2.17      2.93
    6   27    1     -1.21      0.20
    5   27    1     -4.99     -1.49
    4   27    1      5.46      2.22
    3   27    1     -1.01     -0.59
    2   27    1     -1.08     -3.07
    1   27    1     -1.09     -1.67
    0   27    1     -0.45      0.61
   25   28    1      0.49      2.14
   24   28    1      0.10     -0.15
   23   28    1     -0.33     -1.03
   22   28    1      1.34      1.78
   21   28    1      0.72     -0.12
   20   28    1      0.51     -0.25
   19   28    1     -0.92      2.13
   18   28    1      3.28      0.75
   17   28    1     -3.38     -1.05
   16   28    1      1.48     -0.21
   15   28    1      2.44     -0.41
   14   28    1     -0.74      3.09
   13   28    1     -2.54     -1.67
   12   28    1     -2.70     -2.63
   11   28    1      0.15      0.91
   10   28    1     -0.20     -4.63
    9   28    1     -0.30     -1.21
    8   28    1     -0.97     -0.03
    7   28    1      2.60      1.16
    6   28    1     -0.91     -3.64
    5   28    1      2.87      2.01
    4   28    1      3.25      0.14
    3   28    1     -1.53      0.22
    2   28    1     -2.64     -3.59
    1   28    1     -0.55     -1.25
    0   28    1      3.36     -0.12
   24   29    1     -0.94      0.29
   23   29    1     -2.05      0.82
   22   29    1      1.93      1.68
   21   29    1     -1.56     -2.71
   20   29    1      3.61      0.93
   19   29    1     -2.16     -0.36
   18   29    1      2.12      1.93
   17   29    1     -1.18     -0.92
   16   29    1     -0.28     -1.36
   15   29    1      2.37     -0.69
   14   29    1      1.83     -0.44
   13   29    1     -2.10     -0.89
   12   29    1     -3.70      1.41
   11   29    1      0.69     -2.62
   10   29    1     -2.21     -2.35
    9   29    1     -4.48     -1.14
    8   29    1      0.84     -0.87
    7   29    1     -1.18     -0.07
    6   29    1     -4.22     -1.91
    5   29    1     -2.73     -1.64
    4   29    1      2.19      2.77
    3   29    1     -1.61     -0.39
    2   29    1     -2.49     -0.85
    1   29    1     -4.55     -1.22
    0   29    1      0.10     -1.34
   23   30    1     -0.19      0.73
   22   30    1     -0.18      1.30
   21   30    1     -1.13      1.55
   20   30    1     -0.10     -0.96
   19   30    1     -0.05      0.73
   18   30    1      0.74      0.86
   17   30    1     -0.22      1.09
   16   30    1     -0.63      0.11
   15   30    1      1.59     -0.51
   14   30    1      1.30      0.60
   13   30    1     -3.13     -1.23
   12   30    1      0.40      0.30
   11   30    1     -0.58     -1.73
   10   30    1     -2.30      0.61
    9   30    1     -1.57     -1.46
    8   30    1      2.62      0.34
    7   30    1      0.56      2.36
    6   30    1     -1.01     -1.16
    5   30    1      4.12      2.10
    4   30    1      3.54      0.28
    3   30    1      0.31      3.13
    2   30    1     -1.97     -2.30
    1   30    1      0.97     -2.03
    0   30    1      0.45     -0.13
   22   31    1      1.38      0.18
   21   31    1      0.33     -0.73
   20   31    1      1.12     -0.52
   19   31    1     -3.03     -0.07
   18   31    1     -0.11      2.80
   17   31    1     -1.18     -0.11
   16   31    1     -1.21      0.19
   15   31    1      3.00      0.75
   14   31    1      0.07     -0.92
   13   31    1     -2.96      0.29
   12   31    1     -0.04     -2.88
   11   31    1     -0.95      0.17
   10   31    1     -3.07     -1.27
    9   31    1     -0.75     -2.42
    8   31    1     -1.61      0.41
    7   31    1     -0.67      1.10
    6   31    1     -1.79     -1.81
    5   31    1      0.53     -2.64
    4   31    1     -0.29      3.54
    3   31    1      1.20      0.88
    2   31    1      2.77     -1.34
    1   31    1     -3.50      3.16
    0   31    1      0.65      2.26
   20   32    1     -0.12     -2.23
   19   32    1      1.12      0.53
   18   32    1     -1.25      0.01
   17   32    1     -1.40      0.49
   16   32    1     -1.20      0.77
   15   32    1      2.09      1.46
   14   32    1     -0.16      1.23
   13   32    1      0.59     -1.53
   12   32    1      1.05      1.71
   11   32    1     -0.42     -1.18
   10   32    1      1.28      1.22
    9   32    1     -1.57     -0.92
    8   32    1      1.04      1.87
    7   32    1      0.01      2.04
    6   32    1     -0.87     -2.77
    5   32    1      1.32      2.76
    4   32    1      0.61     -0.42
    3   32    1      2.18     -2.26
    2   32    1     -3.56     -2.90
    1   32    1      2.25      0.20
    0   32    1      4.57     -0.25
   19   33    1      1.07     -0.21
   18   33    1     -0.22      0.51
   17   33    1     -0.67     -0.27
   16   33    1     -0.81      1.11
   15   33    1      0.36     -0.03
   14   33    1      1.48      1.55
   13   33    1     -3.23      1.76
   12   33    1     -0.88     -0.51
   11   33    1      1.21      1.56
   10   33    1     -1.38     -0.68
    9   33    1      3.37      0.86
    8   33    1     -0.08      0.72
    7   33    1      0.93      0.61
    6   33    1      1.46     -0.02
    5   33    1      0.67      0.74
    4   33    1      1.33     -0.18
    3   33    1      0.33      1.29
    2   33    1      0.99     -2.99
    1   33    1      0.63     -0.42
    0   33    1      0.42      0.76
   18   34    1      0.60      0.90
   17   34    1      1.80     -0.23
   16   34    1     -0.78     -1.23
   15   34    1      1.20      1.56
   14   34    1     -0.86      0.48
   13   34    1      0.12      1.07
   12   34    1      0.64      1.20
   11   34    1     -1.53     -0.06
   10   34    1     -0.11      2.03
    9   34    1      1.86     -1.25
    8   34    1     -0.29     -1.85
    7   34    1      2.40     -0.30
    6   34    1     -0.96     -1.97
    5   34    1      1.51     -0.76
    4   34    1      2.49     -1.13
    3   34    1     -1.21     -0.70
    2   34    1     -2.45     -4.90
    1   34    1     -1.94     -2.52
    0   34    1     -0.43     -0.11
   16   35    1      1.33      0.16
   15   35    1      2.45     -0.04
   14   35    1      1.28     -0.18
   13   35    1     -1.00      1.43
   12   35    1     -1.16      0.19
   11   35    1      0.15      2.22
   10   35    1      0.96      1.32
    9   35    1      2.63      1.50
    8   35    1      0.06      0.42
    7   35    1     -0.65      1.60
    6   35    1      1.10     -2.53
    5   35    1      1.32      0.32
    4   35    1     -0.80      0.25
    3   35    1      2.24      1.30
    2   35    1      4.27     -3.80
    1   35    1     -3.31      1.95
    0   35    1     -0.31     -3.25
   15   36    1      0.48      0.09
   14   36    1      0.80     -1.98
   13   36    1      1.21      2.44
   12   36    1     -0.86     -2.75
   11   36    1      0.03      0.94
   10   36    1     -0.59      0.01
    9   36    1      3.10     -0.88
    8   36    1     -0.34     -0.20
    7   36    1      0.75     -2.73
    6   36    1     -0.42     -0.67
    5   36    1     -2.87     -2.09
    4   36    1      1.19     -1.68
    3   36    1     -0.29     -2.25
    2   36    1     -1.36     -0.29
    1   36    1      0.40      0.01
    0   36    1      3.61     -0.07
   13   37    1     -0.63      0.05
   12   37    1     -0.69     -1.80
   11   37    1     -1.38      1.65
   10   37    1      1.24     -1.32
    9   37    1      3.65      1.01
    8   37    1      1.32     -0.82
    7   37    1      0.08      1.01
    6   37    1      0.99      0.33
    5   37    1     -1.71     -0.79
    4   37    1      0.01     -1.13
    3   37    1     -2.27      0.58
    2   37    1      1.73     -2.87
    1   37    1     -2.17      0.36
    0   37    1     -0.23      0.59
   10   38    1     -0.10     -1.07
    9   38    1     -0.46     -0.53
    8   38    1      1.47     -1.77
    7   38    1      1.47     -1.02
    6   38    1     -0.13      1.58
    5   38    1     -0.66     -0.50
    4   38    1      0.25      2.42
    3   38    1     -0.43     -0.89
    2   38    1      0.26      0.65
    1   38    1     -1.11      0.62
    0   38    1      0.83      0.41
    7   39    1     -1.69     -0.67
    6   39    1      2.69     -0.46
    5   39    1     -1.70      0.12
    4   39    1      1.02      0.94
    3   39    1     -1.46      0.98
    2   39    1      2.22      0.38
    1   39    1     -1.16      0.10
    0   39    1     -0.24      0.27
    0    0    2     41.52     -0.36
    1    0    2      0.87    -43.26
    2    0    2    -88.75     -0.78
    3    0    2      0.03    -16.11
    4    0    2    -16.41     -0.12
    5    0    2     -1.09    -55.83
    6    0    2     27.37     -1.05
    7    0    2     -0.19      3.76
    8    0    2     11.17      0.79
    9    0    2      0.99    -32.27
   10    0    2     28.50     -0.87
   11    0    2     -0.37     -7.76
   12    0    2     -0.22     -3.31
   13    0    2     -0.68     -1.83
   14    0    2      1.31     -0.50
   15    0    2     -0.08     -5.90
   16    0    2     12.25      1.08
   17    0    2      0.54     -6.35
   18    0    2     -2.27     -0.08
   19    0    2      0.11    -14.74
   20    0    2      2.27      0.65
   21    0    2     -0.78      5.06
   22    0    2      7.50      0.38
   23    0    2     -1.77     -4.06
   24    0    2     -3.17      0.13
   25    0    2     -0.03      0.35
   26    0    2     -1.06      0.11
   27    0    2      0.26      5.21
   28    0    2      3.98     -0.08
   29    0    2      0.01      1.54
   30    0    2     -0.12      0.22
   31    0    2     -0.32     -3.94
   32    0    2      0.73      0.41
   33    0    2     -0.04      0.76
   34    0    2     -1.25      0.20
   34    1    2      0.71      1.25
   33    1    2      0.10      1.11
   32    1    2      0.13     -1.79
   31    1    2     -1.17     -0.29
   30    1    2     -3.53     -0.42
   29    1    2      0.89     -1.90
   28    1    2     -1.25     -1.01
   27    1    2      1.14      1.55
   26    1    2      2.14      1.37
   25    1    2     -0.58      4.33
   24    1    2     -2.66      0.85
   23    1    2     -4.92     -3.68
   22    1    2     -4.65     -1.59
   21    1    2     -2.24     -0.76
   20    1    2      4.36     -1.96
   19    1    2    -12.25      1.35
   18    1    2     -2.07     -4.44
   17    1    2      2.19     -3.91
   16    1    2     -1.10    -14.18
   15    1    2      2.57     -1.22
   14    1    2      5.50      1.99
   13    1    2    -10.47      5.45
   12    1    2    -12.27    -14.95
   11    1    2     -5.89      6.25
   10    1    2     -3.00      2.81
    9    1    2    -12.02     -2.88
    8    1    2     21.59     29.90
    7    1    2     -8.72     -5.19
    6    1    2     20.80     24.07
    5    1    2     11.99     -2.39
    4    1    2     25.21     40.16
    3    1    2     17.27    -11.27
    2    1    2    -15.44    -20.71
    1    1    2      9.28    -11.68
    0    1    2      0.33      1.84
   34    2    2     -2.98      1.35
   33    2    2      2.30      0.97
   32    2    2      2.83     -0.93
   31    2    2      1.14      0.39
   30    2    2     -0.44      1.29
   29    2    2     -2.25     -0.94
   28    2    2      0.26      1.41
   27    2    2      0.45     -3.68
   26    2    2      0.42     -0.91
   25    2    2      3.27      1.22
   24    2    2      4.80      0.30
   23    2    2     -1.78     -0.11
   22    2    2     -1.90     -4.10
   21    2    2      3.60     -0.77
   20    2    2      1.60     -1.04
   19    2    2      2.23     -8.33
   18    2    2      4.82     -1.17
   17    2    2     -1.35     -1.50
   16    2    2     -1.65     -1.28
   15    2    2      3.65    -13.69
   14    2    2      9.03      4.39
   13    2    2     -4.24     -8.42
   12    2    2     11.13      9.04
   11    2    2     -4.13      2.65
   10    2    2      2.84     -7.62
    9    2    2      4.75    -22.44
    8    2    2      6.55     -4.24
    7    2    2      1.07     -8.67
    5    2    2    -14.48    -53.70
    4    2    2     25.47     -7.37
    3    2    2     -9.72      2.68
    2    2    2    -38.28    -24.37
    1    2    2     -9.17    -30.61
    0    2    2     31.94     -0.52
    6    2    2     39.54     11.87
   34    3    2     -0.53      0.68
   33    3    2     -0.57     -0.92
   32    3    2     -1.01     -1.19
   31    3    2     -1.35     -0.50
   30    3    2     -1.27     -2.81
   29    3    2      1.06      3.33
   28    3    2     -3.16     -1.41
   27    3    2     -1.25      0.72
   26    3    2     -4.81      0.29
   25    3    2      2.78     -0.70
   24    3    2     -0.94      2.92
   23    3    2     -1.33     -1.64
   22    3    2     -1.31     -3.79
   21    3    2     -6.78      1.95
   20    3    2     -6.37     -2.31
   19    3    2     -6.73     -3.47
   18    3    2      7.47      3.90
   17    3    2     -4.33      0.61
   16    3    2     -1.19    -11.94
   15    3    2      1.82      3.31
   14    3    2     -3.99     -6.68
   13    3    2      4.18     -2.50
   12    3    2      5.46      0.49
   11    3    2    -10.70      0.83
   10    3    2      6.00     19.60
    9    3    2     -5.59      6.31
    8    3    2     -0.02      3.98
    7    3    2      1.81     -6.41
    6    3    2     16.67      5.04
    5    3    2     -8.47    -23.00
    4    3    2     44.50     50.14
    3    3    2     -7.68    -25.25
    2    3    2     29.90     -1.96
    1    3    2    -37.28    -10.17
    0    3    2      1.20    -20.07
   34    4    2     -2.25     -0.38
   33    4    2      1.25      2.22
   32    4    2      0.24     -4.15
   31    4    2      0.84     -0.95
   30    4    2      1.17      0.10
   29    4    2      0.27     -2.86
   28    4    2      5.74      2.35
   27    4    2      0.96     -2.05
   26    4    2      0.33     -2.88
   25    4    2     -0.51     -2.66
   24    4    2     -0.23      1.58
   23    4    2      3.35     -6.04
   22    4    2      1.51     -0.41
   21    4    2     -2.36      2.62
   20    4    2      0.16     -7.92
   19    4    2     -4.46     -4.12
   18    4    2      2.54     -0.89
   17    4    2      3.12     -3.56
   16    4    2      3.36      9.13
   15    4    2     -9.74     -6.71
   14    4    2      2.69      1.46
   13    4    2      8.67     -4.87
   12    4    2      2.39     -4.25
   11    4    2      8.89     -4.37
   10    4    2     23.59     13.79
    9    4    2    -15.60    -24.11
    8    4    2     12.36     13.02
    7    4    2      6.57     -1.18
    6    4    2     15.85    -16.62
    5    4    2    -11.16    -22.35
    4    4    2     29.99    -20.18
    3    4    2      4.55      5.96
    2    4    2     26.48     19.34
    1    4    2     14.53    -15.08
    0    4    2    129.23      0.25
   34    5    2      0.35      1.60
   33    5    2     -0.10      0.08
   32    5    2     -0.89     -0.57
   31    5    2     -0.50      0.87
   30    5    2     -2.96     -4.25
   29    5    2      2.04     -0.39
   28    5    2      0.11      0.23
   27    5    2     -0.31     -0.89
   26    5    2     -0.17      1.73
   25    5    2     -4.76      3.08
   24    5    2     -0.53     -2.07
   23    5    2     -1.21     -3.63
   22    5    2     -0.91      0.97
   21    5    2      3.28      1.16
   20    5    2     -6.86      1.47
   19    5    2    -12.11      3.53
   18    5    2      5.80     -1.60
   17    5    2     -0.94     -1.10
   16    5    2      1.17     -4.50
   15    5    2     -1.40     -1.57
   14    5    2      4.04     11.08
   13    5    2     -8.94      1.04
   12    5    2      4.06     -4.87
   11    5    2     10.77      4.62
   10    5    2     -0.21     -6.60
    9    5    2     -5.14      1.17
    8    5    2     11.17     16.36
    6    5    2     -1.61     15.72
    5    5    2    -15.63    -19.29
    4    5    2      5.81     -4.51
    3    5    2    -29.37      6.42
    2    5    2     -2.82      9.22
    1    5    2    -28.20      6.40
    0    5    2     -1.00     35.58
    7    5    2    -17.03    -28.68
   34    6    2     -0.92     -1.15
   33    6    2      0.04      0.35
   32    6    2      4.47     -3.63
   31    6    2     -0.76      0.75
   30    6    2      1.29     -1.36
   29    6    2      0.07     -0.11
   28    6    2      2.89      0.22
   27    6    2      4.55     -4.35
   26    6    2     -0.09     -0.46
   25    6    2      1.18     -0.43
   24    6    2     -0.68      2.26
   23    6    2     -8.60      0.69
   22    6    2      2.85     -0.98
   21    6    2     -2.34     -1.00
   20    6    2      2.24      5.81
   19    6    2     -3.53     -6.13
   18    6    2      2.35      4.48
   17    6    2     -1.39      2.72
   16    6    2      5.27     -3.53
   15    6    2      1.85     -7.09
   14    6    2      5.92      0.02
   13    6    2     -5.71     -8.61
   12    6    2      6.48     15.41
   11    6    2     -0.39     -4.81
   10    6    2     11.20     -1.03
    9    6    2      5.45     -6.89
    8    6    2      6.67    -17.10
    7    6    2      2.42      5.10
    6    6    2     28.43      8.38
    5    6    2     -7.61    -23.01
    4    6    2     32.45     -0.97
    3    6    2      9.76    -10.78
    2    6    2     24.28    -14.34
    1    6    2      3.82      8.45
    0    6    2    102.81      0.33
   34    7    2     -1.00      1.13
   33    7    2      2.92      1.06
   32    7    2      0.68      3.17
   31    7    2      2.77     -1.17
   30    7    2      2.34     -0.95
   29    7    2      0.80     -0.09
   28    7    2      1.00      1.67
   27    7    2     -5.75     -2.14
   26    7    2      2.30      0.64
   25    7    2     -0.07     -3.70
   24    7    2      0.44      0.09
   23    7    2      2.53     -4.50
   22    7    2     -1.90     -3.41
   21    7    2     -3.98      8.93
   20    7    2     -4.01     -3.76
   19    7    2     -2.35      0.04
   18    7    2      3.78     10.55
   17    7    2     -4.27     -5.33
   16    7    2     -0.45      3.64
   15    7    2      2.97      0.16
   14    7    2      6.53     -4.28
   13    7    2     -1.50     -1.73
   12    7    2      3.47     -3.08
   11    7    2    -18.52      0.75
   10    7    2      3.39     11.51
    9    7    2    -16.77      0.69
    8    7    2     -7.00    -10.41
    7    7    2     -5.51    -15.28
    6    7    2    -10.88    -12.95
    5    7    2    -16.67      5.52
    4    7    2      2.31      8.21
    3    7    2     -4.75      1.76
    2    7    2    -11.93     29.39
    1    7    2    -12.08     -8.95
    0    7    2     -0.93     -2.23
   33    8    2     -0.78      1.38
   32    8    2      1.49     -2.85
   31    8    2      0.49      1.22
   30    8    2      0.40     -0.19
   29    8    2      2.11      0.74
   28    8    2      0.07      0.55
   27    8    2      0.15      0.13
   26    8    2     -2.09     -0.52
   25    8    2     -5.57      2.96
   24    8    2      3.71      3.06
   23    8    2      2.64     -3.06
   22    8    2     -0.17      6.10
   21    8    2      0.15     -2.50
   20    8    2     -2.59      0.53
   19    8    2     -4.91      2.84
   18    8    2      7.31     -0.97
   17    8    2     -0.35     -2.72
   16    8    2     -1.04      8.01
   15    8    2     -6.80     -8.72
   14    8    2      8.63      1.23
   13    8    2      6.15    -11.14
   12    8    2      3.83     -8.02
   11    8    2      5.08     -7.60
   10    8    2     10.75     -0.54
    9    8    2    -13.43     -3.90
    8    8    2     10.08      6.37
    7    8    2      2.52     -9.44
    6    8    2      1.59     -4.99
    5    8    2     -3.27    -10.08
    4    8    2     24.20    -19.10
    3    8    2     -0.14      2.97
    2    8    2      5.09      6.27
    1    8    2      5.97     -7.89
    0    8    2     40.42     -0.65
   33    9    2      2.09      0.13
   32    9    2      1.62      3.01
   31    9    2      0.58     -0.15
   30    9    2      0.68     -2.45
   29    9    2      0.98     -1.16
   28    9    2      0.87      1.53
   27    9    2      0.50     -1.62
   26    9    2     -2.70      1.48
   25    9    2     -2.52     -3.26
   24    9    2     -0.68     -1.62
   23    9    2     -1.46     -1.04
   22    9    2      6.94      1.82
   21    9    2      2.71     -2.81
   20    9    2     -6.04      1.64
   19    9    2      1.20     -0.88
   18    9    2      6.48     -2.85
   17    9    2      0.89      1.94
   16    9    2      2.59     -2.70
   15    9    2     -2.71     -3.83
   14    9    2     -2.37     10.60
   13    9    2    -11.15     -3.98
   12    9    2      0.85      3.49
   11    9    2     -5.98     -9.62
   10    9    2     -8.17    -10.38
    9    9    2    -10.36      9.71
    8    9    2      6.95     -7.93
    7    9    2     -6.72      0.20
    6    9    2     -0.93     12.43
    5    9    2     -9.45     -4.10
    4    9    2    -10.32    -12.70
    3    9    2      3.58     -0.16
    2    9    2     11.78     11.18
    1    9    2     -5.73      3.89
    0    9    2      0.24    -11.71
   33   10    2      2.03      0.26
   32   10    2      0.65      0.31
   31   10    2      0.12     -0.58
   30   10    2     -1.82     -1.61
   29   10    2     -1.17      0.58
   28   10    2     -0.21     -3.52
   27   10    2      0.24     -0.21
   26   10    2      1.69      1.00
   25   10    2     -0.28     -0.58
   24   10    2     -2.50     -0.77
   23   10    2     -0.31      0.63
   22   10    2      0.90      0.28
   21   10    2     -1.06      1.99
   20   10    2     -0.12      3.85
   19   10    2     -1.28     -9.30
   18   10    2     -0.02      1.65
   17   10    2     -1.33     -3.28
   16   10    2      1.64     -5.84
   15   10    2     -4.31     -6.49
   14   10    2      3.63     -5.40
   13   10    2     -1.70     -8.18
   12   10    2     -1.60     10.99
   11   10    2      1.11    -13.52
   10   10    2      2.61      5.30
    9   10    2     -5.90    -19.38
    8   10    2     -1.31    -13.01
    7   10    2      2.24     -5.97
    6   10    2      6.62      5.35
    5   10    2     -3.59      4.07
    4   10    2      2.14      3.47
    3   10    2     -5.14    -15.29
    2   10    2    -15.05      1.80
    1   10    2      3.46     -4.30
    0   10    2     46.99     -2.04
   33   11    2      0.19      0.15
   32   11    2      0.73      2.50
   31   11    2      0.17     -1.65
   30   11    2     -0.86     -1.61
   29   11    2     -0.85     -1.26
   28   11    2     -4.70     -3.20
   27   11    2      0.32      3.27
   26   11    2      0.51      0.35
   25   11    2      3.08     -3.66
   24   11    2      1.07     -0.13
   23   11    2      2.15     -6.93
   22   11    2      2.08     -0.06
   21   11    2     -3.98      0.47
   20   11    2      3.24     -0.75
   19   11    2     -3.22      2.97
   18   11    2      6.27     -0.10
   17   11    2      0.45     -5.28
   16   11    2     -0.26      1.37
   15   11    2      0.34     -6.53
   14   11    2      2.47     -4.74
   13   11    2     -2.23     -4.16
   12   11    2     -0.41      1.54
   11   11    2     -1.31     -1.83
   10   11    2     -1.90     12.80
    9   11    2     -3.73     -1.00
    8   11    2      4.74     -0.17
    7   11    2      1.75    -16.09
    6   11    2      7.74     -1.19
    5   11    2    -13.58     11.00
    4   11    2      4.27    -15.30
    3   11    2     -2.84      7.36
    2   11    2    -12.21      9.64
    1   11    2    -13.23     -6.21
    0   11    2      0.52    -25.97
   32   12    2     -0.29     -1.52
   31   12    2     -0.43     -1.18
   30   12    2      1.36      2.08
   29   12    2      0.83     -3.66
   28   12    2     -1.23     -3.08
   27   12    2     -1.52     -1.73
   26   12    2     -2.08     -0.55
   25   12    2     -2.99      2.48
   24   12    2      3.77     -3.00
   23   12    2      1.30     -2.70
   22   12    2      0.89     -3.99
   21   12    2      0.56     -7.60
   20   12    2     -1.68      2.61
   19   12    2     -3.88     -5.66
   18   12    2      5.02     -0.80
   17   12    2     -5.01      0.83
   16   12    2     -4.06      2.86
   15   12    2     -6.13     -7.47
   14   12    2      2.33     -0.10
   13   12    2     -5.51    -10.37
   12   12    2     -2.22     -2.45
   11   12    2      4.15     -7.14
   10   12    2     -0.66      3.31
    9   12    2     -5.51      4.36
    8   12    2      2.50      3.31
    7   12    2      0.01    -20.65
    6   12    2      0.82      9.96
    5   12    2      3.29    -13.52
    4   12    2     23.93     -2.65
    3   12    2     -5.59     -9.43
    2   12    2     -1.95      1.77
    1   12    2      0.70     -3.16
    0   12    2     16.31     -1.36
   33   12    2      0.09      0.88
   32   13    2     -0.12     -1.71
   31   13    2     -2.38     -1.02
   30   13    2     -0.21     -1.19
   29   13    2     -1.32      0.10
   28   13    2      0.03     -0.88
   27   13    2      2.40      0.63
   26   13    2     -0.81     -1.41
   25   13    2      1.71     -3.16
   24   13    2     -1.08      1.02
   23   13    2     -0.16      1.31
   22   13    2      4.39     -3.75
   21   13    2     -1.33     -3.10
   20   13    2     -1.89     -2.22
   19   13    2     -3.86     -6.63
   18   13    2      3.27     -1.87
   17   13    2     -4.71     -3.19
   16   13    2      5.05     -4.01
   15   13    2      0.63     -0.68
   14   13    2     -0.07      0.96
   13   13    2      1.98     -2.82
   12   13    2      2.64      3.80
   11   13    2     -3.95    -14.08
   10   13    2     -1.73      1.62
    9   13    2     -0.79      3.54
    8   13    2      7.48      1.50
    7   13    2     -7.29      4.59
    6   13    2     -1.54      6.68
    5   13    2    -25.91     -3.84
    4   13    2     -3.35    -13.27
    3   13    2     -1.39     -2.61
    2   13    2     10.60     10.29
    1   13    2    -18.56     -6.98
    0   13    2      0.09    -19.91
   32   14    2      0.11     -1.17
   31   14    2     -0.41     -3.20
   30   14    2      0.00      1.74
   29   14    2     -1.12     -2.08
   28   14    2     -1.79     -0.80
   27   14    2     -1.85     -0.14
   26   14    2     -0.07     -1.17
   25   14    2     -0.98     -3.68
   24   14    2      2.96     -3.17
   23   14    2     -0.53     -3.47
   22   14    2      2.63      0.18
   21   14    2     -2.47     -0.81
   20   14    2      1.75      0.19
   19   14    2     -0.27     -6.99
   18   14    2     -4.73      2.70
   17   14    2     -0.46     -5.58
   16   14    2     -2.05      4.23
   15   14    2     -4.00     -2.87
   14   14    2     11.15     -3.43
   13   14    2     -1.86      2.54
   12   14    2      2.75      0.33
   11   14    2      0.51     -2.50
   10   14    2      4.16     -1.56
    9   14    2     -5.20     -3.71
    8   14    2      9.54     -2.57
    7   14    2      9.31     -5.77
    6   14    2     10.46     10.57
    5   14    2     -4.79      2.40
    4   14    2     16.19     -6.53
    3   14    2    -12.56    -17.13
    2   14    2      5.36      1.24
    1   14    2      3.58    -14.04
    0   14    2     39.07     -1.25
   32   15    2      1.38     -0.16
   31   15    2      0.09     -1.74
   30   15    2      2.03      1.30
   29   15    2     -0.54     -2.78
   28   15    2      0.26      0.62
   27   15    2     -0.50      2.55
   26   15    2     -1.79     -1.14
   25   15    2     -1.50     -1.10
   24   15    2     -0.13     -2.53
   23   15    2      1.95     -2.78
   22   15    2      0.09     -2.48
   21   15    2      1.15     -3.68
   20   15    2     -0.83      2.02
   19   15    2     -6.64     -2.91
   18   15    2      1.72     -4.24
   17   15    2     -4.25     -5.12
   16   15    2     -3.50     -3.74
   15   15    2     -2.48     -2.40
   14   15    2      0.95     -2.26
   13   15    2      1.96      3.58
   12   15    2      2.18     -0.09
   11   15    2     -2.39     -0.79
   10   15    2     -7.32     -2.65
    9   15    2    -10.78     -1.02
    8   15    2      5.11     -3.52
    7   15    2     -7.30     -7.85
    6   15    2      0.10     10.86
    5   15    2    -15.99     -2.03
    4   15    2     -1.71     -5.45
    3   15    2     -4.41      4.99
    2   15    2     -6.89     13.48
    1   15    2    -15.47     -6.36
    0   15    2      0.50     -8.27
   31   16    2     -1.11      0.12
   30   16    2     -0.45      1.86
   29   16    2     -0.58     -2.14
   28   16    2     -1.68      0.02
   27   16    2      0.21     -2.07
   26   16    2     -1.90      0.37
   25   16    2     -0.84     -0.68
   24   16    2      0.85     -1.82
   23   16    2     -2.51     -2.24
   22   16    2      2.13     -2.66
   21   16    2      1.54     -2.69
   20   16    2      0.55     -0.48
   19   16    2     -1.01     -5.24
   18   16    2      1.37      4.50
   17   16    2     -1.35     -1.78
   16   16    2      1.48      1.29
   15   16    2      1.26     -3.47
   14   16    2      2.84      0.93
   13   16    2     -3.19     -1.48
   12   16    2      6.06      3.15
   11   16    2      2.60      1.34
   10   16    2      4.96     -3.53
    9   16    2     -2.99      3.43
    8   16    2      4.75    -13.26
    7   16    2     -1.80     -4.92
    6   16    2      8.43      3.66
    5   16    2     -3.17     -2.47
    4   16    2     18.39     -5.35
    3   16    2     -6.67    -12.86
    2   16    2      7.81      6.04
    1   16    2      1.19    -14.26
    0   16    2     18.04     -1.49
   31   17    2      1.07      0.13
   30   17    2      1.03      0.89
   29   17    2     -1.10      1.15
   28   17    2      1.33     -0.28
   27   17    2     -1.21     -0.85
   26   17    2      0.64     -0.45
   25   17    2     -0.14     -3.33
   24   17    2     -0.44      1.06
   23   17    2     -1.82     -3.25
   22   17    2     -2.75      0.55
   21   17    2     -0.93     -3.18
   20   17    2     -2.28     -2.51
   19   17    2      0.01     -5.04
   18   17    2     -2.68     -0.55
   17   17    2     -4.89     -6.18
   16   17    2      4.53     -3.87
   15   17    2     -3.04      2.44
   14   17    2      5.65     -5.64
   13   17    2      1.11      1.90
   12   17    2     -3.16      0.31
   11   17    2     -3.63      0.60
   10   17    2     -3.37      2.14
    9   17    2     -0.44     -0.36
    8   17    2      1.70     -4.54
    7   17    2     -2.24     -5.05
    6   17    2     -6.42      3.10
    5   17    2    -15.81     -4.47
    4   17    2     -0.74     -0.28
    3   17    2      5.29      4.48
    2   17    2     -1.21     12.94
    1   17    2     -4.47     -2.86
    0   17    2      0.44      2.67
   30   18    2     -0.77      1.42
   29   18    2      0.01      0.07
   28   18    2     -3.15     -0.40
   27   18    2     -0.43      1.00
   26   18    2     -1.10     -1.87
   25   18    2     -0.18     -2.22
   24   18    2      3.22     -1.00
   23   18    2      0.41     -3.85
   22   18    2     -0.89      2.61
   21   18    2     -2.27     -2.00
   20   18    2      2.11     -1.08
   19   18    2     -2.96      0.44
   18   18    2      3.98     -0.21
   17   18    2     -1.89     -1.24
   16   18    2     -2.25      1.99
   15   18    2     -4.09     -1.88
   14   18    2      3.75     -0.88
   13   18    2     -3.65     -5.12
   12   18    2      1.46      2.79
   11   18    2     -1.99     -4.55
   10   18    2     -0.99      0.88
    9   18    2     -5.19     -3.05
    8   18    2      5.20     -3.44
    7   18    2      0.54     -5.72
    6   18    2      1.63     -4.20
    5   18    2     -2.91     -3.09
    4   18    2      6.54    -10.61
    3   18    2     -4.48     -6.87
    2   18    2     -0.51      5.40
    1   18    2      5.22    -11.54
    0   18    2      4.86     -3.54
   30   19    2      0.89      0.21
   29   19    2     -0.15     -0.55
   28   19    2      2.65      0.05
   27   19    2     -0.08     -1.06
   26   19    2     -1.24     -1.26
   25   19    2     -1.04     -1.45
   24   19    2      3.25     -1.03
   23   19    2     -0.91     -5.11
   22   19    2     -0.44      0.13
   21   19    2     -0.21     -5.51
   20   19    2     -5.70     -1.24
   19   19    2     -0.17     -4.59
   18   19    2      0.32      1.02
   17   19    2     -1.20     -3.92
   16   19    2      1.91      0.26
   15   19    2     -1.68      1.81
   14   19    2      3.83      2.56
   13   19    2     -1.79     -1.18
   12   19    2      3.37     -5.62
   11   19    2     -2.79      0.55
   10   19    2     -1.19     -3.00
    9   19    2     -1.93     -0.74
    8   19    2      0.74     -1.67
    7   19    2     -0.40     -2.61
    6   19    2     -3.85      7.57
    5   19    2     -9.43     -6.82
    4   19    2      3.96     -0.98
    3   19    2      5.11      3.58
    2   19    2      1.12      7.50
    1   19    2      2.70      1.57
    0   19    2     -0.24      6.39
   29   20    2     -0.30     -0.04
   28   20    2      0.31      0.95
   27   20    2     -0.21     -1.71
   26   20    2      0.69     -1.31
   25   20    2     -0.63     -2.38
   24   20    2     -0.61     -1.27
   23   20    2      0.10     -1.22
   22   20    2      2.27      2.73
   21   20    2     -0.28     -0.69
   20   20    2     -1.16     -2.70
   19   20    2     -2.28      0.27
   18   20    2      2.29      1.21
   17   20    2     -3.10     -1.07
   16   20    2      1.80     -3.95
   15   20    2     -6.57      2.06
   14   20    2      0.11      0.39
   13   20    2     -6.76     -8.25
   12   20    2     -0.11      5.02
   11   20    2     -2.23     -6.79
   10   20    2      1.23     -3.76
    9   20    2     -4.08     -8.82
    8   20    2      2.17     -0.64
    7   20    2      0.19     -1.29
    6   20    2     -1.41      2.49
    5   20    2      0.29     -5.08
    4   20    2      1.04     -3.04
    3   20    2     -5.40     -5.89
    2   20    2     -6.24      0.80
    1   20    2      1.66     -3.31
    0   20    2     -5.75     -5.41
   29   21    2      0.66      0.19
   28   21    2      2.13     -0.15
   27   21    2      1.18     -2.07
   26   21    2      2.19     -0.97
   25   21    2     -0.55     -2.20
   24   21    2      2.38     -1.64
   23   21    2     -0.81     -1.85
   22   21    2      0.34      2.11
   21   21    2     -0.32     -0.96
   20   21    2      0.92     -1.91
   19   21    2      1.46     -0.20
   18   21    2     -1.81      2.01
   17   21    2      0.70     -3.82
   16   21    2     -0.66      3.78
   15   21    2      1.36      2.08
   14   21    2      3.77      3.10
   13   21    2     -6.07     -2.60
   12   21    2     -1.75     -2.01
   11   21    2     -4.18     -1.39
   10   21    2     -0.08     -0.72
    9   21    2     -4.97     -3.20
    8   21    2      2.40     -7.53
    7   21    2     -1.59      1.07
    6   21    2     -0.81      0.97
    5   21    2     -3.93      2.37
    4   21    2      8.21      3.73
    3   21    2      3.87     -4.30
    2   21    2      0.44      6.78
    1   21    2     -3.74     -1.51
    0   21    2     -2.66      5.62
   28   22    2      0.55      1.74
   27   22    2      1.71     -0.28
   26   22    2      1.87     -2.04
   25   22    2      0.79     -2.43
   24   22    2      0.95     -1.59
   23   22    2      0.89     -0.73
   22   22    2     -2.62      1.07
   21   22    2     -0.63      2.33
   20   22    2     -1.87     -1.79
   19   22    2     -2.01     -0.14
   18   22    2      4.08      0.76
   17   22    2     -0.68     -1.55
   16   22    2     -2.24     -4.58
   15   22    2     -0.71      0.78
   14   22    2      2.00     -0.64
   13   22    2     -4.31     -2.90
   12   22    2      0.80     -1.74
   11   22    2     -2.42     -2.35
   10   22    2     -1.60     -3.62
    9   22    2     -1.43     -8.52
    8   22    2     -1.82      3.97
    7   22    2     -3.47     -3.67
    6   22    2     -2.81      2.08
    5   22    2      0.54     -1.11
    4   22    2      4.19      1.19
    3   22    2     -3.27      1.97
    2   22    2     -1.42      3.42
    1   22    2      2.94     -3.85
    0   22    2     -1.95     -2.22
   28   23    2      1.86     -0.35
   27   23    2      0.43     -1.41
   26   23    2      1.65      0.61
   25   23    2      0.70     -0.15
   24   23    2      4.53     -0.37
   23   23    2     -1.42     -1.78
   22   23    2      2.89      4.20
   21   23    2      0.65      1.12
   20   23    2      0.48     -1.61
   19   23    2     -1.70      3.12
   18   23    2      4.22      2.42
   17   23    2     -3.65     -1.88
   16   23    2      0.23      0.66
   15   23    2      0.66     -0.41
   14   23    2      0.12      3.34
   13   23    2     -3.57     -4.86
   12   23    2     -3.66     -1.27
   11   23    2     -3.26      1.36
   10   23    2      1.81      0.33
    9   23    2     -2.97     -2.86
    8   23    2      2.21     -2.51
    7   23    2     -1.11      1.88
    6   23    2     -4.23     -1.62
    5   23    2     -6.44      3.07
    4   23    2      4.84      0.29
    3   23    2     -0.87      2.45
    2   23    2     -0.25      1.22
    1   23    2     -2.28      2.49
    0   23    2     -6.36      5.40
   27   24    2      1.42      0.62
   26   24    2      1.06     -1.33
   25   24    2      0.86      1.44
   24   24    2      0.92     -0.53
   23   24    2      0.37      1.28
   22   24    2      1.62      1.11
   21   24    2     -1.98      0.89
   20   24    2     -0.91     -1.35
   19   24    2      2.52     -1.80
   18   24    2      1.80      0.80
   17   24    2      1.80     -1.46
   16   24    2     -0.46     -1.62
   15   24    2      1.79      0.58
   14   24    2      2.25     -0.32
   13   24    2     -0.79     -3.11
   12   24    2     -3.63     -0.82
   11   24    2      1.98      2.16
   10   24    2     -3.29     -5.75
    9   24    2     -0.70     -1.73
    8   24    2      1.66      2.63
    7   24    2     -1.16     -0.71
    6   24    2      0.98      1.32
    5   24    2      1.93     -3.86
    4   24    2      4.88     -0.17
    3   24    2     -4.02     -0.80
    2   24    2      4.27     -0.97
    1   24    2      0.59     -0.88
    0   24    2     10.19     -1.17
   26   25    2      0.34      1.41
   25   25    2     -0.63     -0.49
   24   25    2      2.07      1.33
   23   25    2     -1.85     -1.93
   22   25    2      2.26      2.79
   21   25    2     -2.64     -0.44
   20   25    2      5.13     -0.82
   19   25    2     -7.48     -0.11
   18   25    2      3.87     -0.17
   17   25    2     -3.25     -2.87
   16   25    2     -2.38     -1.51
   15   25    2     -1.64      0.40
   14   25    2      1.11      2.74
   13   25    2     -6.07     -4.66
   12   25    2     -1.63     -1.61
   11   25    2     -1.43     -2.76
   10   25    2     -1.50      4.39
    9   25    2     -0.75     -2.63
    8   25    2      0.69     -1.53
    7   25    2     -1.98      3.89
    6   25    2     -1.55      0.17
    5   25    2     -4.28      3.58
    4   25    2      5.00      1.85
    3   25    2     -0.19      2.17
    2   25    2     -2.68     -2.22
    1   25    2     -0.07      0.48
    0   25    2     -3.47     -1.47
   26   26    2      0.49     -0.47
   25   26    2      0.82      2.49
   24   26    2      2.08      1.61
   23   26    2     -0.51      0.15
   22   26    2      1.55      1.07
   21   26    2      0.56      0.10
   20   26    2      0.94     -2.39
   19   26    2     -0.73     -2.60
   18   26    2      3.85      2.43
   17   26    2     -1.58     -5.39
   16   26    2     -0.54     -1.81
   15   26    2      5.16     -2.42
   14   26    2      0.03      4.56
   13   26    2      0.41      0.17
   12   26    2     -1.48     -0.52
   11   26    2      2.14      2.31
   10   26    2      1.39     -4.50
    9   26    2      1.88     -2.99
    8   26    2      0.46      3.10
    7   26    2      0.01      2.43
    6   26    2      2.23     -3.62
    5   26    2      1.43     -0.45
    4   26    2      6.49     -2.11
    3   26    2     -2.89     -1.79
    2   26    2      3.08     -2.70
    1   26    2     -0.39     -5.20
    0   26    2      6.65      0.33
   25   27    2     -0.58     -0.41
   24   27    2     -0.14     -0.09
   23   27    2     -2.88     -0.43
   22   27    2      1.33      2.72
   21   27    2     -0.81     -3.55
   20   27    2      3.63     -2.37
   19   27    2     -3.96      0.44
   18   27    2      1.13     -0.17
   17   27    2     -5.47     -1.46
   16   27    2     -2.27     -2.11
   15   27    2     -3.86     -2.62
   14   27    2      1.35      1.73
   13   27    2     -3.61     -4.10
   12   27    2     -3.25      3.91
   11   27    2     -1.29      0.13
   10   27    2      0.59      1.02
    9   27    2      0.71     -2.61
    8   27    2      3.27     -1.38
    7   27    2      0.98     -1.45
    6   27    2      0.32      1.00
    5   27    2     -1.39      0.08
    4   27    2      6.41      2.48
    3   27    2      2.03      0.93
    2   27    2      1.69     -1.91
    1   27    2     -0.57     -0.31
    0   27    2     -1.10     -0.79
   24   28    2      2.12      0.01
   23   28    2     -0.33     -0.43
   22   28    2     -0.69     -0.24
   21   28    2     -1.61      0.11
   20   28    2      1.04     -1.49
   19   28    2     -0.24     -5.88
   18   28    2      1.49      1.30
   17   28    2     -2.58     -2.99
   16   28    2     -1.21      1.50
   15   28    2     -0.85     -1.74
   14   28    2      1.03      1.86
   13   28    2     -2.11     -1.41
   12   28    2      0.09      0.84
   11   28    2      0.37     -0.63
   10   28    2      0.03      0.52
    9   28    2     -0.35     -0.12
    8   28    2      1.65      1.26
    7   28    2      1.29      3.34
    6   28    2      0.12     -3.27
    5   28    2      1.52     -0.06
    4   28    2      3.72     -0.08
    3   28    2     -2.79     -0.64
    2   28    2      0.64     -2.17
    1   28    2      0.08     -3.68
    0   28    2      3.89      0.19
   23   29    2     -1.93     -0.70
   22   29    2      0.63      1.08
   21   29    2     -0.33     -0.13
   20   29    2      1.80     -0.51
   19   29    2     -2.38      0.84
   18   29    2     -0.29      0.57
   17   29    2      2.25     -3.11
   16   29    2     -2.87     -1.04
   15   29    2      0.17      0.35
   14   29    2      0.67      2.34
   13   29    2     -2.24      0.10
   12   29    2      0.62     -0.94
   11   29    2      0.15      0.76
   10   29    2      0.03      1.68
    9   29    2      0.82     -3.87
    8   29    2      2.92      1.95
    7   29    2      0.84     -0.71
    6   29    2      3.18     -0.35
    5   29    2      2.45     -2.69
    4   29    2      1.86      0.54
    3   29    2      3.89     -0.57
    2   29    2      1.03     -1.66
    1   29    2     -0.31     -0.73
    0   29    2     -0.22      2.42
   22   30    2     -0.37     -0.26
   21   30    2     -0.57     -1.13
   20   30    2      0.46     -0.20
   19   30    2     -1.86     -1.00
   18   30    2      1.13      2.84
   17   30    2     -3.00     -2.77
   16   30    2      0.69      1.40
   15   30    2      0.58     -1.32
   14   30    2     -2.12      3.52
   13   30    2     -2.34      0.14
   12   30    2     -0.57      2.45
   11   30    2     -0.81      1.86
   10   30    2      0.44     -3.23
    9   30    2     -0.88      0.02
    8   30    2     -0.82      2.72
    7   30    2     -0.53      0.90
    6   30    2      0.72      1.19
    5   30    2      0.08      0.48
    4   30    2      3.66      3.28
    3   30    2     -0.05     -0.70
    2   30    2     -0.97     -4.13
    1   30    2      1.01      1.65
    0   30    2      3.79      0.09
   21   31    2     -0.34     -1.78
   20   31    2      1.59      0.97
   19   31    2     -0.17      0.85
   18   31    2     -0.47      2.50
   17   31    2      2.07      0.48
   16   31    2      0.19      0.68
   15   31    2      1.85     -0.29
   14   31    2      0.57     -1.52
   13   31    2      0.57      1.01
   12   31    2     -1.36      0.84
   11   31    2      0.89      1.05
   10   31    2      0.69      1.66
    9   31    2      2.44      0.85
    8   31    2      0.45     -1.17
    7   31    2      2.96     -0.71
    6   31    2      0.33      0.03
    5   31    2      3.33     -2.72
    4   31    2     -0.23      2.82
    3   31    2      4.25     -1.86
    2   31    2      0.45     -0.13
    1   31    2      3.74     -1.95
    0   31    2      0.09     -1.73
   20   32    2      0.12      0.62
   19   32    2     -0.17     -2.28
   18   32    2      0.37      2.93
   17   32    2      1.61     -0.95
   16   32    2      2.72      2.39
   15   32    2     -0.07      0.89
   14   32    2      1.73      2.14
   13   32    2     -2.11      0.25
   12   32    2     -0.84     -0.05
   11   32    2     -0.84     -0.95
   10   32    2     -1.86      3.20
    9   32    2      0.55     -1.30
    8   32    2      1.04      3.22
    7   32    2      0.45      1.78
    6   32    2      0.30     -1.36
    5   32    2      2.21      0.48
    4   32    2      2.73      0.57
    3   32    2      1.77     -0.89
    2   32    2     -1.19     -0.70
    1   32    2      0.16     -0.36
    0   32    2      1.88      0.19
   18   33    2      0.13      2.33
   17   33    2      0.33     -0.47
   16   33    2     -0.02      1.38
   15   33    2      3.73      0.28
   14   33    2      0.73      1.30
   13   33    2      1.18      1.95
   12   33    2      1.09     -0.67
   11   33    2     -0.17      1.96
   10   33    2     -1.14     -1.59
    9   33    2      2.52      0.43
    8   33    2     -2.45      2.74
    7   33    2      4.85     -0.55
    6   33    2     -0.73      1.79
    5   33    2      4.02     -1.21
    4   33    2     -2.74      0.81
    3   33    2      4.92     -0.58
    2   33    2      2.29     -0.98
    1   33    2      2.12     -0.30
    0   33    2      0.44      3.02
   17   34    2     -0.56     -1.15
   16   34    2      2.08      0.76
   15   34    2     -0.69     -0.15
   14   34    2      0.51     -0.11
   13   34    2      0.23      0.06
   12   34    2      0.78      2.75
   11   34    2     -0.05     -2.88
   10   34    2      1.29      1.85
    9   34    2      0.78     -1.93
    8   34    2      2.04      0.74
    7   34    2      2.02      0.23
    6   34    2      1.51      1.64
    5   34    2      3.11      0.86
    4   34    2      0.85      0.44
    3   34    2      2.89     -2.39
    2   34    2     -3.26     -3.69
    1   34    2      1.20     -0.76
    0   34    2      1.36      0.28
   15   35    2      0.02     -1.17
   14   35    2      0.07      0.58
   13   35    2      0.73      2.00
   12   35    2     -1.91      0.39
   11   35    2      1.17      1.50
   10   35    2     -1.71      1.25
    9   35    2      2.42     -0.66
    8   35    2     -2.36     -0.29
    7   35    2      2.29      0.30
    6   35    2     -0.28      0.46
    5   35    2      1.32      0.86
    4   35    2     -2.22      1.91
    3   35    2      2.29      1.45
    2   35    2      0.21      0.26
    1   35    2      0.10     -1.08
    0   35    2      0.07      1.32
   14   36    2     -0.92      0.76
   13   36    2     -0.62     -0.62
   12   36    2     -0.69      0.66
   11   36    2     -0.32     -0.24
   10   36    2      1.58      1.42
    9   36    2      1.67     -2.17
    8   36    2      2.75      0.01
    7   36    2      2.82     -0.65
    6   36    2      0.90      0.84
    5   36    2      0.04      0.53
    4   36    2      1.73     -0.14
    3   36    2      0.47     -0.61
    2   36    2     -2.12     -1.83
    1   36    2      0.64      1.47
    0   36    2     -0.87      0.38
   12   37    2     -2.98      2.29
   11   37    2      0.56      1.00
   10   37    2     -3.16      0.85
    9   37    2      0.68      0.32
    8   37    2     -0.13     -1.36
    7   37    2      0.65     -0.58
    6   37    2      0.75     -0.68
    5   37    2     -0.31      2.29
    4   37    2     -0.38      0.23
    3   37    2     -0.23      0.93
    2   37    2      2.20     -0.17
    1   37    2      0.76     -1.35
    0   37    2     -0.05      1.51
    9   38    2      0.52      0.47
    8   38    2     -0.31     -1.23
    7   38    2     -0.04     -1.24
    6   38    2      0.20     -0.26
    5   38    2     -1.66      0.42
    4   38    2      1.21     -0.29
    3   38    2     -1.38      2.33
    2   38    2      0.51     -1.40
    1   38    2     -0.53      1.74
    0   38    2      0.75      0.23
    5   39    2     -0.53     -0.84
    4   39    2      1.11      0.46
    3   39    2     -0.16      0.45
    2   39    2      2.96     -0.47
    1   39    2      0.28      0.34
    0   39    2      0.16     -0.05
    0    0    3     -7.52      1.07
    1    0    3      2.25    -10.58
    2    0    3      9.40      0.49
    3    0    3     -0.02     -9.25
    4    0    3      1.85      0.65
    5    0    3      0.54    -41.66
    6    0    3     33.06     -0.03
    7    0    3      0.62      4.95
    8    0    3     16.34     -0.02
    9    0    3      2.98     -7.76
   10    0    3      7.00      0.33
   11    0    3      0.74     10.36
   12    0    3     10.32     -0.46
   13    0    3     -0.37      5.23
   14    0    3      7.06      0.73
   15    0    3      0.07     -8.87
   16    0    3      0.42      0.30
   17    0    3     -0.72     -3.49
   18    0    3      2.21     -0.28
   19    0    3      0.00     -6.55
   20    0    3      1.09      0.11
   21    0    3     -0.04      6.77
   22    0    3     -0.47     -0.58
   23    0    3      0.52     -0.97
   24    0    3      1.73      0.24
   25    0    3      0.33     -3.55
   26    0    3     -1.32     -0.36
   27    0    3      0.23     -1.16
   28    0    3     -1.58     -0.02
   29    0    3     -0.75     -0.86
   30    0    3      3.63     -0.07
   31    0    3      0.02      0.49
   32    0    3      2.89     -0.12
   33    0    3      0.08      2.48
   33    1    3      0.28      0.15
   32    1    3     -0.94     -0.75
   31    1    3     -0.69      1.46
   30    1    3      0.76      1.09
   29    1    3      2.91      0.15
   28    1    3      1.55     -0.37
   27    1    3      0.35     -0.60
   26    1    3     -3.24      2.58
   25    1    3     -0.87     -0.52
   24    1    3     -0.52      1.81
   23    1    3     -0.81     -2.13
   22    1    3      2.74     -0.03
   21    1    3     -0.05     -0.59
   20    1    3     -2.43      1.77
   19    1    3     -6.51     -0.63
   18    1    3      2.21      6.77
   17    1    3      1.16      0.09
   16    1    3      1.18     -0.10
   15    1    3      2.13     -0.85
   14    1    3     -1.97      4.09
   13    1    3      2.69      0.27
   12    1    3      4.75     -0.15
   11    1    3     -9.50      1.75
   10    1    3     -7.91      7.91
    9    1    3     -5.66     -1.17
    8    1    3     -7.45     11.05
    7    1    3    -26.00      2.85
    6    1    3      3.10      4.35
    5    1    3    -10.11      5.80
    4    1    3     -4.10     32.24
    3    1    3    -15.60     -4.44
    2    1    3      7.94     23.23
    1    1    3    -17.85     -4.90
    0    1    3      0.32     26.19
   33    2    3      0.82      0.91
   32    2    3      0.56      1.06
   31    2    3     -1.02     -0.11
   30    2    3     -0.75      3.20
   29    2    3     -0.07     -1.71
   28    2    3      1.97      1.84
   27    2    3      1.77     -2.46
   26    2    3      2.62     -2.88
   25    2    3      0.78     -1.25
   24    2    3     -3.60      4.12
   23    2    3      0.20     -1.32
   22    2    3      0.14      2.77
   21    2    3     -0.48      4.16
   20    2    3      3.17     -2.78
   19    2    3     -0.53     -7.04
   18    2    3     -2.49     -0.51
   17    2    3     -0.33      1.01
   16    2    3      3.13      2.08
   15    2    3     -4.22     -5.10
   14    2    3      1.64      1.10
   13    2    3      4.92      0.52
   12    2    3      9.23     -2.75
   11    2    3      3.49      6.55
   10    2    3     22.85     -2.22
    9    2    3     -3.66    -14.32
    8    2    3      2.63     -9.74
    7    2    3      9.37     -5.93
    6    2    3     28.74    -18.71
    5    2    3     -8.48    -25.91
    4    2    3     -4.47    -18.81
    3    2    3     -7.65      4.68
    2    2    3     -3.68     -8.47
    1    2    3      7.33    -22.95
    0    2    3     21.40      0.42
   33    3    3      0.71      0.11
   32    3    3      1.36      0.09
   31    3    3     -2.60      1.87
   30    3    3     -2.11      0.79
   29    3    3     -0.25      1.66
   28    3    3     -1.36      0.99
   27    3    3      0.27     -1.90
   26    3    3     -0.26      4.32
   25    3    3     -1.60      0.44
   24    3    3      0.45      4.33
   23    3    3      0.50     -0.69
   22    3    3     -4.24      4.93
   21    3    3      3.31      0.84
   20    3    3     -1.14      1.15
   19    3    3     -5.47     -3.21
   18    3    3      2.49      2.56
   17    3    3      2.50     -4.25
   16    3    3     -0.46      0.53
   15    3    3     -4.45      2.13
   14    3    3      4.32      8.69
   13    3    3     -3.64      0.72
   12    3    3     -2.30      0.03
   11    3    3      3.73      2.07
   10    3    3     -4.77      6.87
    9    3    3     -5.19      2.16
    8    3    3      1.81     18.38
    7    3    3    -18.90     -8.43
    6    3    3     -9.83     12.06
    5    3    3     -0.02     -9.14
    4    3    3      9.05     20.84
    3    3    3    -19.16      9.18
    2    3    3    -10.55     14.87
    1    3    3     -7.81      9.83
    0    3    3      0.97     17.08
   33    4    3      1.22      0.46
   32    4    3      0.81      0.12
   31    4    3      1.46     -2.59
   30    4    3     -1.25      2.14
   29    4    3     -0.67     -1.67
   28    4    3      0.59      2.24
   27    4    3      2.39     -1.63
   26    4    3      1.97     -4.85
   25    4    3      2.51     -1.12
   24    4    3      2.40      1.73
   23    4    3     -2.63      0.86
   22    4    3     -1.70      1.13
   21    4    3      2.29      4.88
   20    4    3     -1.02     -0.25
   19    4    3      1.78     -1.87
   18    4    3      1.32     -1.94
   17    4    3      1.04      4.33
   16    4    3     -0.52     -1.28
   15    4    3      1.94     -5.43
   14    4    3      1.08      4.78
   13    4    3     -3.15     -3.89
   12    4    3      8.10      4.38
   11    4    3      0.90     -1.09
   10    4    3      9.14     -6.09
    9    4    3      0.30    -12.48
    8    4    3      5.29    -10.09
    7    4    3     -5.94     -1.20
    6    4    3     20.69     -0.58
    5    4    3    -12.14    -29.70
    4    4    3     -6.89    -10.14
    3    4    3     -2.05     -7.14
    2    4    3      6.20    -16.85
    1    4    3      0.84      0.79
    0    4    3     13.34      0.24
   33    5    3      0.14      2.39
   32    5    3     -0.79      0.69
   31    5    3     -3.14      2.39
   30    5    3     -0.43     -3.40
   29    5    3     -0.18      1.27
   28    5    3      0.22      1.28
   27    5    3     -3.76      0.48
   26    5    3     -1.96      4.62
   25    5    3      1.47      0.00
   24    5    3     -0.95      3.78
   23    5    3      3.85     -3.47
   22    5    3     -0.37      0.95
   21    5    3     -0.80      6.28
   20    5    3     -4.32      1.51
   19    5    3     -1.78     -0.03
   18    5    3      1.83      8.74
   17    5    3      1.23     -5.38
   16    5    3      1.47     -2.48
   15    5    3      1.50      0.81
   14    5    3      3.11      3.52
   13    5    3      6.14     -5.34
   12    5    3      5.49      4.83
   11    5    3     -7.86     -3.31
   10    5    3      2.60     14.58
    9    5    3     -1.51     -3.75
    8    5    3     -4.84      6.26
    7    5    3      0.70     -5.94
    6    5    3     -6.04      7.18
    5    5    3     -8.53     -2.85
    4    5    3      3.60     21.91
    3    5    3     -4.45    -11.30
    2    5    3     -7.20     14.32
    1    5    3    -11.34    -10.20
    0    5    3      1.24     -4.48
   33    6    3      1.98     -0.10
   32    6    3      0.96     -1.06
   31    6    3      1.89     -1.49
   30    6    3     -0.78      0.36
   29    6    3      1.64     -0.77
   28    6    3      1.38      0.60
   27    6    3      1.49      2.26
   26    6    3      1.61     -4.30
   25    6    3     -3.16      4.87
   24    6    3      0.91     -1.60
   23    6    3      2.80     -2.29
   22    6    3     -1.54     -1.77
   21    6    3      4.37     -1.54
   20    6    3      2.89     -5.54
   19    6    3     -1.79      6.49
   18    6    3      2.77      5.18
   17    6    3     -0.54      5.72
   16    6    3      0.16      4.63
   15    6    3     -6.83     -1.44
   14    6    3      3.28      1.28
   13    6    3      5.11     -2.67
   12    6    3     -1.91     -0.62
   11    6    3      7.73     -0.97
   10    6    3      6.86      4.71
    9    6    3    -16.76     -7.07
    8    6    3     -2.09      6.62
    7    6    3     -0.11     -4.30
    6    6    3      3.67      6.16
    5    6    3    -12.83    -12.13
    4    6    3      3.22     -2.56
    3    6    3      1.02      6.08
    2    6    3      9.50      1.32
    1    6    3     15.05     -9.86
    0    6    3     25.38      0.92
   33    7    3      0.99      0.33
   32    7    3     -0.49     -0.67
   31    7    3     -1.75      3.76
   30    7    3     -0.92     -4.43
   29    7    3      0.51      1.54
   28    7    3      1.49      0.12
   27    7    3     -0.37     -0.30
   26    7    3     -2.17      4.13
   25    7    3     -0.47      1.41
   24    7    3      1.97      0.64
   23    7    3      0.61     -0.30
   22    7    3      1.60      3.20
   21    7    3      4.74     -0.85
   20    7    3     -2.58      0.23
   19    7    3      1.44      0.57
   18    7    3      8.19      6.40
   17    7    3      3.64     -0.18
   16    7    3      2.02      4.04
   15    7    3      0.61     -4.57
   14    7    3      2.40      8.23
   13    7    3     -2.98     -6.88
   12    7    3      3.39     -0.25
   11    7    3      1.60     -5.57
   10    7    3     -2.70      0.35
    9    7    3     -5.21     -1.48
    8    7    3      5.97      4.48
    7    7    3      2.26     -6.69
    6    7    3     -8.05     15.07
    5    7    3     -2.70     -7.36
    4    7    3     -7.06      9.94
    3    7    3     -6.66      1.67
    2    7    3      0.05     14.11
    1    7    3     -4.26      6.71
    0    7    3      0.37      3.31
   33    8    3      1.48     -1.18
   32    8    3      3.52     -1.63
   31    8    3      1.30     -1.95
   30    8    3     -0.13      0.08
   29    8    3      0.37      2.78
   28    8    3      1.96     -0.28
   27    8    3      1.81      0.12
   26    8    3     -0.66     -2.16
   25    8    3      0.68      0.69
   24    8    3     -1.79     -2.74
   23    8    3     -2.01      1.37
   22    8    3      2.43      1.10
   21    8    3     -1.42     -0.77
   20    8    3      2.08      2.59
   19    8    3     -0.94     -5.26
   18    8    3      3.60      4.44
   17    8    3     -0.43      4.57
   16    8    3      5.82      0.00
   15    8    3     -3.59      2.58
   14    8    3      5.98      0.62
   13    8    3     -3.81     -1.94
   12    8    3      1.10     10.01
   11    8    3      1.92      2.49
   10    8    3     -0.42      6.35
    9    8    3     -6.31     -3.29
    8    8    3    -11.05     -6.25
    7    8    3      6.51      2.38
    6    8    3      7.04     10.03
    5    8    3     -2.63     -6.50
    4    8    3     -1.62      9.31
    3    8    3      1.05     -9.68
    2    8    3     -1.84      7.74
    1    8    3      2.22     -0.65
    0    8    3     35.76     -0.19
   33    9    3      1.51      1.38
   32    9    3     -1.59      1.17
   31    9    3      0.54      0.69
   30    9    3     -1.86     -2.27
   29    9    3      1.10      2.00
   28    9    3      0.21      0.35
   27    9    3     -2.18      1.02
   26    9    3      2.83      3.14
   25    9    3      0.98     -3.81
   24    9    3      1.66     -2.04
   23    9    3      5.80     -5.16
   22    9    3      0.91      3.61
   21    9    3     -0.11      4.77
   20    9    3     -0.13      5.97
   19    9    3     -0.99      1.96
   18    9    3      5.22      9.74
   17    9    3      0.20     -6.42
   16    9    3      0.28      7.53
   15    9    3     -0.17      1.30
   14    9    3      3.92      5.42
   13    9    3     -3.43     -5.86
   12    9    3     -1.36      1.75
   11    9    3     -6.58     -4.04
   10    9    3      1.81     13.05
    9    9    3    -16.01     -2.77
    8    9    3     -1.31      3.67
    7    9    3      6.01    -11.43
    6    9    3     -2.05      8.64
    5    9    3     -3.53      8.18
    4    9    3      6.79      8.55
    3    9    3      8.85      9.19
    2    9    3     -9.65     21.56
    1    9    3    -11.23      0.59
    0    9    3      0.08     14.74
   32   10    3      2.40     -0.33
   31   10    3     -0.24      0.18
   30   10    3     -0.68      2.65
   29   10    3      1.82      1.26
   28   10    3     -1.15      0.07
   27   10    3      3.48     -2.33
   26   10    3     -0.38      2.60
   25   10    3     -2.14     -2.56
   24   10    3      4.06      0.55
   23   10    3     -0.23     -1.64
   22   10    3      2.34     -0.31
   21   10    3      1.83     -2.12
   20   10    3      0.15      4.67
   19   10    3     -3.89      1.47
   18   10    3      7.07      1.60
   17   10    3      0.15     -5.70
   16   10    3      0.13      0.47
   15   10    3     -3.58     -6.59
   14   10    3      7.55      1.70
   13   10    3     -4.35     -2.14
   12   10    3      2.62     -0.77
   11   10    3      6.77     -2.51
   10   10    3      4.18      2.36
    9   10    3     -7.66      1.69
    8   10    3     -1.98     -1.63
    7   10    3      5.13     -9.33
    6   10    3     -8.81      4.10
    5   10    3      1.24    -13.66
    4   10    3      9.76      4.48
    3   10    3      6.19     -2.94
    2   10    3     -6.37      3.95
    1   10    3      8.97     -1.51
    0   10    3      7.18     -0.42
   32   11    3     -0.59      0.65
   31   11    3     -1.63      0.88
   30   11    3     -2.21     -0.69
   29   11    3     -0.30      1.00
   28   11    3     -0.21     -0.16
   27   11    3      0.86      1.90
   26   11    3     -1.10      1.11
   25   11    3      1.35     -3.55
   24   11    3      0.79      1.80
   23   11    3     -1.41     -1.44
   22   11    3      4.75      4.39
   21   11    3      1.24     -1.75
   20   11    3     -5.57      3.79
   19   11    3     -1.15      2.07
   18   11    3      1.76      6.22
   17   11    3     -5.71      4.63
   16   11    3     -0.18      1.04
   15   11    3     -2.33      0.12
   14   11    3     -1.91     12.39
   13   11    3     -6.95     -3.25
   12   11    3     -1.32     14.68
   11   11    3     -4.15     -6.71
   10   11    3      0.10      9.54
    9   11    3     -8.76      2.80
    8   11    3      9.16      8.41
    7   11    3      3.16      3.24
    6   11    3      0.25     13.28
    5   11    3    -17.92     -1.92
    4   11    3     -0.16      8.20
    3   11    3      5.89     -1.83
    2   11    3     13.66     21.46
    1   11    3     -5.83     -2.35
    0   11    3      0.05      5.79
   32   12    3      0.86      1.18
   31   12    3     -0.85      0.55
   30   12    3     -0.47      2.44
   29   12    3      0.59      0.25
   28   12    3      0.59      0.25
   27   12    3      2.41     -3.96
   26   12    3      1.96      2.04
   25   12    3      2.36     -4.65
   24   12    3     -0.73     -0.46
   23   12    3     -0.89      1.26
   22   12    3      2.15      1.78
   21   12    3     -1.14      3.50
   20   12    3      2.45      2.15
   19   12    3      0.57     -5.09
   18   12    3      1.46      0.30
   17   12    3      0.34     -3.76
   16   12    3     -0.48      1.06
   15   12    3     -3.95     -5.46
   14   12    3      6.16     -8.79
   13   12    3     -2.51     -5.85
   12   12    3     -1.87      2.82
   11   12    3      3.37     -9.54
   10   12    3      5.11      0.33
    9   12    3     -8.57    -11.10
    8   12    3      3.33     -8.61
    7   12    3     13.26     -1.84
    6   12    3      0.89      1.96
    5   12    3      0.06      3.69
    4   12    3     -0.12     -3.19
    3   12    3     -4.05     -1.12
    2   12    3    -18.25      8.42
    1   12    3      5.75     -7.73
    0   12    3     25.63     -0.45
   31   13    3     -0.83     -0.80
   30   13    3     -1.26      0.36
   29   13    3     -0.85      0.14
   28   13    3     -1.11     -1.31
   27   13    3      0.93      2.94
   26   13    3     -0.06      1.94
   25   13    3      0.40     -1.56
   24   13    3      0.87     -1.51
   23   13    3      0.09     -1.23
   22   13    3      0.26      1.25
   21   13    3     -0.94      1.28
   20   13    3     -1.69      4.47
   19   13    3     -3.78     -0.87
   18   13    3      2.46     -0.88
   17   13    3     -1.95     -2.82
   16   13    3     -5.39      1.72
   15   13    3     -1.42      1.49
   14   13    3      1.79      3.19
   13   13    3     -2.07      2.98
   12   13    3     -2.56      5.50
   11   13    3      8.39      1.83
   10   13    3     -2.41     11.78
    9   13    3     -7.66     -1.92
    8   13    3     10.72      5.55
    7   13    3      4.02     -6.66
    6   13    3      4.88     11.44
    5   13    3    -12.04      0.49
    4   13    3      8.74     -1.65
    3   13    3      1.58      9.19
    2   13    3     -5.96     10.36
    1   13    3    -12.53      2.14
    0   13    3     -0.10      4.79
   31   14    3     -0.62      0.78
   30   14    3      1.54      1.99
   29   14    3     -0.07     -0.88
   28   14    3     -0.07     -1.23
   27   14    3      1.33     -2.88
   26   14    3      0.05      2.10
   25   14    3      2.65     -2.29
   24   14    3     -0.19      1.54
   23   14    3     -1.26     -1.57
   22   14    3     -0.62     -4.95
   21   14    3      1.88      1.79
   20   14    3     -1.46      2.96
   19   14    3     -2.43     -1.03
   18   14    3      4.84      0.20
   17   14    3     -3.31     -0.62
   16   14    3     -4.10      3.68
   15   14    3     -0.17     -8.36
   14   14    3      0.22      1.56
   13   14    3     -5.03     -7.46
   12   14    3      0.68      3.56
   11   14    3      3.59     -2.01
   10   14    3      1.98      0.10
    9   14    3     -1.97     -0.11
    8   14    3      2.74     -7.28
    7   14    3      1.76     -2.95
    6   14    3     -0.52      2.75
    5   14    3     -4.03     -2.01
    4   14    3      9.06     -0.45
    3   14    3     -4.59      0.44
    2   14    3     -9.67      5.84
    1   14    3      3.03      4.91
    0   14    3      7.91     -0.32
   31   15    3      0.10     -0.45
   30   15    3      0.92      0.89
   29   15    3     -0.69      0.07
   28   15    3      0.47     -1.09
   27   15    3     -0.04      0.28
   26   15    3     -0.69     -0.11
   25   15    3      1.34     -0.20
   24   15    3      0.04      1.84
   23   15    3     -0.20     -0.61
   22   15    3      0.86     -0.53
   21   15    3      0.28     -1.21
   20   15    3     -3.29      0.05
   19   15    3      0.99     -4.18
   18   15    3      3.07      3.09
   17   15    3     -1.20     -4.50
   16   15    3      3.50     -4.52
   15   15    3      0.41      0.07
   14   15    3      3.47     -4.12
   13   15    3      6.97     -1.70
   12   15    3     -3.19      3.00
   11   15    3      5.79     -0.02
   10   15    3     -1.91      5.37
    9   15    3      0.17      2.48
    8   15    3      4.69      1.39
    7   15    3     10.30     -2.87
    6   15    3     -2.54      5.05
    5   15    3    -16.52     -0.33
    4   15    3      2.76     -4.40
    3   15    3      1.72      8.91
    2   15    3     -0.07      4.12
    1   15    3    -14.00     -1.82
    0   15    3      0.78     -2.53
   30   16    3      0.45      0.77
   29   16    3      0.27      0.34
   28   16    3     -0.80     -0.54
   27   16    3      0.65     -0.07
   26   16    3      1.09     -1.27
   25   16    3      2.13     -1.41
   24   16    3      2.94      2.96
   23   16    3     -0.11     -2.41
   22   16    3      0.32      0.76
   21   16    3     -0.88     -2.30
   20   16    3     -0.40     -1.00
   19   16    3     -2.82     -1.95
   18   16    3      0.34     -0.33
   17   16    3      0.29      2.09
   16   16    3     -4.13      8.82
   15   16    3     -1.72     -3.62
   14   16    3      2.67     -2.69
   13   16    3     -0.21     -7.43
   12   16    3     -0.28      7.19
   11   16    3      5.89     -6.85
   10   16    3      1.53      6.99
    9   16    3     -8.54     -1.17
    8   16    3      3.97      0.77
    7   16    3      1.07      1.25
    6   16    3     -1.41      3.92
    5   16    3     -3.89     -6.17
    4   16    3      7.43      1.98
    3   16    3     -9.10      1.64
    2   16    3     -2.51     11.12
    1   16    3      4.19     -0.04
    0   16    3     15.00     -0.91
   30   17    3      0.11     -0.17
   29   17    3     -0.73     -1.26
   28   17    3      0.76      0.69
   27   17    3      0.53     -0.63
   26   17    3     -2.24     -0.84
   25   17    3      0.23      0.65
   24   17    3      2.37     -1.26
   23   17    3      0.32      1.07
   22   17    3      2.42      2.99
   21   17    3      2.41      0.00
   20   17    3     -2.71      1.47
   19   17    3     -0.87     -6.94
   18   17    3      2.43     -0.50
   17   17    3      3.15     -4.39
   16   17    3      1.86      1.00
   15   17    3      0.85      3.14
   14   17    3      5.95      1.55
   13   17    3      0.36      2.26
   12   17    3      2.33     -6.39
   11   17    3      3.03      0.08
   10   17    3     -3.24     -0.49
    9   17    3     -0.10     -1.44
    8   17    3      0.62      2.56
    7   17    3      0.09      1.22
    6   17    3     -6.50      8.05
    5   17    3     -9.85     -2.48
    4   17    3     -1.96     -6.11
    3   17    3      2.30      4.31
    2   17    3     -3.78      3.71
    1   17    3    -12.49     -0.07
    0   17    3      0.53      0.26
   30   18    3     -0.74      0.47
   29   18    3      0.35      0.24
   28   18    3     -0.37      0.27
   27   18    3      0.99     -0.06
   26   18    3      2.08     -0.30
   25   18    3      1.63     -1.23
   24   18    3      1.63     -0.30
   23   18    3     -2.81     -1.88
   22   18    3      3.38      2.05
   21   18    3      0.18      0.15
   20   18    3      2.31      2.59
   19   18    3     -0.92     -1.89
   18   18    3      2.20     -0.21
   17   18    3      0.01     -0.84
   16   18    3      0.67      0.16
   15   18    3      2.55      0.26
   14   18    3     -0.94     -0.22
   13   18    3      1.01     -5.31
   12   18    3      0.24      6.91
   11   18    3     -0.12     -4.71
   10   18    3      1.56     -2.82
    9   18    3     -3.36     -8.58
    8   18    3     -0.14     -0.40
    7   18    3     -0.41      2.46
    6   18    3      2.58      7.29
    5   18    3     -5.48     -5.55
    4   18    3      8.62      1.77
    3   18    3      0.17     -4.93
    2   18    3      2.20      4.57
    1   18    3      5.13     -9.69
    0   18    3     10.73     -1.29
   29   19    3     -0.06      0.04
   28   19    3      1.10     -1.01
   27   19    3      0.82      0.44
   26   19    3      0.90      1.62
   25   19    3      0.48      0.86
   24   19    3      3.03     -0.83
   23   19    3     -0.29     -0.74
   22   19    3      0.05     -0.08
   21   19    3     -0.10      1.06
   20   19    3      0.63     -1.00
   19   19    3      1.72     -1.26
   18   19    3      0.46      1.20
   17   19    3      2.56     -3.41
   16   19    3      1.59      0.83
   15   19    3     -2.42      3.10
   14   19    3      4.55      1.48
   13   19    3     -1.99      2.42
   12   19    3     -0.41      0.22
   11   19    3     -5.57      3.65
   10   19    3      3.43     -2.00
    9   19    3     -6.40     -2.26
    8   19    3      0.76     -9.62
    7   19    3     -0.51     -0.37
    6   19    3     -4.65      3.05
    5   19    3     -9.51      3.41
    4   19    3      4.13      2.49
    3   19    3      2.05      1.00
    2   19    3     -1.45      8.18
    1   19    3     -3.54      0.79
    0   19    3     -0.93      3.38
   29   20    3     -0.14     -1.16
   28   20    3      0.37      0.23
   27   20    3      1.20      0.16
   26   20    3     -0.04     -2.43
   25   20    3      0.53     -0.40
   24   20    3      2.20      2.08
   23   20    3     -0.17     -1.28
   22   20    3      0.55      2.63
   21   20    3     -0.16     -1.28
   20   20    3      0.78      1.61
   19   20    3     -0.66     -1.28
   18   20    3      3.72      2.41
   17   20    3      2.91      0.70
   16   20    3      3.58     -0.48
   15   20    3     -0.79      2.55
   14   20    3      2.67     -5.80
   13   20    3     -2.04     -2.92
   12   20    3     -1.20      0.90
   11   20    3     -0.80      2.09
   10   20    3     -1.15      2.17
    9   20    3     -1.53     -3.65
    8   20    3      1.50      0.64
    7   20    3      0.74     -3.05
    6   20    3      0.45     -5.29
    5   20    3      1.15     -7.09
    4   20    3      6.78     -6.73
    3   20    3     -0.80     -2.72
    2   20    3      5.68     -0.91
    1   20    3      3.13    -12.75
    0   20    3      5.70     -0.63
   28   21    3      3.97     -1.13
   27   21    3      0.67     -0.57
   26   21    3      1.25     -1.32
   25   21    3     -0.54     -0.50
   24   21    3      1.25     -1.53
   23   21    3     -0.19     -2.17
   22   21    3      1.09      3.21
   21   21    3      3.36      0.15
   20   21    3     -0.55     -2.51
   19   21    3     -1.90      0.76
   18   21    3     -0.79      0.22
   17   21    3      0.00     -0.84
   16   21    3      0.21      1.98
   15   21    3      0.36      3.14
   14   21    3      3.31      4.42
   13   21    3     -3.17     -3.39
   12   21    3      0.12     -5.24
   11   21    3     -7.45     -1.65
   10   21    3      3.59     -2.30
    9   21    3     -2.76     -0.88
    8   21    3      3.69     -3.46
    7   21    3     -2.71      2.06
    6   21    3      3.66      0.95
    5   21    3     -5.42     -0.19
    4   21    3      5.62      2.18
    3   21    3      2.16      2.31
    2   21    3      3.08      7.35
    1   21    3     -1.44      4.57
    0   21    3     -2.65      4.35
   27   22    3      1.44      0.24
   26   22    3      1.19     -2.37
   25   22    3      0.46     -1.72
   24   22    3     -0.69     -2.62
   23   22    3     -0.59     -0.02
   22   22    3     -0.15      1.12
   21   22    3      1.94     -0.97
   20   22    3      0.88      1.25
   19   22    3      4.24     -2.13
   18   22    3     -0.73      1.86
   17   22    3     -0.46     -1.13
   16   22    3      1.52     -1.61
   15   22    3     -1.57      3.76
   14   22    3      2.23     -0.75
   13   22    3      0.67     -0.27
   12   22    3      0.87      1.71
   11   22    3     -2.14      3.56
   10   22    3      0.67     -3.59
    9   22    3     -0.28     -3.04
    8   22    3      0.97      3.79
    7   22    3      3.01      1.77
    6   22    3      2.66     -1.72
    5   22    3      2.37     -6.34
    4   22    3      3.53     -4.81
    3   22    3     -1.06     -3.39
    2   22    3      1.52      0.03
    1   22    3      0.41     -4.28
    0   22    3      6.82      0.67
   27   23    3      1.42     -0.97
   26   23    3      1.10      0.22
   25   23    3      0.54     -2.03
   24   23    3      1.33      0.01
   23   23    3      0.09     -3.18
   22   23    3     -1.77      1.39
   21   23    3     -0.17      1.22
   20   23    3      2.28      0.28
   19   23    3     -2.96      2.10
   18   23    3     -0.70      0.71
   17   23    3     -0.03     -1.18
   16   23    3     -1.29     -0.69
   15   23    3     -1.34     -0.64
   14   23    3      2.49      4.71
   13   23    3     -0.34     -5.33
   12   23    3      0.35      0.01
   11   23    3     -0.50     -4.27
   10   23    3      3.26      1.28
    9   23    3      1.06     -6.96
    8   23    3      1.57     -4.37
    7   23    3     -1.61     -0.09
    6   23    3      2.55      2.62
    5   23    3     -1.97      2.07
    4   23    3      8.64      1.91
    3   23    3      0.23     -2.84
    2   23    3     -0.98      2.82
    1   23    3     -3.24      0.28
    0   23    3     -1.95     -1.23
   26   24    3     -0.46     -4.05
   25   24    3      0.17     -1.03
   24   24    3      1.53     -2.04
   23   24    3     -0.07      0.10
   22   24    3     -1.38     -2.07
   21   24    3      1.85      1.21
   20   24    3     -0.40     -2.85
   19   24    3      1.70      0.32
   18   24    3      0.30      3.69
   17   24    3      1.01      0.98
   16   24    3     -1.07     -2.80
   15   24    3      2.29      1.66
   14   24    3     -0.05      0.56
   13   24    3      1.68     -2.47
   12   24    3      0.07      1.55
   11   24    3     -0.73      3.33
   10   24    3      2.00     -1.99
    9   24    3      0.44     -3.67
    8   24    3      1.56      1.91
    7   24    3     -0.22      1.08
    6   24    3     -0.26      0.26
    5   24    3      2.28      1.68
    4   24    3      1.24      1.06
    3   24    3      0.66      3.13
    2   24    3      0.67      3.30
    1   24    3      1.07     -4.09
    0   24    3     -2.05      2.50
   25   25    3      0.72     -1.81
   24   25    3      0.83     -0.07
   23   25    3     -1.46     -0.76
   22   25    3      0.53      1.97
   21   25    3     -0.83      0.26
   20   25    3      1.57     -1.57
   19   25    3     -3.72      0.95
   18   25    3      0.71      0.60
   17   25    3     -3.90     -1.89
   16   25    3      0.78      0.48
   15   25    3     -1.92     -1.76
   14   25    3      2.63      1.29
   13   25    3      0.96     -6.49
   12   25    3     -0.65     -0.77
   11   25    3      2.08     -3.07
   10   25    3      1.19      3.04
    9   25    3      3.54     -3.81
    8   25    3      1.90     -2.91
    7   25    3     -1.62     -3.17
    6   25    3      1.26      0.04
    5   25    3     -1.63     -0.77
    4   25    3      2.19      0.91
    3   25    3     -0.28      0.31
    2   25    3      0.04     -2.17
    1   25    3     -1.65      1.60
    0   25    3     -2.01     -2.59
   25   26    3     -1.01     -0.83
   24   26    3      1.22     -0.92
   23   26    3     -0.88      0.03
   22   26    3     -1.31     -1.44
   21   26    3     -1.73      3.46
   20   26    3      0.95     -1.74
   19   26    3      1.70     -0.52
   18   26    3     -0.86      0.36
   17   26    3      1.31      2.48
   16   26    3     -0.17      0.16
   15   26    3      0.55      3.18
   14   26    3      1.10      2.21
   13   26    3      0.48     -1.21
   12   26    3      1.42     -1.87
   11   26    3     -0.65     -2.27
   10   26    3     -0.18     -2.81
    9   26    3      1.68     -3.42
    8   26    3     -1.93      1.23
    7   26    3     -0.32      3.67
    6   26    3      1.31     -2.77
    5   26    3     -0.08      0.41
    4   26    3      0.48     -2.75
    3   26    3     -1.93      2.09
    2   26    3     -2.57     -1.11
    1   26    3      0.09      0.19
    0   26    3     -1.88      0.14
   24   27    3      1.05     -0.03
   23   27    3     -1.61     -1.19
   22   27    3     -0.68      0.78
   21   27    3     -1.50      1.15
   20   27    3      2.59      1.56
   19   27    3     -5.59      2.25
   18   27    3      1.84      0.12
   17   27    3     -1.04     -3.23
   16   27    3      0.84     -2.39
   15   27    3     -1.42     -0.91
   14   27    3      1.58      2.95
   13   27    3     -1.09     -0.86
   12   27    3     -1.19     -2.91
   11   27    3     -1.18      0.57
   10   27    3      1.38     -0.48
    9   27    3      0.76     -3.17
    8   27    3      0.47     -1.10
    7   27    3     -1.40      0.76
    6   27    3     -0.60      3.49
    5   27    3      1.10      2.64
    4   27    3      1.40      0.25
    3   27    3     -0.15      0.78
    2   27    3     -2.23     -2.65
    1   27    3     -1.88     -0.82
    0   27    3     -0.40     -1.07
   23   28    3     -1.37     -0.59
   22   28    3     -0.21     -0.73
   21   28    3     -0.37     -0.64
   20   28    3      1.13      0.70
   19   28    3     -0.58     -0.85
   18   28    3      0.10      3.95
   17   28    3     -2.29     -0.09
   16   28    3      0.52     -1.15
   15   28    3      0.72     -0.67
   14   28    3      1.28      0.44
   13   28    3      0.24      0.92
   12   28    3      1.34      0.71
   11   28    3     -0.58      0.66
   10   28    3      0.43     -4.61
    9   28    3      0.04     -3.12
    8   28    3      0.06     -2.00
    7   28    3     -1.84      0.41
    6   28    3      1.30     -1.58
    5   28    3     -1.06     -0.28
    4   28    3      1.26     -1.42
    3   28    3     -0.83      1.32
    2   28    3     -0.95     -3.58
    1   28    3      0.14      0.43
    0   28    3     -1.91      0.09
   22   29    3     -1.68      0.47
   21   29    3     -1.81      0.12
   20   29    3      2.24      1.36
   19   29    3     -1.68      1.89
   18   29    3      1.23      1.46
   17   29    3     -0.42      3.24
   16   29    3      0.80      1.42
   15   29    3     -1.83      0.56
   14   29    3      0.62      0.62
   13   29    3     -0.61     -0.23
   12   29    3     -1.09      0.78
   11   29    3     -0.73      1.50
   10   29    3     -1.23      3.95
    9   29    3      1.35      1.26
    8   29    3     -2.10     -2.17
    7   29    3     -1.92     -0.18
    6   29    3     -0.61      2.61
    5   29    3     -1.26      1.28
    4   29    3     -0.56      2.35
    3   29    3     -0.79      1.23
    2   29    3     -1.24      1.07
    1   29    3      0.34     -0.14
    0   29    3     -0.16      1.67
   21   30    3     -0.97      1.43
   20   30    3      0.71      1.39
   19   30    3     -1.00     -5.28
   18   30    3      0.60      2.07
   17   30    3     -0.24     -3.61
   16   30    3      1.08      1.53
   15   30    3      0.25     -0.29
   14   30    3     -0.14      0.86
   13   30    3     -0.24      0.59
   12   30    3      0.35     -2.52
   11   30    3     -2.23     -1.20
   10   30    3      1.74     -1.00
    9   30    3     -1.06     -0.91
    8   30    3      0.99      0.51
    7   30    3     -1.10      2.63
    6   30    3      0.01     -1.00
    5   30    3     -0.60     -1.43
    4   30    3      0.79     -0.46
    3   30    3      0.08     -2.64
    2   30    3      0.48     -1.24
    1   30    3     -0.22     -1.55
    0   30    3      1.31      0.13
   20   31    3      1.18      1.87
   19   31    3     -2.36      3.50
   18   31    3     -0.10      0.08
   17   31    3     -0.81      0.71
   16   31    3      0.40      0.27
   15   31    3     -0.64      1.67
   14   31    3      0.21      2.56
   13   31    3      1.66      3.39
   12   31    3     -0.07      2.77
   11   31    3      0.38     -0.02
   10   31    3     -1.33      5.06
    9   31    3      0.21     -1.53
    8   31    3     -1.43      2.35
    7   31    3     -0.89     -1.91
    6   31    3     -0.35      4.60
    5   31    3     -2.05      1.03
    4   31    3     -2.77      2.29
    3   31    3      0.46     -1.11
    2   31    3     -0.02      1.55
    1   31    3      2.05     -1.63
    0   31    3      0.13      2.95
   18   32    3     -0.26      1.80
   17   32    3     -0.42     -1.37
   16   32    3      1.30      1.14
   15   32    3     -1.25     -3.76
   14   32    3     -0.65      0.31
   13   32    3     -1.24     -0.36
   12   32    3     -0.14     -1.15
   11   32    3      0.44     -1.15
   10   32    3      0.27     -2.56
    9   32    3     -0.32     -1.57
    8   32    3     -0.02     -1.25
    7   32    3     -0.35     -0.32
    6   32    3      0.98     -0.27
    5   32    3     -0.59     -0.69
    4   32    3      0.37      0.21
    3   32    3     -0.48     -1.32
    2   32    3     -0.74     -2.53
    1   32    3      0.62     -3.08
    0   32    3      2.81     -0.27
   17   33    3      0.00      2.45
   16   33    3      0.60      0.42
   15   33    3     -1.21      1.71
   14   33    3     -0.55     -0.55
   13   33    3     -1.15      2.81
   12   33    3      0.13      1.83
   11   33    3     -2.18      0.19
   10   33    3      0.38      5.80
    9   33    3      0.42     -1.29
    8   33    3     -0.58      1.37
    7   33    3      0.54     -4.31
    6   33    3      1.48      3.31
    5   33    3      0.58     -2.77
    4   33    3     -0.15      2.31
    3   33    3     -0.34     -1.13
    2   33    3      1.29      2.61
    1   33    3      0.15     -0.31
    0   33    3      0.54      0.22
   16   34    3      2.31      0.79
   15   34    3      0.77     -0.96
   14   34    3      1.01      1.44
   13   34    3     -0.51     -0.93
   12   34    3     -0.78     -1.32
   11   34    3     -0.82     -1.00
   10   34    3     -0.94     -0.74
    9   34    3      0.15     -1.51
    8   34    3     -0.90     -0.80
    7   34    3      1.18      0.15
    6   34    3      0.24     -1.38
    5   34    3      0.58     -1.75
    4   34    3      1.39     -2.06
    3   34    3      1.24     -1.47
    2   34    3     -0.56     -2.37
    1   34    3     -0.17      2.16
    0   34    3      3.14     -0.21
   14   35    3      0.74     -0.63
   13   35    3      0.34      1.87
   12   35    3      1.43      0.69
   11   35    3     -2.63      0.03
   10   35    3     -0.46      1.07
    9   35    3     -1.86     -1.43
    8   35    3      0.28     -1.79
    7   35    3      1.15     -4.23
    6   35    3      1.37      1.48
    5   35    3     -0.54     -0.99
    4   35    3      1.25      1.39
    3   35    3     -0.57     -2.94
    2   35    3      1.33      2.11
    1   35    3     -1.90     -2.43
    0   35    3      0.50      1.22
   12   36    3      0.15      1.46
   11   36    3      0.85      0.29
   10   36    3      0.04      2.62
    9   36    3     -1.50      0.39
    8   36    3     -1.16     -0.34
    7   36    3      1.02      0.46
    6   36    3     -0.43     -2.16
    5   36    3      1.49      0.05
    4   36    3     -0.06     -1.34
    3   36    3      0.61      1.49
    2   36    3     -0.10     -2.06
    1   36    3      0.58      1.09
    0   36    3      1.75     -0.39
    9   37    3     -0.37     -0.95
    8   37    3     -0.16     -1.18
    7   37    3     -0.78     -1.15
    6   37    3      0.89      0.04
    5   37    3     -1.53     -0.42
    4   37    3      0.06     -0.11
    3   37    3     -0.63     -0.62
    2   37    3     -0.10      2.34
    1   37    3     -0.41     -0.62
    0   37    3      0.24      2.46
    5   38    3     -0.08      1.28
    4   38    3      0.14     -1.24
    3   38    3     -1.03      0.70
    2   38    3     -1.29     -2.68
    1   38    3      0.02      1.25
    0   38    3     -0.76     -0.55
    0    0    4     -3.50      0.69
    1    0    4      3.08    -17.46
    2    0    4     -4.74     -0.31
    3    0    4      0.90     -8.22
    4    0    4    -17.45     -0.64
    5    0    4      0.36    -17.58
    6    0    4     18.92     -0.12
    7    0    4     -0.53     -4.55
    8    0    4     -1.14      0.66
    9    0    4      0.49     -6.10
   10    0    4      7.44      1.15
   11    0    4      0.20      3.31
   12    0    4      4.80      0.12
   13    0    4      0.59     -0.62
   14    0    4     -3.00      0.29
   15    0    4      0.07     -5.84
   16    0    4     -1.05     -0.06
   17    0    4     -0.40     -4.60
   18    0    4      0.14     -0.12
   19    0    4     -0.12     -6.43
   20    0    4      2.19     -0.17
   21    0    4     -0.32      1.62
   22    0    4     -4.00      0.02
   23    0    4      0.27     -1.00
   24    0    4     -3.68      0.47
   25    0    4     -0.02     -1.02
   26    0    4      0.37     -0.35
   27    0    4      0.03     -0.42
   28    0    4      0.46     -0.22
   29    0    4      0.09      0.20
   30    0    4      0.43      0.36
   31    0    4     -0.06     -2.22
   32    0    4      0.65      0.16
   32    1    4      1.34     -2.56
   31    1    4     -0.50     -0.34
   30    1    4      0.13      1.47
   29    1    4      0.40     -0.05
   28    1    4     -0.65     -0.61
   27    1    4      1.25     -1.02
   26    1    4      0.45      3.32
   25    1    4     -4.11     -1.70
   24    1    4      0.95      1.76
   23    1    4     -1.70      2.42
   22    1    4     -2.09      0.65
   21    1    4      0.87      2.98
   20    1    4     -0.85     -1.50
   19    1    4     -7.90      0.74
   18    1    4     -0.54      1.82
   17    1    4     -3.42     -1.30
   16    1    4      0.34     -0.26
   15    1    4     -3.75     -0.44
   14    1    4      1.49      2.20
   13    1    4      2.32      0.92
   12    1    4     -3.48     -3.37
   11    1    4      6.99     -1.03
   10    1    4     -2.65     -4.04
    9    1    4      5.16     -5.86
    8    1    4     -6.46     -8.28
    7    1    4    -19.75    -10.32
    6    1    4     -9.34     -5.46
    5    1    4      3.10     -3.25
    4    1    4      5.91      4.44
    3    1    4    -10.50      7.81
    2    1    4     -9.73     11.04
    1    1    4     -0.54      3.53
    0    1    4      0.47     14.81
   32    2    4      2.21      0.31
   31    2    4      1.01     -0.78
   30    2    4      2.21      1.86
   29    2    4      0.05     -1.24
   28    2    4     -0.38      2.51
   27    2    4      0.23      0.12
   26    2    4      0.33     -0.74
   25    2    4      2.28     -2.60
   24    2    4      1.98      2.17
   23    2    4     -0.74     -3.32
   22    2    4     -1.53      1.27
   21    2    4     -0.18      3.22
   20    2    4     -1.24      0.17
   19    2    4     -2.35     -5.25
   18    2    4     -0.45     -0.19
   17    2    4     -1.33     -3.31
   16    2    4     -2.69     -2.56
   15    2    4      1.60     -9.92
   14    2    4     -0.25      0.15
   13    2    4      2.14     -3.22
   12    2    4      6.23      2.16
   11    2    4      4.29      2.41
   10    2    4      2.05      5.72
    9    2    4      4.33     -3.86
    8    2    4      5.34      5.61
    7    2    4      0.11     -3.98
    6    2    4      8.84      8.38
    5    2    4     -1.00    -28.66
    4    2    4    -10.33     11.70
    3    2    4      0.48     -7.67
    2    2    4     11.93     -3.71
    1    2    4      2.39    -11.28
    0    2    4    -17.21      0.07
   32    3    4      1.01      0.68
   31    3    4      0.09      1.01
   30    3    4      1.95      1.65
   29    3    4      0.24      0.20
   28    3    4     -0.07     -1.08
   27    3    4     -1.94     -2.76
   26    3    4     -2.78      0.00
   25    3    4     -1.19     -1.11
   24    3    4      0.24      1.65
   23    3    4      0.77     -1.43
   22    3    4      0.68      3.43
   21    3    4      0.20      1.39
   20    3    4     -2.33      1.73
   19    3    4     -5.47     -0.54
   18    3    4     -3.66      4.85
   17    3    4     -1.31     -0.80
   16    3    4      2.14     -0.25
   15    3    4      0.93      0.31
   14    3    4      1.79      2.13
   13    3    4      4.62     -6.11
   12    3    4      2.03     -0.45
   11    3    4     -1.77     -3.35
   10    3    4     -7.79      4.25
    9    3    4      2.34     -8.93
    8    3    4    -11.00     -1.24
    7    3    4    -14.57     -0.38
    6    3    4     -7.01     -0.11
    5    3    4     -1.77     -1.54
    4    3    4    -11.61     18.08
    3    3    4     -5.64     -2.62
    2    3    4      0.12     17.35
    1    3    4     -9.09      1.94
    0    3    4      1.13     -1.89
   32    4    4      0.99      0.04
   31    4    4      1.61      0.36
   30    4    4      1.30      3.05
   29    4    4      3.11     -0.03
   28    4    4      1.72      3.62
   27    4    4     -0.53      0.27
   26    4    4      1.35     -0.73
   25    4    4     -0.76     -2.40
   24    4    4      2.36      1.24
   23    4    4      0.75     -3.09
   22    4    4     -1.61      1.78
   21    4    4     -0.30     -0.26
   20    4    4      1.14     -0.22
   19    4    4     -3.78     -6.91
   18    4    4     -2.52      2.23
   17    4    4     -5.06     -4.40
   16    4    4     -2.76      1.70
   15    4    4     -5.90     -6.49
   14    4    4     -0.10     -0.29
   13    4    4      6.78     -6.54
   12    4    4      2.24     -2.65
   11    4    4      4.22     -4.98
   10    4    4      3.47      4.33
    9    4    4     -4.14    -11.68
    8    4    4     -4.81      9.25
    7    4    4      5.70     -4.52
    6    4    4     11.44      5.98
    5    4    4    -10.64    -11.94
    4    4    4     -5.22      0.84
    3    4    4     -3.34     -1.25
    2    4    4      5.17      9.44
    1    4    4      9.46    -17.83
    0    4    4      6.04      0.27
   32    5    4      0.57     -0.21
   31    5    4     -0.75      0.22
   30    5    4     -1.48     -0.79
   29    5    4      1.06      0.08
   28    5    4      0.45     -0.13
   27    5    4      1.54     -0.73
   26    5    4     -3.50      0.41
   25    5    4     -1.09      0.86
   24    5    4      0.32      2.12
   23    5    4      0.43     -4.24
   22    5    4     -2.50      2.80
   21    5    4      2.29     -4.04
   20    5    4     -1.95      1.63
   19    5    4     -0.65     -5.84
   18    5    4     -0.46      2.64
   17    5    4      7.59     -5.95
   16    5    4      2.00      1.22
   15    5    4     -0.68     -0.16
   14    5    4      3.79     10.03
   13    5    4     -1.98     -4.11
   12    5    4      2.40      0.47
   11    5    4      1.95      1.11
   10    5    4     -1.77      7.89
    9    5    4     -7.57     -3.14
    8    5    4     -1.05      4.91
    7    5    4     -5.87      3.66
    6    5    4     -4.45     18.39
    5    5    4      1.91     -1.12
    4    5    4      0.07      9.22
    3    5    4    -12.50      1.43
    2    5    4     -7.89      3.53
    1    5    4     -2.61      6.47
    0    5    4      0.29     10.56
   32    6    4      2.29      0.49
   31    6    4      0.92      0.00
   30    6    4     -0.57      0.24
   29    6    4      1.69     -0.69
   28    6    4      1.31      1.40
   27    6    4      0.73     -0.96
   26    6    4      0.34      0.14
   25    6    4     -0.57     -1.39
   24    6    4     -0.60      1.29
   23    6    4     -2.12     -1.68
   22    6    4     -2.57      1.42
   21    6    4      0.20     -1.82
   20    6    4     -0.99     -1.51
   19    6    4     -2.43     -6.72
   18    6    4      1.08      0.70
   17    6    4     -3.16     -5.18
   16    6    4      1.13     -5.45
   15    6    4     -3.06     -7.25
   14    6    4     -0.54      2.38
   13    6    4     -3.89     -8.49
   12    6    4     -1.81      1.56
   11    6    4     -0.71     -2.67
   10    6    4     -4.11      1.48
    9    6    4     -3.63     -9.94
    8    6    4     -7.66     -3.48
    7    6    4      0.42     -1.36
    6    6    4      4.91      5.39
    5    6    4     -1.60    -10.10
    4    6    4     -2.72     11.09
    3    6    4     -3.17     -7.64
    2    6    4      5.73     -8.98
    1    6    4     -2.57     -6.56
    0    6    4     -3.08      0.82
   32    7    4     -0.84      0.18
   31    7    4     -1.12     -0.38
   30    7    4     -1.53     -3.36
   29    7    4      0.39      0.35
   28    7    4     -0.87     -0.47
   27    7    4      1.32     -1.61
   26    7    4     -1.84      1.07
   25    7    4      1.83      0.13
   24    7    4     -1.00      2.55
   23    7    4      0.28     -3.00
   22    7    4     -3.05      0.49
   21    7    4     -1.64     -1.43
   20    7    4     -0.13     -0.99
   19    7    4      0.17     -2.92
   18    7    4     -1.77      6.00
   17    7    4      5.85     -6.52
   16    7    4      2.07     -0.48
   15    7    4      3.18      2.68
   14    7    4      2.21      3.27
   13    7    4      2.13     -2.94
   12    7    4      0.70      0.48
   11    7    4     -4.67      4.30
   10    7    4      3.55     16.79
    9    7    4     -9.82      0.39
    8    7    4      1.24      8.95
    7    7    4     -0.11      1.24
    6    7    4      3.51      8.26
    5    7    4     -6.01      6.76
    4    7    4      3.42     15.97
    3    7    4      5.60     -1.28
    2    7    4      2.45     10.96
    1    7    4     -9.21     -5.56
    0    7    4     -0.09     -0.57
   32    8    4      0.42      1.69
   31    8    4      0.59     -0.99
   30    8    4     -0.74      1.02
   29    8    4      0.02      0.39
   28    8    4      1.15     -0.30
   27    8    4     -1.50     -0.22
   26    8    4     -0.26     -0.49
   25    8    4     -2.12     -4.57
   24    8    4      1.04     -0.85
   23    8    4      1.92     -3.87
   22    8    4     -3.40      2.61
   21    8    4      2.38     -4.10
   20    8    4      1.15     -6.46
   19    8    4     -1.84     -0.71
   18    8    4      4.42     -2.99
   17    8    4     -0.96     -2.24
   16    8    4     -0.71     -4.19
   15    8    4     -5.31     -5.71
   14    8    4      3.80      2.22
   13    8    4     -0.88     -3.72
   12    8    4     -2.01     -1.65
   11    8    4      0.83      2.64
   10    8    4      0.18      2.32
    9    8    4     -9.84     -0.26
    8    8    4     -5.32      4.91
    7    8    4      5.42     -5.09
    6    8    4     -3.28      4.35
    5    8    4     -3.27    -20.88
    4    8    4     -0.58      0.14
    3    8    4      6.24      0.43
    2    8    4     -0.20      0.04
    1    8    4     14.52     -9.54
    0    8    4      2.68     -0.35
   31    9    4     -0.53     -0.84
   30    9    4     -3.14     -2.63
   29    9    4      1.65     -1.76
   28    9    4      0.19      0.04
   27    9    4      0.08      0.16
   26    9    4     -2.68      0.92
   25    9    4     -0.53     -0.40
   24    9    4      2.17     -1.47
   23    9    4     -1.79     -1.15
   22    9    4      1.86      1.55
   21    9    4      1.21      0.37
   20    9    4     -0.29      1.22
   19    9    4     -2.56      0.13
   18    9    4      1.84      2.71
   17    9    4     -1.63      2.18
   16    9    4      1.01     -2.86
   15    9    4     -2.15      3.40
   14    9    4     -2.78      3.71
   13    9    4     -2.54     -6.98
   12    9    4     -1.93     -1.07
   11    9    4      2.35     -0.58
   10    9    4      0.95      6.93
    9    9    4    -10.72     -1.60
    8    9    4      5.00      7.20
    7    9    4      3.10      8.38
    6    9    4     -0.55     14.56
    5    9    4    -13.57     -4.46
    4    9    4     -0.16     14.90
    3    9    4     -7.35     -7.11
    2    9    4      9.77     10.04
    1    9    4     -0.60      3.41
    0    9    4      0.41     13.22
   31   10    4     -1.23     -0.22
   30   10    4     -0.99      1.27
   29   10    4     -0.08     -1.02
   28   10    4      1.28     -0.15
   27   10    4     -0.44     -2.10
   26   10    4      1.10      1.74
   25   10    4     -1.73     -2.34
   24   10    4     -0.30     -2.53
   23   10    4      0.83     -1.93
   22   10    4      0.85      0.60
   21   10    4      1.69     -1.05
   20   10    4      1.41     -0.50
   19   10    4      3.40     -2.99
   18   10    4      2.36      1.97
   17   10    4      1.56     -1.78
   16   10    4      2.86     -2.91
   15   10    4     -2.12      5.58
   14   10    4      9.04      0.10
   13   10    4     -2.91      0.81
   12   10    4      1.99      4.56
   11   10    4      0.13      2.46
   10   10    4      4.82      6.74
    9   10    4     -6.07     -7.22
    8   10    4      0.65      2.77
    7   10    4      9.66      1.43
    6   10    4      3.22      6.08
    5   10    4      5.00     -5.20
    4   10    4     -3.83      3.87
    3   10    4     -0.27     -8.79
    2   10    4     -4.95      4.35
    1   10    4      0.95     -4.79
    0   10    4     17.71      0.08
   31   11    4      0.47     -0.36
   30   11    4     -0.60     -0.89
   29   11    4      0.27     -0.88
   28   11    4      1.13     -2.78
   27   11    4      0.93     -2.61
   26   11    4      0.91     -0.34
   25   11    4     -0.23     -1.93
   24   11    4      3.63     -0.78
   23   11    4      0.37     -0.58
   22   11    4      2.14      0.92
   21   11    4      0.50      0.88
   20   11    4      2.04      1.21
   19   11    4     -3.61      2.05
   18   11    4      0.40      3.46
   17   11    4     -3.25     -4.28
   16   11    4     -2.82      0.79
   15   11    4     -4.02     -2.02
   14   11    4      1.60      2.87
   13   11    4     -5.46     -4.79
   12   11    4     -2.38     -3.85
   11   11    4      1.06     -0.43
   10   11    4     -1.48      6.51
    9   11    4    -14.76     -6.79
    8   11    4     -3.05      2.67
    7   11    4      4.32     -7.67
    6   11    4     -3.41      8.16
    5   11    4     -9.62      0.41
    4   11    4      2.33      7.24
    3   11    4      2.12      0.70
    2   11    4     -4.68      2.89
    1   11    4    -13.63     -2.40
    0   11    4      0.41     19.50
   31   12    4      0.18      0.14
   30   12    4     -0.38      2.61
   29   12    4      0.04     -0.38
   28   12    4      0.79      1.19
   27   12    4      0.69     -2.62
   26   12    4      1.17      1.13
   25   12    4     -0.12     -3.81
   24   12    4      1.38     -0.97
   23   12    4     -0.20      1.93
   22   12    4     -0.31      0.09
   21   12    4      2.43      0.18
   20   12    4     -1.53      3.09
   19   12    4      1.83     -1.12
   18   12    4      5.03      6.63
   17   12    4      1.24      2.72
   16   12    4     -2.75      2.15
   15   12    4      2.64      0.03
   14   12    4      6.00      5.54
   13   12    4     -0.73     -4.40
   12   12    4      3.70      2.40
   11   12    4      3.60      1.42
   10   12    4      7.02      5.12
    9   12    4     -2.52     -2.66
    8   12    4      2.79      2.40
    7   12    4      4.50     -0.32
    6   12    4     -2.40      3.47
    5   12    4      0.99     -9.69
    4   12    4      6.32      7.37
    3   12    4      1.32      0.77
    2   12    4     -2.45     -0.99
    1   12    4      6.00     -2.53
    0   12    4      2.31      1.23
   30   13    4      1.63     -0.37
   29   13    4      0.80     -0.77
   28   13    4      2.61     -1.21
   27   13    4     -0.60     -0.30
   26   13    4      1.61      1.54
   25   13    4      0.71     -2.69
   24   13    4      1.47      2.15
   23   13    4      0.65     -1.98
   22   13    4      2.13      2.41
   21   13    4      2.10      0.79
   20   13    4     -2.09     -2.16
   19   13    4      0.99     -4.70
   18   13    4      1.78      3.90
   17   13    4     -3.24     -2.61
   16   13    4      0.55      0.01
   15   13    4     -2.81      1.47
   14   13    4      1.15      3.96
   13   13    4     -1.26     -6.96
   12   13    4     -2.71      2.86
   11   13    4      1.38     -4.01
   10   13    4     -0.93      3.72
    9   13    4     -9.60     -2.53
    8   13    4     -0.83      3.33
    7   13    4      7.17     -0.58
    6   13    4     -8.09      0.77
    5   13    4    -10.04     -2.25
    4   13    4     -3.85      5.95
    3   13    4      5.00      2.24
    2   13    4      3.89     -0.83
    1   13    4     -5.94      1.64
    0   13    4      0.18      5.27
   30   14    4      0.75      0.55
   29   14    4      0.83     -0.91
   28   14    4      0.26     -0.10
   27   14    4      1.88     -2.10
   26   14    4      1.77     -0.53
   25   14    4     -0.54     -2.79
   24   14    4      1.25      1.65
   23   14    4     -1.19     -0.83
   22   14    4     -1.77      4.04
   21   14    4     -0.97      1.72
   20   14    4     -1.81      2.17
   19   14    4      1.73     -1.23
   18   14    4      1.49      2.12
   17   14    4      0.77     -1.17
   16   14    4     -4.44      5.52
   15   14    4     -2.67     -0.93
   14   14    4      2.29      0.12
   13   14    4      0.63     -4.32
   12   14    4     -1.18      1.83
   11   14    4      7.01     -7.04
   10   14    4      2.34      2.58
    9   14    4     -4.45    -10.84
    8   14    4      2.89     -1.69
    7   14    4      3.60      0.88
    6   14    4     -0.62     -1.96
    5   14    4     -0.04    -10.60
    4   14    4      0.51     -0.73
    3   14    4     -2.60     -3.33
    2   14    4     -8.05      5.47
    1   14    4      5.23     -4.57
    0   14    4      7.69      1.25
   30   15    4      0.51      1.45
   29   15    4     -0.85     -0.85
   28   15    4      0.84      1.02
   27   15    4      0.49     -0.90
   26   15    4     -0.08      1.58
   25   15    4     -0.31     -0.07
   24   15    4      1.86     -1.16
   23   15    4      0.08     -1.09
   22   15    4      0.95      3.87
   21   15    4      1.07      1.38
   20   15    4     -2.83      3.54
   19   15    4     -0.33     -3.27
   18   15    4      3.51      0.17
   17   15    4      3.31     -0.61
   16   15    4      0.08     -2.27
   15   15    4     -1.68      1.26
   14   15    4      2.23      5.37
   13   15    4     -4.41      0.02
   12   15    4     -0.25     -0.52
   11   15    4      5.76      2.74
   10   15    4      0.67      4.67
    9   15    4     -3.62     -5.09
    8   15    4      1.78      4.57
    7   15    4      2.88      1.70
    6   15    4     -2.47      6.10
    5   15    4     -4.17      5.09
    4   15    4      2.82      2.57
    3   15    4      7.74      6.25
    2   15    4     -2.09     -5.25
    1   15    4     -0.92      1.82
    0   15    4     -0.81      8.54
   29   16    4     -0.81      0.49
   28   16    4     -1.30      1.29
   27   16    4      0.82     -0.10
   26   16    4     -0.22      0.88
   25   16    4      2.11     -2.00
   24   16    4      0.69      0.70
   23   16    4     -1.10     -0.85
   22   16    4      1.47     -0.31
   21   16    4      0.08      0.99
   20   16    4     -0.71      3.65
   19   16    4     -1.90     -2.44
   18   16    4      1.41      5.29
   17   16    4     -1.71     -2.24
   16   16    4     -0.47     -0.87
   15   16    4      2.02     -3.11
   14   16    4      0.10     -1.02
   13   16    4     -2.89     -7.47
   12   16    4     -1.71      3.19
   11   16    4     -0.02     -2.17
   10   16    4      1.05     -1.13
    9   16    4     -1.10     -9.97
    8   16    4      1.57     -4.23
    7   16    4     -2.23     -6.94
    6   16    4      1.20     -0.59
    5   16    4     -5.12    -13.43
    4   16    4      2.62      3.18
    3   16    4      1.12      0.52
    2   16    4     -6.07     -0.35
    1   16    4      3.62     -5.45
    0   16    4     -1.95      2.34
   29   17    4      0.51     -1.49
   28   17    4     -0.90     -1.07
   27   17    4      0.07     -1.27
   26   17    4     -0.64      2.47
   25   17    4     -0.89      1.53
   24   17    4      0.59     -0.79
   23   17    4      0.20     -0.69
   22   17    4      0.20      0.11
   21   17    4     -0.81      4.30
   20   17    4     -0.15     -1.70
   19   17    4     -0.37     -1.36
   18   17    4      0.53      2.95
   17   17    4     -0.46     -2.02
   16   17    4      0.17      0.36
   15   17    4     -0.86      0.28
   14   17    4      3.31     -1.18
   13   17    4      1.10     -1.79
   12   17    4     -3.65      0.54
   11   17    4     -3.02      0.69
   10   17    4      0.92      5.04
    9   17    4     -3.28      0.81
    8   17    4     -0.32     -0.88
    7   17    4      6.60      2.56
    6   17    4     -0.42      1.54
    5   17    4     -6.74     -1.33
    4   17    4      6.90      7.53
    3   17    4      4.30      2.94
    2   17    4      1.69     -2.63
    1   17    4      2.53      4.00
    0   17    4     -0.67     -0.07
   28   18    4     -0.40      1.22
   27   18    4      1.61     -0.14
   26   18    4     -0.82     -0.96
   25   18    4      2.97      0.69
   24   18    4      1.67      3.79
   23   18    4      2.29      0.32
   22   18    4      0.32      2.11
   21   18    4      1.89     -1.73
   20   18    4      0.67      0.38
   19   18    4     -0.63     -1.60
   18   18    4      1.85      0.78
   17   18    4      0.62     -1.71
   16   18    4      0.53      3.63
   15   18    4     -2.02     -2.89
   14   18    4      3.82     -0.26
   13   18    4      1.74     -4.14
   12   18    4     -0.05     -0.10
   11   18    4      1.66     -1.22
   10   18    4     -0.82      5.11
    9   18    4     -5.70     -6.69
    8   18    4      1.83      2.69
    7   18    4     -0.87      0.55
    6   18    4     -1.68     -2.78
    5   18    4      0.33     -8.69
    4   18    4      1.06      1.97
    3   18    4     -4.52     -1.20
    2   18    4     -0.41      6.26
    1   18    4     -1.17     -4.68
    0   18    4      3.71      1.49
   28   19    4      0.66     -0.83
   27   19    4      0.54     -1.20
   26   19    4      0.89     -0.57
   25   19    4     -1.56      0.76
   24   19    4      1.65     -2.59
   23   19    4     -0.41      0.45
   22   19    4      1.88      2.27
   21   19    4      0.80      2.34
   20   19    4      0.41     -0.28
   19   19    4     -2.25     -4.09
   18   19    4      0.36     -0.62
   17   19    4      2.67     -2.28
   16   19    4     -1.37     -1.65
   15   19    4     -1.07     -0.52
   14   19    4     -0.40      3.44
   13   19    4     -1.92     -2.90
   12   19    4     -3.87     -3.90
   11   19    4     -1.82      0.17
   10   19    4     -2.22     -2.39
    9   19    4      0.96     -2.99
    8   19    4     -1.99      1.35
    7   19    4      0.23     -1.76
    6   19    4      1.04      1.04
    5   19    4     -1.32     -2.31
    4   19    4     -0.29      0.79
    3   19    4      4.47      1.22
    2   19    4     -4.33     -1.62
    1   19    4     -4.49      2.16
    0   19    4     -1.10      5.15
   27   20    4      1.62     -0.61
   26   20    4      0.35      0.50
   25   20    4      1.64     -1.06
   24   20    4     -0.33      0.80
   23   20    4     -0.65     -0.87
   22   20    4     -0.32      1.01
   21   20    4      2.74     -3.30
   20   20    4      0.46      1.31
   19   20    4      0.91     -3.13
   18   20    4     -0.92      2.07
   17   20    4      1.79     -3.03
   16   20    4      1.71      0.42
   15   20    4      1.20      0.75
   14   20    4      0.92     -0.01
   13   20    4      0.95     -1.65
   12   20    4      0.20      4.18
   11   20    4     -2.05      2.35
   10   20    4      0.01     -1.82
    9   20    4      0.91     -0.06
    8   20    4     -2.60      0.28
    7   20    4      2.51      4.79
    6   20    4     -0.17      3.18
    5   20    4      0.22     -7.34
    4   20    4      4.18      2.86
    3   20    4      2.21     -0.84
    2   20    4      1.37      0.22
    1   20    4      0.37     -6.03
    0   20    4      4.75      1.15
   27   21    4      1.14      0.17
   26   21    4      1.60      1.45
   25   21    4     -0.57     -0.07
   24   21    4      3.47     -0.34
   23   21    4     -1.32     -1.56
   22   21    4      1.33     -0.44
   21   21    4     -0.37      0.01
   20   21    4      4.16      0.08
   19   21    4     -1.29     -3.51
   18   21    4     -0.16      1.03
   17   21    4      0.96     -2.04
   16   21    4      0.18      0.63
   15   21    4     -1.50     -0.57
   14   21    4     -0.88      1.26
   13   21    4      1.24     -0.05
   12   21    4     -4.60     -0.60
   11   21    4     -1.10     -0.83
   10   21    4      2.37     -0.20
    9   21    4      2.97     -5.08
    8   21    4     -0.25     -7.10
    7   21    4      2.71      0.48
    6   21    4     -2.34     -2.49
    5   21    4     -3.27      1.39
    4   21    4      0.18      4.51
    3   21    4      0.13     -0.33
    2   21    4     -4.20      0.13
    1   21    4     -2.87      4.13
    0   21    4      0.09     -2.82
   26   22    4     -1.98     -0.97
   25   22    4     -0.24     -1.96
   24   22    4     -1.26      2.69
   23   22    4     -2.15     -4.03
   22   22    4     -0.73      0.94
   21   22    4      0.53     -5.01
   20   22    4     -0.05     -0.28
   19   22    4      1.18     -2.82
   18   22    4     -1.10      2.84
   17   22    4      3.45     -0.74
   16   22    4      0.38      0.93
   15   22    4     -0.78      0.56
   14   22    4      2.96     -1.34
   13   22    4     -0.60     -2.94
   12   22    4     -0.69     -1.23
   11   22    4     -2.76      5.38
   10   22    4     -0.20      0.33
    9   22    4     -0.37     -1.31
    8   22    4      0.31     -0.17
    7   22    4      2.28      0.97
    6   22    4     -0.45     -3.14
    5   22    4      3.90     -1.21
    4   22    4      2.07     -0.15
    3   22    4      0.46      0.37
    2   22    4      3.48      4.60
    1   22    4     -0.21     -5.12
    0   22    4      1.34      1.24
   25   23    4     -0.63      0.12
   24   23    4     -0.03     -0.67
   23   23    4     -1.49     -0.48
   22   23    4      0.56      0.72
   21   23    4     -0.98     -1.57
   20   23    4      3.46      0.56
   19   23    4     -3.27     -3.06
   18   23    4     -0.37      0.85
   17   23    4     -0.42     -1.78
   16   23    4     -1.34      1.35
   15   23    4     -0.93      0.93
   14   23    4      0.19      3.76
   13   23    4      0.32     -2.55
   12   23    4      0.95     -1.39
   11   23    4     -0.17     -0.60
   10   23    4      2.84     -0.17
    9   23    4      3.69      2.03
    8   23    4      2.00     -0.98
    7   23    4     -1.62     -1.62
    6   23    4      1.99     -2.09
    5   23    4      0.10      0.61
    4   23    4      1.72      0.27
    3   23    4      1.43      2.30
    2   23    4      1.12     -0.64
    1   23    4     -2.41      3.78
    0   23    4     -0.09      0.35
   25   24    4     -1.15     -2.26
   24   24    4     -0.09      0.12
   23   24    4     -1.25     -2.44
   22   24    4     -1.61     -0.02
   21   24    4      0.46     -1.75
   20   24    4      0.35      0.85
   19   24    4      0.62     -2.08
   18   24    4     -0.35      2.94
   17   24    4      0.65     -1.16
   16   24    4      0.47      0.35
   15   24    4     -1.99     -0.16
   14   24    4      0.10     -0.54
   13   24    4      0.72     -3.38
   12   24    4      0.77     -0.26
   11   24    4     -2.06     -2.80
   10   24    4      1.74     -2.86
    9   24    4      1.24     -1.96
    8   24    4     -1.72      0.74
    7   24    4     -2.08      4.30
    6   24    4      1.54      0.62
    5   24    4     -1.63     -4.71
    4   24    4      0.90     -1.70
    3   24    4     -0.31     -2.19
    2   24    4     -0.15      1.22
    1   24    4      0.38     -2.31
    0   24    4     -0.63      0.59
   24   25    4     -0.04     -0.27
   23   25    4     -1.72     -0.51
   22   25    4     -1.10     -1.22
   21   25    4     -1.08      0.38
   20   25    4      0.87      0.56
   19   25    4     -4.03     -0.73
   18   25    4     -0.86     -0.36
   17   25    4      0.41     -2.23
   16   25    4     -0.46     -0.92
   15   25    4     -0.68     -1.45
   14   25    4     -0.50      3.16
   13   25    4     -0.95     -0.47
   12   25    4     -2.10     -0.43
   11   25    4     -1.07      0.80
   10   25    4      2.13      1.18
    9   25    4      1.85     -3.19
    8   25    4      2.00     -1.47
    7   25    4     -0.84      0.81
    6   25    4     -0.38      2.50
    5   25    4      1.74      3.64
    4   25    4      5.26      2.17
    3   25    4      0.25     -2.13
    2   25    4      1.18      1.98
    1   25    4      0.10      0.31
    0   25    4     -0.32      2.84
   23   26    4     -1.93     -0.77
   22   26    4      0.36     -0.97
   21   26    4      1.45     -0.91
   20   26    4     -0.18     -0.75
   19   26    4      0.59     -1.60
   18   26    4     -2.06      2.36
   17   26    4     -2.12     -1.77
   16   26    4     -1.17     -2.37
   15   26    4      0.21     -1.97
   14   26    4      0.43     -1.06
   13   26    4      1.20     -4.88
   12   26    4     -0.46      2.34
   11   26    4     -0.17      0.34
   10   26    4     -2.04      0.26
    9   26    4      2.44     -2.50
    8   26    4      0.23     -0.63
    7   26    4     -2.84     -1.20
    6   26    4      2.01      0.44
    5   26    4     -0.38     -2.53
    4   26    4     -1.95     -0.16
    3   26    4      1.18     -2.56
    2   26    4      0.73      1.03
    1   26    4      0.58     -5.41
    0   26    4     -4.48      0.03
   22   27    4     -0.84     -1.30
   21   27    4     -3.45      0.23
   20   27    4      2.25     -1.51
   19   27    4     -1.10     -0.26
   18   27    4      0.82     -1.56
   17   27    4     -0.43      0.10
   16   27    4     -1.55     -0.08
   15   27    4     -0.08      0.27
   14   27    4     -1.16     -0.02
   13   27    4      1.57     -1.23
   12   27    4     -0.62     -1.97
   11   27    4     -1.60     -0.23
   10   27    4      0.30      2.83
    9   27    4      1.69      1.09
    8   27    4     -0.38     -2.50
    7   27    4     -1.49     -1.93
    6   27    4      1.02      0.78
    5   27    4     -1.16      0.57
    4   27    4      1.15      0.55
    3   27    4     -1.84      0.76
    2   27    4     -0.39      3.18
    1   27    4      2.22      1.39
    0   27    4     -0.71      3.86
   21   28    4     -1.14      1.23
   20   28    4     -0.11     -1.39
   19   28    4      0.12     -3.48
   18   28    4     -0.09     -1.24
   17   28    4      1.27     -3.63
   16   28    4     -1.11     -1.28
   15   28    4      0.61      0.12
   14   28    4     -1.34      0.77
   13   28    4      2.05     -0.88
   12   28    4     -0.82     -0.19
   11   28    4     -0.21     -1.54
   10   28    4     -0.58      1.86
    9   28    4      0.13     -2.84
    8   28    4      0.19      0.91
    7   28    4      0.03      0.94
    6   28    4      2.85      0.45
    5   28    4      1.74     -2.88
    4   28    4     -1.19     -0.12
    3   28    4      0.16     -2.22
    2   28    4      0.97      2.32
    1   28    4     -0.36     -1.25
    0   28    4     -1.43     -0.05
   20   29    4      0.54      0.04
   19   29    4     -2.54      1.79
   18   29    4      1.42     -3.02
   17   29    4     -1.28     -0.88
   16   29    4      0.39     -1.54
   15   29    4     -0.14      0.26
   14   29    4      0.42      2.31
   13   29    4      0.35      1.13
   12   29    4      0.73     -1.26
   11   29    4      0.86      1.14
   10   29    4      0.87      0.45
    9   29    4      0.04      0.68
    8   29    4      0.98     -3.59
    7   29    4     -3.40     -2.02
    6   29    4      2.11      1.15
    5   29    4     -0.62      0.78
    4   29    4     -0.09     -2.38
    3   29    4     -3.14     -0.24
    2   29    4     -2.86     -0.04
    1   29    4     -1.13      0.43
    0   29    4     -0.35      0.87
   19   30    4      1.65     -0.90
   18   30    4      0.35      0.58
   17   30    4      1.25     -1.22
   16   30    4      0.40     -0.65
   15   30    4      3.17     -0.02
   14   30    4     -0.92      0.91
   13   30    4      0.10     -0.14
   12   30    4      1.45     -0.52
   11   30    4     -1.65     -2.85
   10   30    4      1.48      0.27
    9   30    4      0.31     -2.88
    8   30    4      0.39     -0.17
    7   30    4     -2.09     -0.01
    6   30    4      2.81      2.44
    5   30    4     -0.82     -0.54
    4   30    4      1.48      2.60
    3   30    4      0.01      0.80
    2   30    4      1.99      1.54
    1   30    4     -0.51     -0.65
    0   30    4     -1.77      0.29
   18   31    4      0.80     -1.12
   17   31    4     -1.31     -0.05
   16   31    4      1.39     -0.32
   15   31    4     -1.31      1.11
   14   31    4      0.28      1.24
   13   31    4     -1.62      2.40
   12   31    4     -1.30     -0.64
   11   31    4     -4.42     -1.36
   10   31    4     -0.29      0.58
    9   31    4     -1.97     -1.18
    8   31    4     -0.29     -3.83
    7   31    4     -2.34     -1.02
    6   31    4      0.82      1.86
    5   31    4     -1.15      0.30
    4   31    4     -1.23     -0.40
    3   31    4     -2.64      0.79
    2   31    4      0.05      1.30
    1   31    4     -0.95      1.43
    0   31    4     -0.12     -1.83
   17   32    4      1.28     -0.61
   16   32    4      1.24      0.19
   15   32    4      3.00     -0.04
   14   32    4      1.19      1.75
   13   32    4      1.57      0.83
   12   32    4      1.73     -0.22
   11   32    4     -1.44     -1.08
   10   32    4      1.15     -0.15
    9   32    4     -2.41     -4.51
    8   32    4      0.04     -0.79
    7   32    4     -1.50     -1.32
    6   32    4      1.25      2.46
    5   32    4     -0.20     -0.90
    4   32    4      0.27      0.55
    3   32    4      0.45     -1.11
    2   32    4      0.78      0.15
    1   32    4     -0.82      0.78
    0   32    4      1.26      0.04
   15   33    4     -2.13      0.33
   14   33    4     -0.74     -2.00
   13   33    4     -1.98      0.90
   12   33    4     -0.50     -0.85
   11   33    4     -2.97     -1.38
   10   33    4     -2.14      2.74
    9   33    4     -2.78     -1.46
    8   33    4     -2.52     -2.45
    7   33    4     -4.46     -2.17
    6   33    4     -0.85      3.91
    5   33    4     -2.55      2.69
    4   33    4     -1.34      1.10
    3   33    4     -0.16      0.31
    2   33    4     -0.57      0.48
    1   33    4      1.53     -0.61
    0   33    4      0.36     -1.47
   13   34    4     -0.39      0.49
   12   34    4     -0.30     -2.06
   11   34    4     -0.29     -0.66
   10   34    4      0.99      1.24
    9   34    4     -0.07     -1.72
    8   34    4     -1.12     -0.32
    7   34    4      0.68     -2.27
    6   34    4     -0.76     -0.07
    5   34    4      0.79     -1.94
    4   34    4     -0.34      1.41
    3   34    4      1.71      0.93
    2   34    4      0.16     -1.98
    1   34    4      0.66     -0.54
    0   34    4      0.21     -0.09
   11   35    4     -0.97     -0.50
   10   35    4     -0.98      1.71
    9   35    4      0.40     -0.34
    8   35    4     -0.70      0.30
    7   35    4     -1.87     -0.47
    6   35    4      0.45      1.46
    5   35    4     -2.71      0.83
    4   35    4     -0.43     -0.29
    3   35    4     -1.80      0.75
    2   35    4      1.41      0.52
    1   35    4      0.89      1.10
    0   35    4      0.17     -3.70
    9   36    4     -0.61     -0.74
    8   36    4     -2.23      0.02
    7   36    4      1.64     -0.52
    6   36    4      0.15      0.09
    5   36    4      2.20     -0.89
    4   36    4      0.47     -0.27
    3   36    4      1.11     -0.52
    2   36    4     -0.76     -0.51
    1   36    4     -0.32      0.44
    0   36    4      1.11     -0.10
    0    0    5     -7.60      0.95
    1    0    5      1.71     -9.42
    2    0    5      6.29      0.00
    3    0    5      0.81     -7.19
    4    0    5    -12.99      0.35
    5    0    5      0.35    -11.25
    6    0    5     -3.40     -0.53
    7    0    5     -0.24     -4.02
    8    0    5     -0.87     -0.19
    9    0    5      0.10     -1.34
   10    0    5     -3.22      0.01
   11    0    5     -0.27     -0.70
   12    0    5      1.55     -0.04
   13    0    5     -0.56     -6.48
   14    0    5     -0.12     -0.73
   15    0    5      0.53     -4.02
   16    0    5      0.02     -0.69
   17    0    5     -0.04     -0.41
   18    0    5      0.04      0.27
   19    0    5     -0.39     -1.69
   20    0    5     -1.38     -0.03
   21    0    5     -0.02      2.36
   22    0    5     -1.19      0.17
   23    0    5     -0.06     -2.01
   24    0    5      2.59      0.05
   25    0    5      0.32     -0.43
   26    0    5     -2.84     -0.01
   27    0    5     -0.56      0.17
   28    0    5     -1.62     -0.07
   29    0    5     -0.26     -1.12
   30    0    5      0.79      0.09
   31    0    5     -0.03      1.35
   31    1    5      0.88      0.89
   30    1    5      0.83      3.09
   29    1    5      0.25      1.13
   28    1    5      1.02     -1.41
   27    1    5      2.80     -1.45
   26    1    5     -1.28      0.75
   25    1    5     -0.97      0.16
   24    1    5      0.45      1.34
   23    1    5      2.00     -0.93
   22    1    5      3.17      2.42
   21    1    5      4.15     -0.33
   20    1    5      0.12     -1.10
   19    1    5     -0.43     -0.94
   18    1    5     -1.42      3.08
   17    1    5     -0.80      0.59
   16    1    5     -0.75      4.67
   15    1    5     -0.07      0.99
   14    1    5      0.46      6.45
   13    1    5      2.85     -3.37
   12    1    5      3.04      5.56
   11    1    5      5.21     -0.70
   10    1    5      0.49      1.09
    9    1    5      4.90     -0.63
    8    1    5      1.69     -1.74
    7    1    5    -11.51      1.33
    6    1    5      3.99      2.29
    5    1    5      0.75     -0.93
    4    1    5     -2.71     11.96
    3    1    5     -6.82     -1.66
    2    1    5      1.24     17.48
    1    1    5      0.80      0.20
    0    1    5      1.17     10.60
   31    2    5     -0.60     -0.18
   30    2    5      0.77     -0.11
   29    2    5     -0.69      1.00
   28    2    5      1.12     -0.04
   27    2    5     -2.65      0.38
   26    2    5     -1.41     -0.03
   25    2    5     -1.19     -2.07
   24    2    5     -0.83      0.95
   23    2    5      1.05     -1.35
   22    2    5     -0.48      1.40
   21    2    5      4.20      2.00
   20    2    5      2.59      4.94
   19    2    5      2.44     -1.29
   18    2    5     -0.27      0.88
   17    2    5     -1.52     -2.78
   16    2    5      0.42      1.24
   15    2    5     -2.52     -0.45
   14    2    5      0.04      0.68
   13    2    5      3.09     -4.46
   12    2    5      6.10     -0.40
   11    2    5      0.16     -4.99
   10    2    5      1.48      6.07
    9    2    5     -3.00     -4.47
    8    2    5     -3.07      4.22
    7    2    5     -3.89     -2.40
    6    2    5      3.46     -1.75
    5    2    5     -3.94     -6.40
    4    2    5     -7.41     -0.36
    3    2    5     -1.17     -8.44
    2    2    5      2.05      5.02
    1    2    5      3.13    -12.21
    0    2    5     -5.32      0.01
   31    3    5     -0.96     -1.23
   30    3    5     -0.77      2.39
   29    3    5     -0.89      0.71
   28    3    5      0.94      0.13
   27    3    5      2.02      0.49
   26    3    5      1.56     -0.49
   25    3    5     -1.63     -0.29
   24    3    5      1.58      1.52
   23    3    5      0.14     -0.93
   22    3    5      0.37     -0.20
   21    3    5      2.33      0.96
   20    3    5      1.38      0.57
   19    3    5     -1.50      0.15
   18    3    5     -0.33      3.92
   17    3    5      1.43      0.22
   16    3    5     -0.73     -0.20
   15    3    5     -3.40     -0.80
   14    3    5      0.61      7.34
   13    3    5     -2.66      0.67
   12    3    5      3.04     -1.39
   11    3    5      4.16      1.18
   10    3    5      5.06      1.42
    9    3    5     -0.75     -6.69
    8    3    5      1.21      4.63
    7    3    5     -9.19     -2.07
    6    3    5      0.56     10.85
    5    3    5      3.89      1.03
    4    3    5      3.26      7.36
    3    3    5     -0.93      3.92
    2    3    5     -0.08      9.46
    1    3    5      3.30      3.23
    0    3    5      2.12     16.69
   31    4    5     -1.24     -0.06
   30    4    5      1.11     -0.60
   29    4    5     -0.69     -2.12
   28    4    5      0.52      0.94
   27    4    5      0.34      0.72
   26    4    5      0.19     -0.33
   25    4    5      2.36     -1.81
   24    4    5      1.11      0.58
   23    4    5      0.01     -2.88
   22    4    5      0.00      0.14
   21    4    5      1.82      2.37
   20    4    5      0.87      0.69
   19    4    5     -0.69     -1.23
   18    4    5      1.55      1.68
   17    4    5     -0.96     -2.18
   16    4    5      2.30     -3.11
   15    4    5      4.13     -4.76
   14    4    5      1.16      1.08
   13    4    5      0.31     -6.45
   12    4    5      6.37      1.61
   11    4    5     -2.27      0.20
   10    4    5      3.62      1.95
    9    4    5      2.07     -5.62
    8    4    5      1.47      2.08
    7    4    5     -1.48     -5.09
    6    4    5      1.20      5.20
    5    4    5     -3.97    -11.37
    4    4    5     -3.60     11.04
    3    4    5     -3.47     -8.94
    2    4    5      7.03     -6.55
    1    4    5      3.30    -11.86
    0    4    5     -8.78     -0.02
   31    5    5     -0.25     -0.52
   30    5    5     -0.65      0.26
   29    5    5     -1.51     -0.64
   28    5    5      0.30      0.36
   27    5    5      0.30     -1.68
   26    5    5      1.06     -0.55
   25    5    5      0.82      2.66
   24    5    5      1.32      2.78
   23    5    5      2.00      0.28
   22    5    5     -1.38      2.21
   21    5    5      0.85     -0.07
   20    5    5     -0.22      0.65
   19    5    5     -1.10      0.45
   18    5    5     -2.53      4.38
   17    5    5     -2.63      2.37
   16    5    5      2.29     -1.52
   15    5    5     -1.01      2.72
   14    5    5      0.97      2.90
   13    5    5      4.05     -2.60
   12    5    5     -0.69      1.04
   11    5    5     -3.52      1.51
   10    5    5      2.57     11.81
    9    5    5     -5.86     -3.91
    8    5    5      0.66      6.02
    7    5    5     -1.35      1.40
    6    5    5     -1.64      4.55
    5    5    5      4.76      2.11
    4    5    5     -5.08     18.33
    3    5    5      2.51      0.36
    2    5    5      4.16     11.18
    1    5    5      1.73      1.00
    0    5    5      3.89     -3.41
   31    6    5     -0.45      2.11
   30    6    5     -0.58      0.56
   29    6    5      1.20     -0.17
   28    6    5      0.98     -0.05
   27    6    5      1.82     -0.39
   26    6    5      1.65     -0.07
   25    6    5      2.33     -2.76
   24    6    5      1.25     -1.14
   23    6    5      1.28     -0.90
   22    6    5     -2.79     -0.02
   21    6    5     -0.15      0.92
   20    6    5     -1.00     -1.27
   19    6    5     -0.76     -4.35
   18    6    5      0.63      1.23
   17    6    5     -0.41     -3.86
   16    6    5      0.11      1.31
   15    6    5     -2.78     -3.86
   14    6    5      2.30      2.03
   13    6    5      5.69     -3.89
   12    6    5      0.87     -3.43
   11    6    5      5.01      1.81
   10    6    5     -1.16      1.57
    9    6    5      1.46     -7.97
    8    6    5      2.26      7.73
    7    6    5      3.15     -4.23
    6    6    5      5.11     -1.93
    5    6    5     -0.93    -12.26
    4    6    5     -4.48     -0.87
    3    6    5     -2.05     -4.84
    2    6    5      4.48      9.50
    1    6    5      5.30    -14.35
    0    6    5      5.64      1.82
   30    7    5     -1.73     -0.39
   29    7    5      1.00      1.21
   28    7    5     -0.71      0.87
   27    7    5      1.85      0.61
   26    7    5     -0.37     -0.60
   25    7    5      1.61      1.35
   24    7    5      2.51      4.24
   23    7    5      1.42     -1.39
   22    7    5     -1.88      2.48
   21    7    5      0.72     -3.09
   20    7    5     -3.63      0.54
   19    7    5      0.40     -2.45
   18    7    5     -4.71      2.55
   17    7    5      4.83     -1.05
   16    7    5     -1.27      0.07
   15    7    5     -1.20      1.58
   14    7    5     -2.39     10.24
   13    7    5     -1.72     -5.70
   12    7    5      0.25      0.56
   11    7    5      1.30      4.97
   10    7    5     -2.35      8.73
    9    7    5     -2.75     -2.30
    8    7    5     -3.41      7.28
    6    7    5      0.29     11.69
    5    7    5     -3.94     -3.33
    4    7    5     -2.00      7.12
    3    7    5     -4.84     -5.88
    2    7    5     -5.28     -0.07
    1    7    5     -0.09      4.37
    0    7    5      2.97     14.10
    7    7    5      2.51      3.74
   30    8    5     -0.90     -0.05
   29    8    5      0.40     -0.38
   28    8    5     -0.88      0.02
   27    8    5      0.47      0.88
   26    8    5     -0.47      0.17
   25    8    5      0.51     -0.73
   24    8    5     -1.93     -1.78
   23    8    5      4.08      0.74
   22    8    5     -2.33      1.74
   21    8    5      2.64      0.31
   20    8    5     -2.40      0.19
   19    8    5     -0.76     -4.50
   18    8    5     -0.51      2.86
   17    8    5      0.36     -3.23
   16    8    5      1.30     -0.85
   15    8    5      1.87      0.99
   14    8    5     -2.85      5.27
   13    8    5      2.01     -4.37
   12    8    5     -2.91      3.75
   11    8    5      0.23      2.70
   10    8    5      1.52      1.13
    9    8    5      0.17     -8.22
    8    8    5      0.18     -0.74
    7    8    5      8.23      1.02
    6    8    5      4.70     -2.93
    5    8    5      5.28     -2.80
    4    8    5      2.99      2.63
    3    8    5     -5.44     -8.51
    2    8    5      8.27     -5.76
    1    8    5     -1.07     -6.52
    0    8    5     -0.88      2.39
   30    9    5     -0.33     -0.86
   29    9    5      1.03      1.02
   28    9    5     -0.23      0.53
   27    9    5      1.98      0.58
   26    9    5     -1.77     -0.20
   25    9    5     -0.67     -1.39
   24    9    5      0.97      2.66
   23    9    5      0.20     -2.71
   22    9    5     -1.86      1.60
   21    9    5      2.02     -4.29
   20    9    5     -1.00      1.17
   19    9    5      1.48     -2.04
   18    9    5     -8.78      7.49
   17    9    5      2.59     -5.35
   16    9    5     -2.35      1.92
   15    9    5     -0.06      0.65
   14    9    5      0.19      3.99
   13    9    5      1.90     -4.00
   12    9    5     -2.92     -5.94
   11    9    5      3.26      3.99
   10    9    5      1.85      7.20
    9    9    5     -5.02     -2.78
    8    9    5      0.69      2.74
    7    9    5      0.61     -6.83
    6    9    5     -0.18      0.94
    5    9    5     -4.01      0.02
    4    9    5     -3.25     11.41
    3    9    5      3.05     -4.65
    2    9    5      0.22     -0.39
    1    9    5     -3.96     -4.14
    0    9    5      3.52      6.47
   30   10    5     -1.49      0.58
   29   10    5     -0.51     -0.72
   28   10    5     -2.13     -0.55
   27   10    5     -0.31      0.48
   26   10    5     -2.07      0.79
   25   10    5     -1.12     -1.15
   24   10    5     -2.47     -2.99
   23   10    5      2.60     -0.19
   22   10    5     -2.02      0.32
   21   10    5      4.30     -0.58
   20   10    5      0.33     -3.43
   19   10    5      2.74     -0.31
   18   10    5      2.04      1.45
   17   10    5      0.56      1.34
   16   10    5     -4.48      0.96
   15   10    5     -1.24     -0.46
   14   10    5      0.68      6.79
   13   10    5     -3.53     -4.00
   12   10    5     -2.47     -0.98
   11   10    5     -3.97      3.73
   10   10    5     -0.68     -1.93
    9   10    5     -1.30     -2.98
    8   10    5     -0.49      3.30
    7   10    5      2.82      1.43
    6   10    5      3.29     -3.83
    5   10    5     -2.46     -8.72
    4   10    5     -0.85      0.41
    3   10    5     -3.55      3.44
    2   10    5      0.17     -1.50
    1   10    5      3.21     -0.90
    0   10    5     -6.37      1.57
   30   11    5     -0.35     -1.01
   29   11    5     -0.63     -0.46
   28   11    5      0.18     -0.15
   27   11    5     -0.07     -0.13
   26   11    5     -2.31      0.63
   25   11    5      0.18     -1.99
   24   11    5     -0.65      2.48
   23   11    5      0.43     -1.07
   22   11    5     -2.09      3.14
   21   11    5     -0.40     -4.67
   20   11    5      0.46      2.80
   19   11    5     -1.02     -4.31
   18   11    5      1.14      5.52
   17   11    5     -0.15     -1.74
   16   11    5      0.69     -2.61
   15   11    5      0.89      2.73
   14   11    5     -1.42      1.83
   13   11    5      5.31     -6.11
   12   11    5      1.46     -3.47
   11   11    5      0.62     -0.27
   10   11    5      5.50     -0.69
    9   11    5     -5.88     -4.86
    8   11    5      3.88      0.30
    7   11    5      7.19     -2.09
    6   11    5     -0.31     -2.16
    5   11    5     -1.28     -2.70
    4   11    5     -1.25      9.77
    3   11    5      5.60     -4.65
    2   11    5      4.57     -1.62
    1   11    5      6.49      2.37
    0   11    5      2.76     11.94
   29   12    5      0.56     -0.39
   28   12    5     -1.75     -2.25
   27   12    5      0.33     -0.73
   26   12    5      0.02      0.20
   25   12    5     -1.85     -1.95
   24   12    5      1.03     -0.97
   23   12    5      1.48     -0.73
   22   12    5      0.14     -0.69
   21   12    5      0.87      1.23
   20   12    5     -3.47     -3.24
   19   12    5      1.81     -2.29
   18   12    5      0.72      2.23
   17   12    5     -1.09     -2.12
   16   12    5      0.38     -0.75
   15   12    5     -6.24      1.35
   14   12    5      1.20     -3.17
   13   12    5     -2.59     -2.45
   12   12    5     -4.29     -3.63
   11   12    5      0.39      1.67
   10   12    5     -3.69     -0.31
    9   12    5     -6.27     -7.98
    8   12    5     -3.04      3.61
    7   12    5     -1.11      0.71
    6   12    5      0.26      0.78
    5   12    5     -0.64     -6.08
    4   12    5     -8.49      2.06
    3   12    5     -4.78     -1.80
    2   12    5     -2.96      2.06
    1   12    5     -0.69      2.35
    0   12    5     -2.94      1.17
   29   13    5     -1.53     -1.60
   28   13    5     -0.81     -0.39
   27   13    5     -0.71     -1.24
   26   13    5     -1.94     -1.50
   25   13    5      0.03     -1.25
   24   13    5     -1.89      1.11
   23   13    5      0.73      0.69
   22   13    5     -0.52      3.33
   21   13    5     -0.84     -1.85
   20   13    5      1.19      0.71
   19   13    5     -2.65     -2.63
   18   13    5      0.65      3.06
   17   13    5      3.17     -3.21
   16   13    5      3.00      0.65
   15   13    5     -0.55     -1.31
   14   13    5      1.25      4.93
   13   13    5     -2.39     -5.03
   12   13    5      1.12     -3.39
   11   13    5      3.15      1.63
   10   13    5      2.15      2.69
    9   13    5     -1.77     -5.50
    8   13    5      0.27      2.98
    7   13    5      2.32     -4.94
    6   13    5      0.71     -0.81
    5   13    5     -1.96      2.28
    4   13    5     -1.95      8.70
    3   13    5      5.64      0.56
    2   13    5     -3.75     -3.12
    1   13    5      0.89      0.80
    0   13    5      0.93     19.99
   28   14    5     -0.17     -0.37
   27   14    5      1.43      0.84
   26   14    5      2.52      0.61
   25   14    5     -1.37     -1.48
   24   14    5      2.94     -0.57
   23   14    5     -0.17     -0.38
   22   14    5      0.34      1.91
   21   14    5     -1.98     -0.70
   20   14    5     -1.73     -0.84
   19   14    5     -1.56     -3.82
   18   14    5     -1.25      1.60
   17   14    5     -0.64     -0.98
   16   14    5     -2.64     -3.88
   15   14    5      5.77      0.15
   14   14    5      0.49     -0.62
   13   14    5     -0.58     -7.42
   12   14    5     -3.68     -2.98
   11   14    5     -2.19      0.26
   10   14    5     -1.44     -1.10
    9   14    5      0.18     -3.70
    8   14    5     -3.53      3.44
    7   14    5      2.30     -1.44
    6   14    5      3.15      1.68
    5   14    5      2.34    -10.70
    4   14    5      0.48      4.43
    3   14    5      2.33     -1.95
    2   14    5      2.66     -1.92
    1   14    5      2.94     -4.09
    0   14    5     -5.70      3.32
   29   14    5      1.20      0.14
   28   15    5     -1.11      0.40
   27   15    5      0.87     -2.68
   26   15    5     -1.76      0.72
   25   15    5     -0.09     -0.38
   24   15    5     -1.24     -1.40
   23   15    5     -0.20      1.22
   22   15    5     -2.48     -0.88
   21   15    5      0.85      3.23
   20   15    5     -1.16     -0.77
   19   15    5      0.00     -3.29
   18   15    5      0.09      3.53
   17   15    5     -1.97     -2.73
   16   15    5     -0.25      1.36
   15   15    5     -1.37      1.92
   14   15    5      0.52      2.86
   13   15    5      4.99     -4.43
   12   15    5     -2.06      2.73
   11   15    5     -0.75     -3.53
   10   15    5     -1.60      5.81
    9   15    5     -4.78     -1.83
    8   15    5     -3.15      5.68
    7   15    5     -1.37      1.45
    6   15    5     -4.81     -0.64
    5   15    5     -8.71      0.60
    4   15    5     -2.34     12.36
    3   15    5     -2.98     -0.09
    2   15    5     -1.77     -2.84
    1   15    5      0.36      3.40
    0   15    5      0.47     13.89
   28   16    5      1.66      0.36
   27   16    5      1.30      0.00
   26   16    5      0.24      0.43
   25   16    5     -0.23     -0.93
   24   16    5      1.43      1.83
   23   16    5      0.25     -0.50
   22   16    5      0.97      2.30
   21   16    5     -3.71     -0.25
   20   16    5     -1.17     -1.21
   19   16    5      2.58     -0.33
   18   16    5      0.12      1.41
   17   16    5      1.72     -2.67
   16   16    5     -4.03      1.62
   15   16    5      0.48      0.10
   14   16    5     -0.77      3.25
   13   16    5      3.90     -1.37
   12   16    5      0.34     -2.02
   11   16    5      4.69     -2.09
   10   16    5      2.00      3.12
    9   16    5     -0.40     -4.98
    8   16    5      2.96      3.86
    7   16    5      2.44      2.25
    6   16    5      5.34     -3.47
    5   16    5      6.66     -6.81
    4   16    5      0.74      1.10
    3   16    5     -3.12     -4.40
    2   16    5      5.32      3.05
    1   16    5     -3.36     -7.48
    0   16    5     -2.16      4.68
   27   17    5      1.95     -1.66
   26   17    5      1.22      0.93
   25   17    5     -0.04     -1.83
   24   17    5     -2.87     -1.66
   23   17    5      2.00     -1.75
   22   17    5     -1.79      0.72
   21   17    5      1.25      2.07
   20   17    5     -0.68      0.62
   19   17    5     -1.98     -1.41
   18   17    5      0.51     -1.12
   17   17    5      4.20      0.90
   16   17    5      0.33     -3.36
   15   17    5     -4.46     -0.51
   14   17    5     -2.26      4.02
   13   17    5     -1.59     -1.17
   12   17    5     -1.51      3.10
   11   17    5      0.71      0.58
   10   17    5     -1.21      2.28
    9   17    5      0.52     -4.21
    8   17    5     -1.02      9.36
    7   17    5     -5.47      0.68
    6   17    5      0.26      1.27
    5   17    5     -2.21      2.81
    4   17    5     -0.68      6.08
    3   17    5      4.23      3.54
    2   17    5     -4.13     -3.41
    1   17    5     -4.48      3.63
    0   17    5      0.60     14.65
   27   18    5      0.51      0.87
   26   18    5     -0.74     -0.06
   25   18    5     -1.26      0.72
   24   18    5      0.44     -1.25
   23   18    5     -0.52      1.06
   22   18    5     -2.49     -0.33
   21   18    5      0.53     -0.78
   20   18    5     -0.98      1.67
   19   18    5     -0.30      0.67
   18   18    5      1.02      5.66
   17   18    5      0.39     -1.28
   16   18    5      2.08      0.86
   15   18    5      3.57     -0.29
   14   18    5      1.13      3.25
   13   18    5     -1.51     -1.53
   12   18    5      0.30      6.43
   11   18    5     -0.16      3.25
   10   18    5      3.28      2.90
    9   18    5      1.52     -0.28
    8   18    5      0.98      0.94
    7   18    5     -2.57     -0.48
    6   18    5      4.41      1.42
    5   18    5     -5.78     -8.97
    4   18    5      3.01      1.21
    3   18    5     -1.64     -0.93
    2   18    5      4.30     -2.46
    1   18    5      0.35     -4.58
    0   18    5     -6.80      6.27
   26   19    5      0.04      2.31
   25   19    5      0.86     -0.05
   24   19    5      0.53      0.46
   23   19    5      0.32     -2.30
   22   19    5      0.62     -0.97
   21   19    5      0.92      0.40
   20   19    5      0.39     -0.32
   19   19    5     -0.47     -3.67
   18   19    5     -1.04      1.16
   17   19    5      0.23      0.69
   16   19    5      1.84      0.82
   15   19    5     -1.97     -0.38
   14   19    5      1.83     -1.63
   13   19    5      1.48     -1.82
   12   19    5     -2.29      2.64
   11   19    5     -3.96     -0.47
   10   19    5      0.96      4.36
    9   19    5      3.44     -2.04
    8   19    5      1.34      1.98
    7   19    5      4.19      1.43
    6   19    5      0.20     -0.14
    5   19    5      0.57      0.24
    4   19    5      3.09     10.50
    3   19    5     -0.43     -0.57
    2   19    5      1.31     -4.25
    1   19    5      1.58      4.68
    0   19    5      0.29      0.18
   26   20    5     -1.76     -1.79
   25   20    5     -1.40      1.66
   24   20    5     -1.26      0.25
   23   20    5      0.21      1.29
   22   20    5     -0.72     -1.43
   21   20    5     -0.86     -2.28
   20   20    5      0.32     -1.89
   19   20    5      0.96      0.61
   18   20    5      0.59      0.14
   17   20    5      1.13     -1.93
   16   20    5      1.31      3.14
   15   20    5     -0.80      0.39
   14   20    5      5.60      5.32
   13   20    5      1.00     -0.62
   12   20    5      0.57      2.17
   11   20    5      0.03      1.69
   10   20    5     -0.57      5.89
    9   20    5     -3.71     -0.17
    8   20    5     -1.37      1.62
    7   20    5     -3.32     -0.63
    6   20    5      0.79     -4.29
    5   20    5     -0.42     -2.62
    4   20    5      0.11      1.80
    3   20    5     -3.47     -0.54
    2   20    5      5.71      6.42
    1   20    5     -3.02     -5.78
    0   20    5     -2.22      3.16
   25   21    5     -1.95      1.63
   24   21    5      0.01      0.13
   23   21    5     -0.42      1.91
   22   21    5      0.29      0.67
   21   21    5      0.00      0.01
   20   21    5      1.71      2.86
   19   21    5     -2.16     -4.26
   18   21    5      0.13      3.25
   17   21    5      3.10     -0.94
   16   21    5     -1.03     -0.42
   15   21    5     -0.16     -1.44
   14   21    5      1.66      2.55
   13   21    5      2.26      0.97
   12   21    5      0.61      0.69
   11   21    5      0.00     -0.27
   10   21    5     -0.04     -1.16
    9   21    5      4.30     -1.63
    8   21    5     -0.72      6.75
    7   21    5     -1.75     -5.12
    6   21    5     -0.51      0.17
    5   21    5      2.86     -4.38
    4   21    5      2.22      1.28
    3   21    5      3.35      1.50
    2   21    5      0.75     -4.39
    1   21    5     -1.17      3.66
    0   21    5     -0.08      3.29
   24   22    5      1.08     -0.58
   23   22    5     -1.36      0.17
   22   22    5      1.09     -3.13
   21   22    5      0.35     -1.87
   20   22    5      0.80     -3.18
   19   22    5     -0.47     -0.22
   18   22    5      1.95      1.50
   17   22    5      1.38     -0.38
   16   22    5     -0.07      2.11
   15   22    5      0.16     -1.08
   14   22    5      0.07      0.03
   13   22    5      1.74     -0.67
   12   22    5      0.92      3.03
   11   22    5      1.67      0.47
   10   22    5      1.17     -3.03
    9   22    5      2.44      0.66
    8   22    5     -3.22     -1.95
    7   22    5     -1.53      3.48
    6   22    5     -1.05      1.77
    5   22    5     -2.61     -5.77
    4   22    5     -0.45      1.20
    3   22    5      2.79     -2.57
    2   22    5      3.63     -0.47
    1   22    5      1.37     -1.17
    0   22    5     -3.07      0.69
   24   23    5     -0.27      1.10
   23   23    5     -0.51      2.08
   22   23    5      0.52      0.26
   21   23    5     -0.62      2.19
   20   23    5      1.54      1.44
   19   23    5     -0.89     -1.97
   18   23    5      0.37      1.86
   17   23    5      2.66      0.26
   16   23    5      2.19      2.70
   15   23    5      0.89     -1.65
   14   23    5      0.07      1.84
   13   23    5      1.02     -1.33
   12   23    5     -4.61      1.14
   11   23    5     -0.92      1.13
   10   23    5      0.15      1.42
    9   23    5      3.56     -2.85
    8   23    5      0.44      0.06
    7   23    5      0.97     -1.87
    6   23    5     -1.88     -0.12
    5   23    5     -0.78     -0.22
    4   23    5      3.15      3.01
    3   23    5     -2.53     -4.67
    2   23    5      1.97     -0.20
    1   23    5      2.33     -0.97
    0   23    5     -0.15     -0.10
   23   24    5      0.24     -1.80
   22   24    5      1.10     -0.64
   21   24    5      0.35     -0.41
   20   24    5      0.95      0.60
   19   24    5     -1.96      0.66
   18   24    5      0.52      2.10
   17   24    5     -0.02     -0.27
   16   24    5     -0.32      0.63
   15   24    5      1.30      1.34
   14   24    5      3.24     -1.11
   13   24    5      2.45     -3.08
   12   24    5     -0.25     -0.93
   11   24    5      0.30      0.20
   10   24    5     -1.99     -0.31
    9   24    5      0.41      0.29
    8   24    5     -0.16     -0.04
    7   24    5     -0.52     -0.11
    6   24    5     -0.01     -0.89
    5   24    5      3.14     -0.92
    4   24    5     -3.27     -2.19
    3   24    5      1.51      0.83
    2   24    5      4.32      0.17
    1   24    5     -1.75     -3.05
    0   24    5     -0.33      0.38
   22   25    5     -0.85     -0.70
   21   25    5      0.20      0.57
   20   25    5      1.14      0.14
   19   25    5     -0.02      0.92
   18   25    5      0.07      1.99
   17   25    5     -0.97     -0.69
   16   25    5     -1.25      1.15
   15   25    5     -1.50     -0.17
   14   25    5      0.13      2.41
   13   25    5      0.23     -0.99
   12   25    5     -0.76     -0.35
   11   25    5     -1.67     -1.16
   10   25    5     -1.43      0.18
    9   25    5      2.33      1.25
    8   25    5     -1.15      1.33
    7   25    5     -2.45     -0.82
    6   25    5      2.56      1.85
    5   25    5     -2.13     -0.45
    4   25    5      2.22      1.85
    3   25    5     -2.26     -0.01
    2   25    5     -0.72      1.59
    1   25    5     -0.68      1.31
    0   25    5     -0.05      2.53
   21   26    5     -1.14      0.07
   20   26    5     -1.39      0.08
   19   26    5     -1.19      0.31
   18   26    5      1.93      1.14
   17   26    5      0.79     -1.14
   16   26    5      0.40      0.68
   15   26    5     -1.24     -0.98
   14   26    5      0.91      1.04
   13   26    5      1.70     -1.16
   12   26    5      1.54      1.48
   11   26    5     -0.98      0.04
   10   26    5      1.16      0.32
    9   26    5     -0.39     -1.05
    8   26    5     -0.64     -0.12
    7   26    5     -0.53      2.36
    6   26    5      1.55      0.27
    5   26    5      1.46     -1.01
    4   26    5      0.43      0.61
    3   26    5      1.68     -0.43
    2   26    5      3.32      2.66
    1   26    5     -0.24     -1.10
    0   26    5     -1.22      0.37
   20   27    5     -2.19      1.19
   19   27    5     -2.19     -0.23
   18   27    5     -1.38     -0.27
   17   27    5     -0.39      0.06
   16   27    5     -0.22     -1.37
   15   27    5     -1.36      1.92
   14   27    5     -0.68      2.08
   13   27    5     -2.42     -0.37
   12   27    5     -1.60      1.37
   11   27    5     -0.84      1.44
   10   27    5     -0.10      2.21
    9   27    5      0.02      0.46
    8   27    5     -0.45      0.49
    7   27    5     -1.65     -0.66
    6   27    5     -0.42      0.37
    5   27    5     -0.23      1.48
    4   27    5      1.64     -1.16
    3   27    5     -3.48      0.70
    2   27    5      1.30      1.69
    1   27    5     -1.21      0.30
    0   27    5      0.03      1.73
   19   28    5     -0.95     -0.14
   18   28    5     -0.97      1.17
   17   28    5     -0.02     -4.36
   16   28    5      0.64     -0.57
   15   28    5      1.68      0.44
   14   28    5      1.74      1.45
   13   28    5     -0.74      0.01
   12   28    5      2.04      0.63
   11   28    5     -1.72      1.26
   10   28    5      0.40      0.05
    9   28    5      2.42     -0.18
    8   28    5      0.61      0.01
    7   28    5     -3.07      0.80
    6   28    5      1.80      2.37
    5   28    5      1.59     -0.47
    4   28    5     -1.63      1.23
    3   28    5      3.25      1.64
    2   28    5      1.43      2.75
    1   28    5      0.28     -1.34
    0   28    5     -1.85      0.00
   18   29    5     -0.54     -0.91
   17   29    5     -0.81     -0.83
   16   29    5     -1.02     -0.63
   15   29    5      1.31      0.99
   14   29    5     -0.85      1.94
   13   29    5      1.45      2.44
   12   29    5     -1.53      2.59
   11   29    5     -3.70      2.46
   10   29    5      0.05      1.40
    9   29    5      0.28      1.31
    8   29    5     -1.21     -2.43
    7   29    5      0.66      0.12
    6   29    5     -0.14      0.40
    5   29    5     -1.40     -0.52
    4   29    5     -0.30     -1.12
    3   29    5     -1.20      0.31
    2   29    5      1.52     -1.27
    1   29    5      0.63      0.74
    0   29    5     -0.11     -3.19
   17   30    5      0.07     -1.72
   16   30    5      0.90     -0.87
   15   30    5      0.65      0.72
   14   30    5      1.19      1.07
   13   30    5      1.30      0.07
   12   30    5      0.34      0.78
   11   30    5     -0.64      2.95
   10   30    5     -1.21      2.48
    9   30    5     -0.33     -0.40
    8   30    5     -1.05     -1.70
    7   30    5     -0.87      0.66
    6   30    5      0.51     -0.36
    5   30    5      1.25      0.37
    4   30    5     -1.36     -0.04
    3   30    5      0.75      0.58
    2   30    5      0.73      2.87
    1   30    5      0.87      0.31
    0   30    5      1.40     -0.30
   15   31    5      1.21      1.20
   14   31    5      0.32      0.90
   13   31    5      1.43      0.93
   12   31    5      0.13     -0.43
   11   31    5     -0.45      0.94
   10   31    5     -0.80      1.37
    9   31    5     -0.81      1.41
    8   31    5     -0.33     -0.86
    7   31    5     -1.71     -0.99
    6   31    5      0.65      1.23
    5   31    5     -0.94      0.59
    4   31    5     -1.71     -1.78
    3   31    5     -1.62      0.69
    2   31    5     -1.62     -1.80
    1   31    5      1.31     -0.59
    0   31    5     -0.22     -0.99
   14   32    5     -1.00      2.08
   13   32    5     -0.62      0.63
   12   32    5     -0.08      1.00
   11   32    5     -2.10      1.15
   10   32    5     -0.41      1.85
    9   32    5     -0.24      0.33
    8   32    5     -1.92     -0.89
    7   32    5     -1.22      0.51
    6   32    5      1.54      0.04
    5   32    5      2.15     -0.38
    4   32    5      1.10      0.68
    3   32    5      0.32      1.27
    2   32    5      1.34     -0.62
    1   32    5     -0.77     -0.65
    0   32    5      0.70     -0.35
   12   33    5      0.07      0.06
   11   33    5     -1.83     -1.04
   10   33    5     -0.12      0.78
    9   33    5     -1.61     -0.60
    8   33    5     -0.59     -0.43
    7   33    5     -2.78     -0.92
    6   33    5      1.23      0.98
    5   33    5     -2.50     -0.34
    4   33    5     -0.24      0.39
    3   33    5     -0.26      0.72
    2   33    5      0.17      1.29
    1   33    5      1.16      0.71
    0   33    5     -0.08      0.03
   10   34    5      1.70      1.54
    9   34    5     -2.27     -1.28
    8   34    5     -0.87      0.08
    7   34    5     -1.21      0.31
    6   34    5      0.84      0.36
    5   34    5      2.50      0.14
    4   34    5      0.66     -0.74
    3   34    5      0.80      0.23
    2   34    5     -0.22     -0.29
    1   34    5     -0.23      0.14
    0   34    5      0.01     -0.15
    7   35    5     -3.35     -1.47
    6   35    5      0.45      1.70
    5   35    5     -1.82     -0.48
    4   35    5      1.46     -0.36
    3   35    5      0.25     -0.63
    2   35    5      1.69      0.42
    1   35    5      0.54     -0.25
    0   35    5      0.05      2.14
    0    0    6     -9.29     -0.28
    1    0    6     -1.55    -18.84
    2    0    6     -1.89      0.27
    3    0    6     -1.23     -5.92
    4    0    6     -3.77     -0.17
    5    0    6     -0.32     -4.72
    6    0    6     -3.35     -0.01
    7    0    6     -0.49      1.74
    8    0    6    -10.74      0.51
    9    0    6      0.11      2.74
   10    0    6     -0.71      0.27
   11    0    6      0.43     -5.03
   12    0    6      1.95      0.45
   13    0    6     -0.29     -4.09
   14    0    6     -0.51     -0.30
   15    0    6      0.05     -2.12
   16    0    6      2.84     -0.58
   17    0    6     -0.18     -1.60
   18    0    6     -2.24     -0.24
   19    0    6     -0.13      2.83
   20    0    6     -0.66     -0.22
   21    0    6     -0.11      0.76
   22    0    6     -0.37     -0.43
   23    0    6      0.20      3.30
   24    0    6     -0.91     -0.37
   25    0    6      0.12     -0.33
   26    0    6     -2.58      0.14
   27    0    6      0.17     -1.55
   28    0    6      0.74     -0.13
   29    0    6     -0.20      1.35
   29    1    6     -1.46      1.03
   28    1    6     -1.93     -1.18
   27    1    6      0.96      1.26
   26    1    6      1.45      0.00
   25    1    6      0.19     -1.02
   24    1    6      1.00      2.08
   23    1    6     -2.63      0.95
   22    1    6     -0.09      1.33
   21    1    6      0.68     -0.36
   20    1    6      2.12     -0.17
   19    1    6     -0.56     -2.48
   18    1    6     -0.93      2.15
   17    1    6      0.13      0.76
   16    1    6     -1.92      2.47
   15    1    6     -1.13     -1.12
   14    1    6     -0.83      4.74
   13    1    6      0.79      0.63
   12    1    6     -0.04      3.82
   11    1    6      1.78      0.04
   10    1    6      4.52      4.20
    9    1    6      4.15     -1.43
    8    1    6      1.40      9.35
    7    1    6     -1.26      1.68
    6    1    6     -3.98      7.64
    5    1    6      7.25     -4.81
    4    1    6     -0.29      9.74
    3    1    6      4.54     -3.72
    2    1    6      2.81      3.39
    1    1    6      5.64      3.09
    0    1    6      1.74      6.56
   29    2    6     -1.08      0.49
   28    2    6     -1.14      0.18
   27    2    6     -0.50      2.24
   26    2    6     -3.51     -1.24
   25    2    6      1.01     -0.29
   24    2    6      1.01      0.91
   23    2    6     -0.08      0.14
   22    2    6     -1.99     -0.40
   21    2    6     -1.29      4.56
   20    2    6     -2.36     -1.62
   19    2    6      0.88      1.75
   18    2    6     -0.08     -0.89
   17    2    6     -0.12     -0.81
   16    2    6     -0.28     -2.15
   15    2    6      3.19      0.10
   14    2    6     -2.72      0.47
   13    2    6      1.29     -2.19
   12    2    6     -2.14      0.96
   11    2    6      0.21      0.70
   10    2    6     -3.71      1.26
    9    2    6      3.74     -2.32
    8    2    6     -2.77      1.63
    7    2    6     -1.22      0.83
    6    2    6     -1.88     -1.32
    5    2    6     -2.44     -3.00
    4    2    6     -8.23     -0.42
    3    2    6     -0.58    -12.75
    2    2    6      1.72     -2.48
    1    2    6      1.14    -13.52
    0    2    6     -0.59      0.47
   29    3    6     -2.58      1.02
   28    3    6     -0.98     -1.08
   27    3    6     -0.59      0.22
   26    3    6     -0.19     -0.70
   25    3    6      0.31      2.62
   24    3    6      0.90      0.89
   23    3    6      2.16     -2.76
   22    3    6      1.89      1.98
   21    3    6      4.04     -3.65
   20    3    6     -0.99     -0.73
   19    3    6      0.74     -3.35
   18    3    6     -1.89      0.76
   17    3    6     -0.04     -2.90
   16    3    6     -0.33      2.43
   15    3    6      0.30     -2.44
   14    3    6     -2.48      3.67
   13    3    6      6.01     -1.04
   12    3    6      1.89      0.93
   11    3    6      0.09      2.12
   10    3    6      2.03      1.71
    9    3    6      2.96     -0.83
    8    3    6      1.42      3.51
    7    3    6      1.18     -2.69
    6    3    6      2.50      2.89
    5    3    6      2.39     -2.01
    4    3    6     -2.06     10.88
    3    3    6     -2.51     -5.75
    2    3    6     -2.99      3.91
    1    3    6      0.52     -1.28
    0    3    6      2.43      8.17
   29    4    6     -0.35      2.35
   28    4    6      0.84     -1.13
   27    4    6      0.73      1.46
   26    4    6     -1.20     -1.32
   25    4    6     -0.10      0.70
   24    4    6     -1.30      0.59
   23    4    6     -1.49      2.50
   22    4    6     -0.58     -0.38
   21    4    6      1.92     -0.01
   20    4    6     -1.64      1.71
   19    4    6      3.75      0.42
   18    4    6     -3.63     -0.31
   17    4    6      0.65      1.90
   16    4    6     -0.57     -1.84
   15    4    6      0.61      1.13
   14    4    6     -4.86      2.44
   13    4    6      4.48     -0.11
   12    4    6     -2.98     -1.12
   11    4    6      2.27      2.32
   10    4    6     -2.32     -0.44
    9    4    6     -0.04     -3.75
    8    4    6     -2.11      0.65
    7    4    6     -0.47     -2.47
    6    4    6      1.32     -3.41
    5    4    6      1.42     -8.95
    4    4    6     -2.32      1.15
    3    4    6     -2.37     -5.49
    2    4    6      2.71     -0.04
    1    4    6      0.83    -10.16
    0    4    6     -0.63      0.66
   29    5    6     -1.92      1.96
   28    5    6     -0.46     -1.46
   27    5    6      0.66     -0.64
   26    5    6      2.49     -2.88
   25    5    6      3.36     -2.26
   24    5    6     -1.14      2.73
   23    5    6      0.78     -1.38
   22    5    6     -2.27      1.28
   21    5    6      1.58     -2.41
   20    5    6      0.25     -2.01
   19    5    6      1.64     -7.16
   18    5    6     -2.04      1.49
   17    5    6      3.34     -4.92
   16    5    6      1.04      0.65
   15    5    6     -1.01     -2.83
   14    5    6     -0.44      6.71
   13    5    6      1.28     -3.11
   12    5    6      0.90      0.60
   11    5    6      1.39      2.55
   10    5    6     -0.74      3.00
    9    5    6      1.62     -4.50
    8    5    6     -1.58      2.16
    7    5    6     -3.47     -0.28
    6    5    6      2.39      0.76
    5    5    6      1.13      0.11
    4    5    6      1.45      8.46
    3    5    6     -0.26     -4.67
    2    5    6      0.04     -0.39
    1    5    6     -4.58      4.42
    0    5    6      5.61      7.93
   29    6    6      1.09      0.31
   28    6    6     -0.27      0.00
   27    6    6      1.23      1.67
   26    6    6      1.21     -2.86
   25    6    6      2.15     -2.38
   24    6    6      2.32     -1.30
   23    6    6      0.89     -1.25
   22    6    6     -1.65      2.71
   21    6    6     -1.41      0.81
   20    6    6     -1.93      1.40
   19    6    6     -0.44     -0.83
   18    6    6     -2.00      0.12
   17    6    6      0.26     -1.61
   16    6    6      0.71     -2.52
   15    6    6      4.07      0.01
   14    6    6     -3.63      2.76
   13    6    6      2.40     -3.41
   12    6    6      1.08      0.55
   11    6    6     -1.71      2.87
   10    6    6      2.22     -1.50
    9    6    6      3.81     -5.72
    8    6    6     -2.02      0.81
    7    6    6      1.22     -3.55
    6    6    6     -0.83     -2.46
    5    6    6     -1.92     -3.78
    4    6    6     -2.02      5.33
    3    6    6      0.44     -2.03
    2    6    6      1.88     -1.65
    1    6    6      4.86     -4.94
    0    6    6     -5.29      0.74
   29    7    6      0.11      0.47
   28    7    6      0.74      0.05
   27    7    6      0.49     -0.75
   26    7    6     -0.80     -1.01
   25    7    6      0.08     -1.70
   24    7    6     -0.48     -0.05
   23    7    6      2.79     -4.19
   22    7    6     -1.17      1.41
   21    7    6      1.72     -4.07
   20    7    6      0.72      1.57
   19    7    6     -1.02     -1.70
   18    7    6     -1.82      2.63
   17    7    6      0.48     -1.93
   16    7    6      2.46     -0.24
   15    7    6     -1.42      0.69
   14    7    6     -0.18      5.69
   13    7    6      6.00     -2.98
   12    7    6     -2.42     -0.26
   11    7    6     -2.15     -1.37
   10    7    6      2.34      5.59
    9    7    6     -2.48     -4.74
    8    7    6     -0.92      2.44
    7    7    6      1.24     -3.25
    6    7    6     -4.80     -0.97
    5    7    6      0.91      1.42
    4    7    6     -1.90     10.32
    3    7    6      0.55      0.71
    2    7    6      5.21     -4.01
    1    7    6      1.51      5.55
    0    7    6      9.43     -1.05
   28    8    6      0.74     -1.33
   27    8    6      3.91     -1.12
   26    8    6      1.51      0.68
   25    8    6     -0.53     -2.74
   24    8    6     -0.11     -1.72
   23    8    6     -3.36     -0.78
   22    8    6     -1.26     -3.09
   21    8    6      0.87     -3.84
   20    8    6     -0.78     -1.39
   19    8    6      0.14     -3.00
   18    8    6      1.13      4.27
   17    8    6     -0.01     -1.88
   16    8    6      2.17      0.21
   15    8    6     -2.48     -1.60
   14    8    6     -0.16      3.04
   13    8    6      0.80     -1.17
   12    8    6     -2.53      0.16
   11    8    6      3.79      1.51
   10    8    6     -4.12     -1.00
    9    8    6      4.54     -9.10
    8    8    6      2.71      4.17
    7    8    6      1.72      0.28
    6    8    6      2.92     -3.33
    5    8    6     -0.52     -3.91
    4    8    6     -8.51      4.14
    3    8    6     -1.27     -2.01
    2    8    6     -2.12      4.26
    1    8    6      2.18     -4.59
    0    8    6     -6.00      0.37
   28    9    6      0.13     -0.45
   27    9    6      2.03      0.02
   26    9    6     -0.30      0.25
   25    9    6      1.32     -1.69
   24    9    6     -0.90      3.42
   23    9    6      0.09     -1.99
   22    9    6     -1.41      1.49
   21    9    6     -2.26     -4.94
   20    9    6     -1.01     -2.64
   19    9    6      0.21     -1.98
   18    9    6     -3.34      1.13
   17    9    6      4.86      1.75
   16    9    6      0.50      2.02
   15    9    6      0.59      2.39
   14    9    6     -0.17      5.14
   13    9    6      4.19     -2.08
   12    9    6      2.87     -0.22
   11    9    6     -1.90      5.45
   10    9    6      0.01      3.13
    9    9    6      2.32     -4.41
    8    9    6     -6.32      2.35
    7    9    6      5.84     -6.00
    6    9    6     -1.65     -0.70
    5    9    6      2.93      0.87
    4    9    6     -2.35      8.45
    3    9    6      4.53     -3.15
    2    9    6      0.75     -0.64
    1    9    6      3.09      2.84
    0    9    6      6.53     12.65
   28   10    6     -1.65     -1.94
   27   10    6     -0.05     -0.12
   26   10    6     -0.20     -0.43
   25   10    6      0.50     -1.56
   24   10    6     -0.18     -0.60
   23   10    6     -0.04      1.29
   22   10    6     -1.29     -1.07
   21   10    6      2.29     -1.97
   20   10    6      1.54     -1.13
   19   10    6     -2.18     -2.75
   18   10    6      1.40      1.48
   17   10    6      1.99     -0.58
   16   10    6      1.76      0.64
   15   10    6      0.28      0.11
   14   10    6     -4.01      1.11
   13   10    6      2.41     -5.97
   12   10    6     -4.37     -1.02
   11   10    6      3.44     -0.33
   10   10    6     -1.81      0.27
    9   10    6      1.09     -6.21
    8   10    6     -4.82      4.90
    7   10    6      2.61     -3.77
    6   10    6     -0.24     -0.68
    5   10    6      0.43     -7.16
    4   10    6     -5.73     -1.16
    3   10    6      0.11     -5.98
    2   10    6      0.03     -2.33
    1   10    6      1.43    -12.23
    0   10    6     -8.09     -0.22
   28   11    6      0.61      0.92
   27   11    6      0.71      0.18
   26   11    6     -1.13     -0.73
   25   11    6     -0.45     -1.32
   24   11    6      0.28      0.48
   23   11    6      1.54      1.08
   22   11    6     -2.19      0.56
   21   11    6      0.87     -2.04
   20   11    6     -4.23     -0.83
   19   11    6      0.68     -3.65
   18   11    6     -3.45      2.83
   17   11    6      1.56     -0.67
   16   11    6      0.71      1.00
   15   11    6     -1.27      4.27
   14   11    6     -0.17      3.96
   13   11    6      4.20     -0.12
   12   11    6     -2.90     -1.81
   11   11    6      2.80      2.86
   10   11    6      1.66      3.27
    9   11    6      4.77      0.29
    8   11    6      0.08      1.99
    7   11    6      3.84     -3.26
    6   11    6     -2.77      1.27
    5   11    6      1.87     -2.46
    4   11    6     -3.47     13.26
    3   11    6      4.15     -3.01
    2   11    6      0.46      2.31
    1   11    6      4.81      2.27
    0   11    6      3.63     17.70
   27   12    6     -1.61      1.37
   26   12    6     -0.71      1.93
   25   12    6     -0.43     -0.52
   24   12    6     -0.74      0.26
   23   12    6      0.55      1.28
   22   12    6      0.31      0.17
   21   12    6      1.89      2.26
   20   12    6     -0.04     -2.82
   19   12    6     -0.19      1.67
   18   12    6     -2.94     -0.36
   17   12    6      3.81     -1.40
   16   12    6     -1.17      0.76
   15   12    6      2.53     -1.14
   14   12    6      0.25      1.19
   13   12    6      0.68     -4.31
   12   12    6     -1.34     -2.75
   11   12    6      0.19     -0.95
   10   12    6     -4.36     -1.55
    9   12    6      1.11     -7.77
    8   12    6     -5.43      2.38
    7   12    6      2.12     -1.87
    6   12    6      1.62     -3.41
    5   12    6      0.62     -9.14
    4   12    6     -9.64     -2.17
    3   12    6      0.75     -8.64
    2   12    6      1.74     -0.97
    1   12    6     -0.86     -7.84
    0   12    6     -6.37      1.31
   27   13    6      2.45     -0.11
   26   13    6     -1.04     -0.47
   25   13    6     -0.01     -0.01
   24   13    6      1.90     -0.34
   23   13    6      2.75      2.12
   22   13    6     -0.82      0.82
   21   13    6      0.93      0.52
   20   13    6     -1.12      2.47
   19   13    6     -0.96     -1.49
   18   13    6      0.13      1.43
   17   13    6      0.36     -0.84
   16   13    6     -1.84     -0.83
   15   13    6     -1.93      0.13
   14   13    6     -3.05      3.11
   13   13    6      5.09     -3.53
   12   13    6     -2.19      0.68
   11   13    6     -0.49      0.54
   10   13    6      1.68      3.62
    9   13    6      1.37     -0.97
    8   13    6      0.01      3.52
    7   13    6      1.40     -3.74
    6   13    6      2.68     -2.34
    5   13    6     -2.38      3.09
    4   13    6     -0.11      7.31
    3   13    6      1.29     -3.16
    2   13    6     -3.05     -3.53
    0   13    6      1.76     13.94
    1   13    6      3.34     -1.38
   27   14    6     -1.34      0.52
   26   14    6     -1.76      0.97
   25   14    6      0.13      0.93
   24   14    6     -2.18      1.50
   23   14    6      0.36      0.85
   22   14    6     -0.95     -0.36
   21   14    6      0.95      1.21
   20   14    6     -3.82     -0.69
   19   14    6     -1.13      0.79
   18   14    6     -1.23      1.00
   17   14    6      0.89     -0.20
   16   14    6      0.77     -0.60
   15   14    6      0.11      1.65
   14   14    6     -0.60      0.78
   13   14    6      0.83     -1.45
   12   14    6     -0.76     -3.32
   11   14    6      2.64     -1.62
   10   14    6      1.01     -2.75
    9   14    6     -0.94     -3.31
    8   14    6     -3.35      1.10
    7   14    6      1.07     -0.54
    6   14    6     -0.03     -2.09
    5   14    6      2.00     -4.25
    4   14    6     -6.06      0.69
    3   14    6     -3.23      3.70
    2   14    6      4.52      3.48
    1   14    6     -3.57     -3.84
   26   15    6      1.50     -1.17
   25   15    6      0.55     -0.27
   24   15    6     -0.20      0.12
   23   15    6      1.76      2.66
   22   15    6      1.15      0.13
   21   15    6      0.19      2.80
   20   15    6     -0.07      0.36
   19   15    6     -0.13     -0.33
   18   15    6     -0.42      3.28
   17   15    6      3.69     -2.02
   16   15    6      1.82      0.68
   15   15    6     -3.10     -2.03
   14   15    6     -0.85      4.23
   13   15    6     -0.90     -1.92
   12   15    6     -3.21      2.75
   11   15    6     -2.99     -0.38
   10   15    6      0.14      0.38
    9   15    6      3.32     -4.68
    8   15    6      3.54      1.95
    7   15    6     -2.25     -4.20
    6   15    6      1.43     -5.05
    5   15    6     -1.47     -2.06
    4   15    6     -2.95      0.91
    3   15    6      0.88      0.41
    2   15    6      0.44     -7.28
   26   16    6     -0.21      0.88
   25   16    6     -1.49     -0.17
   24   16    6     -0.81     -0.93
   23   16    6      1.21      0.22
   22   16    6     -1.79      1.39
   21   16    6      0.38      0.00
   20   16    6     -1.18     -1.98
   19   16    6     -2.23      1.61
   18   16    6     -2.21     -0.90
   17   16    6      0.28      1.15
   16   16    6     -0.72     -0.62
   15   16    6      3.40      0.30
   14   16    6      1.28     -0.55
   13   16    6     -0.65     -1.91
   12   16    6     -0.62      0.01
   11   16    6     -1.51      1.25
   10   16    6      0.93     -0.62
    9   16    6     -0.28     -0.79
    8   16    6     -1.01      0.55
    7   16    6      2.40      1.87
    6   16    6      4.91      0.48
    5   16    6     -0.76     -2.50
    4   16    6     -5.87      2.30
    3   16    6      1.93      1.39
    2   16    6      4.62      1.70
    1   16    6      0.96      1.99
    0   16    6     -5.07      2.81
   25   17    6     -0.63     -0.43
   24   17    6     -0.78     -0.21
   23   17    6     -1.32      0.23
   22   17    6     -0.61     -1.04
   21   17    6      2.10      1.88
   20   17    6      0.57      4.08
   19   17    6      0.24     -0.67
   18   17    6      0.21      2.58
   17   17    6      0.73      1.53
   16   17    6     -0.75      2.06
   15   17    6     -2.04      1.69
   14   17    6      1.36      1.69
   13   17    6      2.15     -2.60
   12   17    6      0.49      0.10
   11   17    6     -3.91      0.06
   10   17    6      1.37     -0.40
    9   17    6      0.84     -3.00
    8   17    6      0.84      0.96
    7   17    6     -0.03     -3.65
    6   17    6     -0.31     -1.98
    5   17    6     -2.08      0.54
    4   17    6     -0.28      5.56
    3   17    6     -3.71     -2.09
    2   17    6     -2.32     -4.13
    1   17    6      1.74      1.39
    0   17    6      1.84      7.14
   25   18    6     -1.03     -0.33
   24   18    6      0.39     -0.70
   23   18    6     -0.13     -0.54
   22   18    6     -0.42     -2.72
   21   18    6     -2.22     -0.25
   20   18    6     -1.59     -4.68
   19   18    6      1.98      3.24
   18   18    6     -0.62     -1.36
   17   18    6     -0.10      0.42
   16   18    6     -3.24     -1.21
   15   18    6      0.44      1.97
   14   18    6      0.28      3.05
   13   18    6      0.98     -0.52
   12   18    6     -0.96      0.10
   11   18    6      1.75     -3.04
   10   18    6      1.45      2.24
    9   18    6     -1.72      1.01
    8   18    6     -0.24      0.93
    7   18    6      1.18     -2.24
    6   18    6      1.38     -3.53
    5   18    6      3.55     -2.61
    4   18    6     -2.29      1.50
    3   18    6     -0.82      2.60
    2   18    6      6.15      4.02
    1   18    6     -2.97     -1.53
    0   18    6     -8.50      2.90
   24   19    6     -0.81      0.73
   23   19    6      0.46     -0.27
   22   19    6     -0.57      2.14
   21   19    6      0.18     -1.95
   20   19    6     -0.87      4.41
   19   19    6     -2.18     -2.01
   18   19    6     -0.57      3.03
   17   19    6      2.33      1.12
   16   19    6     -2.41     -1.60
   15   19    6     -3.64      0.12
   14   19    6      1.58     -1.05
   13   19    6      1.25      2.14
   12   19    6      2.79     -0.81
   11   19    6     -1.18     -0.04
   10   19    6      1.66     -3.86
    9   19    6      2.14     -2.13
    8   19    6      1.75      6.03
    7   19    6     -2.69      0.84
    6   19    6     -1.25      0.06
    5   19    6      1.52     -1.19
    4   19    6     -0.54      1.10
    3   19    6      2.62      1.93
    2   19    6      2.38     -1.40
    1   19    6      0.31      3.34
    0   19    6      1.51      9.52
   23   20    6     -0.39      1.40
   22   20    6     -0.34     -2.78
   21   20    6     -0.80     -0.25
   20   20    6     -2.65     -3.37
   19   20    6     -0.85      1.27
   18   20    6      0.70     -0.34
   17   20    6      0.18      0.64
   16   20    6     -2.46     -0.15
   15   20    6      1.65     -1.05
   14   20    6     -2.22      0.06
   13   20    6      0.47     -0.99
   12   20    6     -1.31      2.86
   11   20    6      3.49     -1.15
   10   20    6      0.90     -0.10
    9   20    6      0.47     -1.11
    8   20    6     -0.96     -0.59
    7   20    6     -0.58     -1.59
    6   20    6      1.57      1.28
    5   20    6     -1.95     -4.67
    4   20    6     -3.20     -0.47
    3   20    6      1.56     -2.04
    2   20    6      1.99     -2.61
    1   20    6      1.01      1.92
    0   20    6     -5.92      2.41
   23   21    6      0.19     -0.29
   22   21    6      0.21     -0.45
   21   21    6     -1.00     -0.07
   20   21    6     -1.29      3.37
   19   21    6     -2.19     -4.02
   18   21    6     -1.69      2.89
   17   21    6     -0.45     -2.76
   16   21    6      0.38      2.22
   15   21    6     -1.59     -2.85
   14   21    6      1.81     -0.98
   13   21    6      0.29     -0.77
   12   21    6     -1.88     -0.43
   11   21    6     -1.79      2.41
   10   21    6      1.04     -1.84
    9   21    6      2.40     -0.54
    8   21    6      0.87      0.48
    7   21    6      1.04      2.24
    6   21    6     -0.09      0.01
    5   21    6      0.73      2.22
    4   21    6      4.08      2.13
    3   21    6     -1.51     -0.93
    2   21    6     -0.45     -0.53
    1   21    6      2.32     -1.17
    0   21    6      0.17      2.60
   22   22    6     -1.49     -2.35
   21   22    6      0.06     -0.90
   20   22    6     -0.97     -1.40
   19   22    6     -0.74      1.76
   18   22    6      2.04     -1.71
   17   22    6     -0.10     -1.87
   16   22    6     -1.28     -2.37
   15   22    6      0.24     -2.28
   14   22    6      1.78     -1.11
   13   22    6      1.17     -4.28
   12   22    6     -1.92     -1.32
   11   22    6      2.05     -2.63
   10   22    6     -1.65      2.53
    9   22    6     -0.57      0.24
    8   22    6      0.51     -0.16
    7   22    6      0.65     -3.11
    6   22    6     -1.53     -1.45
    5   22    6      1.88     -1.66
    4   22    6     -1.68     -1.19
    3   22    6     -0.62      0.24
    2   22    6      2.98     -0.45
    1   22    6     -1.97     -4.15
    0   22    6     -7.28      1.88
   21   23    6      0.05     -1.60
   20   23    6     -1.50     -0.18
   19   23    6     -0.57     -1.71
   18   23    6      0.96      4.96
   17   23    6     -0.45     -2.82
   16   23    6      0.33      1.87
   15   23    6     -1.00     -3.96
   14   23    6      1.09      2.85
   13   23    6      0.16     -1.47
   12   23    6     -1.75      0.67
   11   23    6     -1.42     -0.84
   10   23    6     -1.73     -3.08
    9   23    6     -0.44      1.60
    8   23    6      1.52      2.53
    7   23    6     -2.80      1.28
    6   23    6      2.28      0.64
    5   23    6      0.18     -2.46
    4   23    6     -0.24      1.05
    3   23    6      0.70      2.78
    2   23    6     -2.52     -0.24
    1   23    6      0.52      1.34
    0   23    6     -0.26      1.72
   20   24    6     -1.75     -2.87
   19   24    6      0.91     -0.37
   18   24    6      1.97     -3.10
   17   24    6      1.28     -1.18
   16   24    6      0.44     -1.36
   15   24    6     -2.25     -1.64
   14   24    6      1.11     -4.07
   13   24    6     -0.46     -0.87
   12   24    6      0.64     -0.03
   11   24    6      0.92     -1.55
   10   24    6     -0.54      0.53
    9   24    6      1.70     -2.42
    8   24    6     -1.34     -0.98
    7   24    6      0.86      0.38
    6   24    6      0.63     -0.98
    5   24    6     -0.01     -2.34
    4   24    6      1.42      0.18
    3   24    6      0.46     -2.34
    2   24    6      1.70      1.91
    1   24    6     -0.14     -3.07
    0   24    6     -5.55      1.64
   20   25    6      0.83      0.59
   19   25    6      0.15     -1.47
   18   25    6     -0.11     -0.36
   17   25    6      1.09     -1.33
   16   25    6      0.68     -0.91
   15   25    6      0.54     -3.19
   14   25    6     -0.42      2.75
   13   25    6     -1.89     -2.70
   12   25    6     -2.46      1.92
   11   25    6     -2.00      1.05
   10   25    6      1.23      0.25
    9   25    6     -1.06     -0.09
    8   25    6      1.61      0.88
    7   25    6     -0.38     -0.83
    6   25    6     -0.05     -0.07
    5   25    6     -0.54     -1.69
    4   25    6      1.06     -0.33
    3   25    6     -1.21      1.00
    2   25    6      0.14      1.15
    1   25    6      2.07     -1.02
    0   25    6     -0.16      2.57
   19   26    6     -0.10     -0.74
   18   26    6      1.50     -0.34
   17   26    6      0.87     -1.49
   16   26    6     -0.22     -2.57
   15   26    6      0.47      2.70
   14   26    6      0.79     -4.09
   13   26    6      1.27      0.86
   12   26    6     -0.72     -0.14
   11   26    6     -1.66      2.07
   10   26    6     -1.03      2.30
    9   26    6      0.51     -0.26
    8   26    6      1.65      1.07
    7   26    6     -0.93     -0.77
    6   26    6      0.43      0.32
    5   26    6      2.43     -2.14
    4   26    6     -1.72     -0.99
    3   26    6      1.40      0.18
    2   26    6      2.10     -0.98
    1   26    6     -0.31     -4.61
    0   26    6     -0.44      0.25
   17   27    6     -0.54     -2.52
   16   27    6      0.78     -0.62
   15   27    6     -0.65     -0.98
   14   27    6      0.93      0.14
   13   27    6      1.15     -0.07
   12   27    6     -0.39     -0.22
   11   27    6      0.06     -0.01
   10   27    6     -1.33      0.78
    9   27    6      0.24      0.27
    8   27    6     -0.83      1.16
    7   27    6      0.77     -0.88
    6   27    6      2.57      0.58
    5   27    6     -0.27     -3.35
    4   27    6      1.82      2.45
    3   27    6      0.51     -1.06
    2   27    6     -0.14      0.32
    1   27    6      1.71     -1.39
    0   27    6     -0.36     -1.63
   16   28    6     -1.09      0.38
   15   28    6      0.53      0.63
   14   28    6     -0.92      0.10
   13   28    6      1.28      0.87
   12   28    6      0.43     -0.02
   11   28    6      0.13      3.27
   10   28    6     -0.02      0.28
    9   28    6      1.51     -0.22
    8   28    6     -1.12      0.99
    7   28    6     -1.12     -0.52
    6   28    6     -1.07     -0.64
    5   28    6      1.43     -1.45
    4   28    6     -1.11     -1.22
    3   28    6      1.47      0.32
    2   28    6      0.85      0.98
    1   28    6      0.23     -4.17
    0   28    6     -1.13     -0.10
   15   29    6      0.21      1.31
   14   29    6      0.46      1.05
   13   29    6      0.75      0.14
   12   29    6     -0.38      1.26
   11   29    6     -0.65     -0.69
   10   29    6     -0.55      1.43
    9   29    6      1.28     -0.56
    8   29    6     -0.88      1.67
    7   29    6      2.67     -2.31
    6   29    6      0.23      1.69
    5   29    6      0.10     -2.90
    4   29    6     -0.39      0.40
    3   29    6      0.45     -1.18
    2   29    6     -0.26     -0.84
    1   29    6      1.08     -2.12
    0   29    6      0.11      0.19
   13   30    6      0.75     -0.36
   12   30    6     -0.24      1.14
   11   30    6     -0.39      1.17
   10   30    6     -0.69     -0.33
    9   30    6      0.76     -0.34
    8   30    6     -1.29     -0.91
    7   30    6     -0.16     -0.62
    6   30    6      0.50     -0.17
    5   30    6      2.36     -2.65
    4   30    6     -0.89      0.73
    3   30    6      0.61      1.18
    2   30    6     -0.43     -0.39
    1   30    6     -0.01     -1.07
    0   30    6     -2.20      0.15
   12   31    6      1.51      1.87
   11   31    6     -1.58     -0.94
   10   31    6      0.75      2.70
    9   31    6     -0.24     -1.31
    8   31    6     -1.32      1.58
    7   31    6      0.56     -1.87
    6   31    6     -0.41     -0.27
    5   31    6      0.07     -1.91
    4   31    6     -0.49      0.50
    3   31    6      0.27     -1.95
    2   31    6      0.49     -0.53
    1   31    6      0.36     -1.45
    0   31    6      0.29     -0.69
    9   32    6     -0.21      0.23
    8   32    6     -0.63      0.60
    7   32    6     -1.05     -0.26
    6   32    6     -0.01     -0.45
    5   32    6      1.66     -0.98
    4   32    6     -0.56     -0.60
    3   32    6      1.19      1.25
    2   32    6      0.63      1.48
    1   32    6     -0.23     -0.48
    0   32    6      1.71     -0.18
    6   33    6      0.13      1.44
    5   33    6     -1.66     -1.14
    4   33    6     -0.07     -0.69
    3   33    6     -0.35     -0.42
    2   33    6     -0.36     -1.32
    1   33    6     -0.15     -0.17
    0   33    6      0.13      1.99
    0    0    7      2.12     -0.75
    1    0    7      0.12    -12.21
    2    0    7      1.33     -0.35
    3    0    7      0.71     -7.93
    4    0    7     -1.69     -0.17
    5    0    7      0.12     -5.30
    6    0    7      0.63     -0.22
    7    0    7     -0.43     -1.18
    8    0    7     -0.50     -0.21
    9    0    7      0.08     -4.73
   10    0    7     -1.60      0.15
   11    0    7     -0.26     -1.56
   12    0    7      0.75      0.06
   13    0    7     -0.44     -1.33
   14    0    7      2.58      0.10
   15    0    7     -0.46      0.08
   16    0    7      1.86      0.08
   17    0    7      0.92     -3.04
   18    0    7      1.77      0.04
   19    0    7      0.44      0.82
   20    0    7     -2.63      0.67
   21    0    7      0.05      1.22
   22    0    7     -2.32      0.29
   23    0    7     -0.12     -0.12
   24    0    7      0.57      0.40
   25    0    7     -1.00     -4.30
   26    0    7     -1.47      0.18
   27    0    7     -0.44     -3.07
   27    1    7     -0.58      0.06
   26    1    7      0.06     -2.10
   25    1    7      0.44     -0.17
   24    1    7      0.74     -0.17
   23    1    7     -1.77     -0.75
   22    1    7      0.37      0.05
   21    1    7      3.24     -0.64
   20    1    7     -0.29     -1.24
   19    1    7     -1.37      0.09
   18    1    7      0.68      0.10
   17    1    7      1.05     -0.74
   16    1    7      0.84      0.63
   15    1    7      2.20     -0.37
   14    1    7     -1.38     -0.92
   13    1    7      1.43     -0.25
   12    1    7      1.55     -0.20
   11    1    7     -1.96     -0.82
   10    1    7     -1.18      1.09
    9    1    7      1.41     -0.81
    8    1    7      0.27      4.41
    7    1    7     -1.37     -0.72
    6    1    7      2.76      3.42
    5    1    7      1.34      1.40
    4    1    7     -0.37      9.02
    3    1    7     -0.97     -1.40
    2    1    7     -0.19     -0.15
    1    1    7     -2.04     -0.82
    0    1    7      1.46      8.46
   27    2    7      1.11     -1.14
   26    2    7     -2.10     -0.66
   25    2    7     -1.24     -2.29
   24    2    7      0.54      1.54
   23    2    7     -2.86     -0.34
   22    2    7      0.47     -0.45
   21    2    7      0.41     -2.07
   20    2    7     -2.31      1.11
   19    2    7      3.47      0.06
   18    2    7     -0.30      1.40
   17    2    7     -1.33     -0.76
   16    2    7      2.75      3.99
   15    2    7     -1.50      0.32
   14    2    7      0.26      3.75
   13    2    7      0.69     -0.93
   12    2    7      0.37      0.05
   11    2    7     -0.62     -2.20
   10    2    7     -0.67     -0.06
    9    2    7     -0.19     -5.21
    8    2    7     -5.09     -0.95
    7    2    7     -0.31     -3.43
    6    2    7     -0.60      0.48
    5    2    7     -0.62     -7.32
    4    2    7     -1.85      1.39
    3    2    7     -0.04     -2.03
    2    2    7     -1.32     -1.11
    1    2    7      0.16     -8.83
    0    2    7     -1.44      0.06
   27    3    7      0.75      0.06
   26    3    7      1.25     -0.57
   25    3    7      2.97     -0.14
   24    3    7     -1.56      1.53
   23    3    7     -3.16      2.29
   22    3    7      2.02      0.84
   21    3    7      0.38      0.63
   20    3    7      4.11     -1.65
   19    3    7      1.28     -1.85
   18    3    7     -0.53      0.92
   17    3    7      4.53     -1.06
   16    3    7      0.92      3.38
   15    3    7      1.87     -0.20
   14    3    7     -0.90      6.58
   13    3    7      2.28     -0.89
   12    3    7      0.24      3.11
   11    3    7      2.82     -1.28
   10    3    7      0.03      3.73
    9    3    7      4.84     -1.87
    8    3    7      0.03      3.85
    7    3    7     -0.24      0.55
    6    3    7      1.00     -1.23
    5    3    7      3.95     -1.04
    4    3    7      0.01      6.41
    3    3    7      1.05     -3.38
    2    3    7      0.62     -2.84
    1    3    7      0.42      2.83
    0    3    7      2.21      6.21
   27    4    7      0.60      0.14
   26    4    7      0.41     -1.80
   25    4    7      1.07     -2.62
   24    4    7      1.52      1.78
   23    4    7     -0.03     -2.02
   22    4    7     -1.45      1.40
   21    4    7     -3.22      0.51
   20    4    7      0.13      2.71
   19    4    7     -0.83      1.39
   18    4    7      0.91     -0.07
   17    4    7     -3.97      0.59
   16    4    7     -0.77     -1.01
   15    4    7     -0.33      0.97
   14    4    7     -2.25      1.96
   13    4    7     -0.24     -0.81
   12    4    7     -1.22      2.09
   11    4    7     -2.37     -0.99
   10    4    7     -2.43     -0.04
    9    4    7      1.95     -5.73
    8    4    7     -3.41     -0.22
    7    4    7      0.01     -2.89
    6    4    7     -4.38     -0.51
    5    4    7     -0.31     -5.77
    4    4    7     -7.13      1.05
    3    4    7      2.19      1.21
    2    4    7     -5.04     -1.09
    1    4    7     -0.29     -1.60
    0    4    7     -6.30     -0.15
   27    5    7     -0.19      0.96
   26    5    7     -0.43     -0.52
   25    5    7      0.29      0.91
   24    5    7      2.03      0.13
   23    5    7      0.31      0.90
   22    5    7      2.27     -0.14
   21    5    7      3.28      0.35
   20    5    7      2.70      0.88
   19    5    7      0.15      2.87
   18    5    7      0.09      4.62
   17    5    7      2.07      0.71
   16    5    7      2.11      3.00
   15    5    7      0.07     -1.33
   14    5    7     -2.16      4.45
   13    5    7      5.62     -1.51
   12    5    7      0.25      2.72
   11    5    7      1.77     -1.05
   10    5    7     -2.78      6.19
    9    5    7      5.50     -1.94
    8    5    7     -2.36      3.88
    7    5    7      3.29      0.10
    6    5    7      0.39     -0.61
    5    5    7      3.86      0.04
    4    5    7     -2.84      6.66
    3    5    7      3.22     -0.75
    2    5    7     -0.60     -4.62
    1    5    7      3.69      5.92
    0    5    7      3.60      5.89
   27    6    7      1.29      0.03
   26    6    7     -1.34     -0.51
   25    6    7     -1.65     -0.24
   24    6    7      0.28      1.98
   23    6    7     -4.99      0.95
   22    6    7      0.95     -0.46
   21    6    7     -1.42     -0.79
   20    6    7     -1.31     -0.37
   19    6    7      0.70      0.29
   18    6    7     -1.47      1.82
   17    6    7     -2.40      4.82
   16    6    7     -1.39      0.54
   15    6    7     -1.97      1.18
   14    6    7     -2.38     -0.28
   13    6    7      2.16     -1.45
   12    6    7     -1.97     -0.02
   11    6    7      1.45      1.17
   10    6    7     -3.15      0.39
    9    6    7     -0.16     -3.91
    8    6    7     -1.84      0.79
    7    6    7      1.23      0.90
    6    6    7     -2.22     -0.76
    5    6    7      1.64     -4.41
    4    6    7     -8.22      2.34
    3    6    7      2.34      0.39
    2    6    7     -7.60     -1.45
    1    6    7      0.70      1.27
    0    6    7    -10.97     -2.33
   26    7    7      1.32     -1.40
   25    7    7      2.39      0.21
   24    7    7     -0.29      1.22
   23    7    7     -0.93      3.98
   22    7    7      0.92      2.46
   21    7    7     -0.68      1.67
   20    7    7      1.20     -0.42
   19    7    7     -0.30     -1.04
   18    7    7     -3.27     -0.78
   17    7    7      3.73     -2.88
   16    7    7      0.92      2.50
   15    7    7     -0.86      0.58
   14    7    7     -2.87      5.10
   13    7    7      1.03     -1.03
   12    7    7      1.86      1.95
   11    7    7     -0.07      0.40
   10    7    7     -2.55      5.85
    9    7    7      3.95     -2.53
    8    7    7     -5.09      3.16
    7    7    7      2.60     -1.17
    6    7    7      0.77     -0.67
    5    7    7      5.99      3.44
    4    7    7     -1.80      7.25
    3    7    7      2.35     -1.32
    2    7    7      0.24     -2.58
    1    7    7      1.34      3.43
    0    7    7      3.73      9.04
   26    8    7     -0.04     -0.40
   25    8    7     -1.04     -1.80
   24    8    7      0.76      0.00
   23    8    7     -3.07      2.31
   22    8    7     -2.73     -0.18
   21    8    7     -2.26      2.62
   20    8    7     -1.14      2.06
   19    8    7     -1.38      1.01
   18    8    7     -2.87      1.60
   17    8    7      2.21      0.06
   16    8    7     -0.21     -0.87
   15    8    7      4.01     -3.37
   14    8    7     -0.29      0.07
   13    8    7      4.60     -0.42
   12    8    7     -2.11      0.34
   11    8    7      1.49      3.22
   10    8    7     -0.46      2.01
    9    8    7      0.38     -0.08
    8    8    7     -1.97      4.51
    7    8    7     -0.83      0.72
    6    8    7     -1.09      1.64
    5    8    7      0.17     -2.74
    4    8    7     -3.56      0.58
    3    8    7      3.47      1.90
    2    8    7     -2.24     -4.53
    1    8    7      1.14     -6.61
    0    8    7     -6.39     -2.29
   26    9    7     -1.18     -0.50
   25    9    7     -0.19      0.83
   24    9    7      1.31      0.87
   23    9    7      1.19      0.53
   22    9    7     -1.65      1.01
   21    9    7      1.21     -0.82
   20    9    7     -2.54      0.30
   19    9    7     -2.61     -2.67
   18    9    7     -2.08     -1.38
   17    9    7      1.59     -1.82
   16    9    7     -0.21     -0.07
   15    9    7     -1.24     -0.37
   14    9    7     -1.05      3.91
   13    9    7      2.44     -1.63
   12    9    7      0.88      2.03
   11    9    7     -2.36      0.79
   10    9    7      0.63      4.70
    9    9    7     -0.23     -0.80
    8    9    7      0.87      0.50
    7    9    7      0.06     -1.66
    6    9    7     -1.52      0.51
    5    9    7      1.29     -1.65
    4    9    7     -2.40      8.60
    3    9    7     -1.03      0.40
    2    9    7      0.35     -1.79
    1    9    7     -0.16      6.03
    0    9    7      3.11      6.69
   26   10    7     -1.42      0.82
   25   10    7     -0.25     -1.31
   24   10    7     -0.36     -0.74
   23   10    7     -3.14      2.48
   22   10    7     -0.77     -1.67
   21   10    7      1.38      0.72
   20   10    7     -2.66     -0.08
   19   10    7      0.07     -0.42
   18   10    7     -1.39      3.67
   17   10    7      2.42     -0.55
   16   10    7      1.33      1.46
   15   10    7      2.71      0.00
   14   10    7      1.00     -0.25
   13   10    7      1.93      1.09
   12   10    7     -0.19     -1.11
   11   10    7      2.95      1.96
   10   10    7     -1.93      1.65
    9   10    7      1.64     -1.63
    8   10    7      0.39      4.06
    7   10    7     -0.37      1.92
    6   10    7      2.83      0.31
    5   10    7     -2.12     -5.98
    4   10    7     -3.41     -0.32
    3   10    7     -2.10     -5.00
    2   10    7      5.31     -0.29
    1   10    7     -2.12     -3.84
    0   10    7     -1.04      0.01
   25   11    7      0.36     -0.03
   24   11    7     -0.26      1.92
   23   11    7      0.72     -1.28
   22   11    7     -0.30      0.23
   21   11    7     -0.75     -1.93
   20   11    7     -2.04     -0.54
   19   11    7     -0.53     -3.59
   18   11    7     -1.32     -4.14
   17   11    7      3.25     -2.57
   16   11    7      2.26      1.44
   15   11    7     -1.09     -0.16
   14   11    7     -0.92      3.99
   13   11    7      2.27      0.63
   12   11    7     -0.54      1.05
   11   11    7     -3.71      0.85
   10   11    7      0.78      2.83
    9   11    7     -0.69     -1.31
    8   11    7      0.23      0.24
    7   11    7     -1.65     -1.10
    6   11    7      0.63      0.85
    5   11    7     -0.26      2.97
    4   11    7     -3.26      4.77
    3   11    7     -0.98     -4.08
    2   11    7     -1.74     -1.04
    1   11    7     -0.98     -1.73
    0   11    7      2.48     11.01
   25   12    7      2.71     -1.28
   24   12    7      0.08      0.03
   23   12    7      0.53      0.38
   22   12    7     -0.95     -2.70
   21   12    7      3.48     -2.70
   20   12    7      0.33     -0.46
   19   12    7     -2.48     -0.20
   18   12    7     -1.07      1.41
   17   12    7      1.37      2.27
   16   12    7     -0.07     -0.01
   15   12    7      1.18      1.62
   14   12    7     -0.06      2.46
   13   12    7     -0.69      2.82
   12   12    7     -2.55     -1.38
   11   12    7      2.10      0.65
   10   12    7     -1.38     -1.11
    9   12    7      1.32     -4.12
    8   12    7     -1.50     -0.05
    7   12    7      1.47     -3.46
    6   12    7      1.22      0.55
    5   12    7     -1.31     -5.24
    4   12    7     -3.21     -0.49
    3   12    7     -2.26      2.79
    2   12    7      4.29     -0.86
    1   12    7     -0.88     -6.60
    0   12    7     -6.41      0.87
   25   13    7      0.93      0.60
   24   13    7      1.41      1.93
   23   13    7      0.98      0.58
   22   13    7      1.30      0.65
   21   13    7      0.27      0.44
   20   13    7     -1.86     -0.51
   19   13    7      1.31     -5.34
   18   13    7      1.56      0.37
   17   13    7      2.13     -1.59
   16   13    7      1.88      1.15
   15   13    7     -1.23      0.23
   14   13    7     -0.06      2.59
   13   13    7      2.27      0.14
   12   13    7     -3.09      1.39
   11   13    7     -1.99      1.40
   10   13    7     -3.55      1.91
    9   13    7      4.18     -0.49
    8   13    7     -2.23     -1.29
    7   13    7      1.85      0.01
    6   13    7     -2.93      0.25
    5   13    7      4.14     -1.02
    4   13    7     -1.76      5.87
    3   13    7      0.33      0.23
    2   13    7      5.00     -1.15
    1   13    7      0.03      3.23
    0   13    7      1.19      8.40
   24   14    7     -0.37     -1.94
   23   14    7      2.94     -1.82
   22   14    7      0.63     -0.58
   21   14    7      4.14     -1.17
   20   14    7     -0.07     -3.78
   19   14    7     -0.50      0.94
   18   14    7     -2.72     -2.72
   17   14    7      2.13     -1.20
   16   14    7     -0.34      1.88
   15   14    7      0.55      0.01
   14   14    7     -1.51      2.55
   13   14    7     -1.00      0.68
   12   14    7     -2.07     -0.52
   11   14    7      0.47      0.99
   10   14    7     -1.75     -0.25
    9   14    7     -0.57     -3.28
    8   14    7     -2.78     -0.57
    7   14    7      2.20      0.30
    6   14    7     -0.16     -2.30
    5   14    7      2.82     -3.12
    4   14    7    -10.90     -0.10
    3   14    7      5.51      1.40
    2   14    7      0.55      3.53
    1   14    7      1.93     -0.38
    0   14    7     -5.79     -0.33
   24   15    7      0.61     -0.01
   23   15    7      0.29     -0.95
   22   15    7      1.19     -0.73
   21   15    7      1.95      0.18
   20   15    7      1.71      4.49
   19   15    7      1.11     -0.49
   18   15    7      0.82     -0.58
   17   15    7      2.14      1.68
   16   15    7     -1.62     -0.28
   15   15    7     -0.33     -0.42
   14   15    7     -1.15      1.96
   13   15    7      1.84     -2.80
   12   15    7     -4.88     -1.13
   11   15    7     -1.04      0.00
   10   15    7     -2.51     -0.07
    9   15    7      5.22     -1.47
    8   15    7     -3.14      0.70
    7   15    7      3.12     -1.37
    6   15    7     -0.36      2.27
    5   15    7      3.90      1.46
    4   15    7      2.02      1.50
    3   15    7      1.61     -0.51
    2   15    7      1.63     -4.18
    1   15    7      4.67      0.35
    0   15    7      0.71      6.14
   23   16    7      0.80     -1.83
   21   16    7      3.19     -2.69
   20   16    7     -0.95     -2.69
   19   16    7      2.43     -1.03
   18   16    7      0.86      0.57
   17   16    7      1.80     -0.94
   16   16    7     -0.10     -0.56
   15   16    7      1.65      1.08
   14   16    7      1.07      2.70
   13   16    7      1.64      0.65
   12   16    7     -1.57     -0.66
   11   16    7      2.38      0.05
   10   16    7     -1.54     -0.75
    9   16    7     -0.51      1.23
    8   16    7     -0.74     -2.31
    7   16    7      1.24      1.11
    6   16    7      0.27      0.15
    5   16    7      2.29     -1.08
    4   16    7     -4.77      3.77
    3   16    7      1.74      4.16
    2   16    7      2.38      3.59
    1   16    7     -0.77     -0.37
    0   16    7    -11.29      0.39
   22   16    7     -1.13     -2.24
   23   17    7      0.10     -0.59
   22   17    7      0.44     -1.06
   21   17    7      0.96      0.09
   20   17    7     -0.94      0.46
   19   17    7      1.95     -0.12
   18   17    7     -0.48      1.33
   17   17    7      3.04     -0.31
   16   17    7     -3.04     -0.61
   15   17    7     -1.83     -1.34
   14   17    7     -1.36     -0.98
   13   17    7      0.88     -0.40
   12   17    7     -0.97     -1.86
   11   17    7     -0.84     -0.39
   10   17    7     -0.12     -0.60
    9   17    7      3.87     -3.59
    8   17    7      0.46      1.53
    7   17    7      0.45      0.13
    6   17    7      1.41     -0.88
    5   17    7      2.76     -1.74
    4   17    7      1.43      0.95
    3   17    7      2.79     -1.23
    2   17    7      5.50     -4.19
    1   17    7      2.47      0.32
    0   17    7      0.94      3.90
   22   18    7      1.46      1.66
   21   18    7      0.23     -2.35
   20   18    7     -0.13     -0.59
   19   18    7     -0.02      0.08
   18   18    7      0.78     -0.06
   17   18    7      3.23      0.23
   16   18    7     -0.90      0.41
   15   18    7      2.91     -1.42
   14   18    7     -0.40      0.65
   13   18    7      0.51     -0.02
   12   18    7     -1.09     -2.03
   11   18    7      2.47      3.26
   10   18    7      0.25     -1.39
    9   18    7      0.25      0.99
    8   18    7     -0.06      0.27
    7   18    7      0.74     -0.46
    6   18    7      2.85      0.64
    5   18    7     -1.41     -0.62
    4   18    7     -2.57      1.19
    3   18    7     -1.50      1.30
    2   18    7      2.83      1.11
    1   18    7     -1.10     -0.51
    0   18    7     -3.25      0.70
   21   19    7      1.90      1.38
   20   19    7      0.12      3.01
   19   19    7     -0.34     -0.86
   18   19    7     -0.41      1.38
   17   19    7      0.30     -0.74
   16   19    7     -0.95      0.00
   15   19    7      1.64     -1.69
   14   19    7      1.18     -0.09
   13   19    7      2.19     -2.77
   12   19    7     -0.35     -0.20
   11   19    7     -0.53      1.12
   10   19    7      2.54     -1.42
    9   19    7      2.10     -0.72
    8   19    7      2.45      0.42
    7   19    7      0.59     -0.43
    6   19    7      1.02      1.05
    5   19    7      1.12     -2.49
    4   19    7      2.11      2.04
    3   19    7      0.45     -0.98
    2   19    7     -0.85     -1.40
    1   19    7      0.86     -0.44
    0   19    7      0.81      3.58
   21   20    7     -0.59     -0.56
   20   20    7     -0.51     -0.38
   19   20    7      0.20      1.26
   18   20    7      1.62      0.70
   17   20    7     -0.79     -1.37
   16   20    7     -2.82     -1.51
   15   20    7      0.55     -1.63
   14   20    7      0.39     -0.13
   13   20    7      1.41     -1.86
   12   20    7     -2.78     -2.20
   11   20    7      2.00     -0.93
   10   20    7     -3.00      2.99
    9   20    7     -0.48      1.57
    8   20    7      0.56     -0.47
    7   20    7      1.20     -1.02
    6   20    7     -0.38     -0.92
    5   20    7      1.44     -1.70
    4   20    7     -1.38     -0.32
    3   20    7     -0.55      0.11
    2   20    7      3.05      0.39
    1   20    7     -0.18     -1.46
    0   20    7     -4.90      0.46
   20   21    7     -1.14      0.42
   19   21    7     -0.39      0.55
   18   21    7      1.52      1.64
   17   21    7     -0.32      0.24
   16   21    7      0.57     -0.16
   15   21    7     -0.55     -1.81
   14   21    7      2.43      3.13
   13   21    7      1.06     -0.44
   12   21    7      2.24      1.63
   11   21    7      0.13      0.23
   10   21    7     -1.45     -1.09
    9   21    7      0.72     -1.91
    8   21    7      0.47      2.54
    7   21    7     -0.32      0.45
    6   21    7      0.12      0.37
    5   21    7      0.57     -3.49
    4   21    7     -1.84      2.19
    3   21    7     -0.13      1.19
    2   21    7     -1.95     -0.54
    1   21    7     -0.36      0.62
    0   21    7      0.21      3.99
   19   22    7      0.30     -0.56
   18   22    7      0.81     -0.93
   17   22    7      0.24     -1.59
   16   22    7     -0.78     -1.40
   15   22    7      0.34     -0.76
   14   22    7     -0.60     -1.58
   13   22    7      1.18     -1.92
   12   22    7     -0.25      1.26
   11   22    7      1.86     -0.91
   10   22    7     -1.92      3.01
    9   22    7      0.67     -0.30
    8   22    7     -3.43     -1.10
    7   22    7      1.14     -0.34
    6   22    7     -0.53     -1.36
    5   22    7      1.71     -0.82
    4   22    7     -0.90      0.96
    3   22    7      0.85     -0.80
    2   22    7      0.07      2.78
    1   22    7      0.81      0.37
    0   22    7     -3.75      0.57
   18   23    7      0.04     -1.20
   17   23    7     -1.57     -0.85
   16   23    7      0.27     -0.01
   15   23    7     -1.90     -0.27
   14   23    7      0.16      3.12
   13   23    7     -1.01      2.30
   12   23    7     -1.94      1.92
   11   23    7     -0.97      0.71
   10   23    7      0.36      1.67
    9   23    7     -2.00     -1.41
    8   23    7      0.01      1.37
    7   23    7     -0.11     -0.42
    6   23    7     -3.38     -0.46
    5   23    7      0.59     -3.30
    4   23    7     -0.01     -0.93
    3   23    7     -0.63      0.15
    2   23    7     -1.72     -0.91
    1   23    7      0.22     -0.99
    0   23    7      0.57      3.50
   17   24    7      1.92     -1.14
   16   24    7     -0.54     -0.49
   15   24    7      0.22     -0.29
   14   24    7      0.29      0.46
   13   24    7      0.41     -0.81
   12   24    7     -1.20     -0.23
   11   24    7      1.70      1.13
   10   24    7     -3.55      1.65
    9   24    7      1.52     -0.09
    8   24    7      0.26     -1.91
    7   24    7     -1.72      1.18
    6   24    7     -1.09     -1.45
    5   24    7      0.86      1.07
    4   24    7     -2.18      1.22
    3   24    7      0.20      0.83
    2   24    7      1.51      0.64
    1   24    7     -0.18     -2.94
    0   24    7     -1.21      0.59
   16   25    7      0.05     -0.76
   15   25    7     -0.53      0.86
   14   25    7     -0.67      2.40
   13   25    7     -0.96      1.72
   12   25    7     -0.73      1.76
   11   25    7     -2.37     -0.26
   10   25    7     -0.86      0.98
    9   25    7     -1.18     -0.32
    8   25    7     -0.72      0.59
    7   25    7      0.00     -0.39
    6   25    7      0.49     -1.41
    5   25    7     -0.98     -2.64
    4   25    7     -0.76      0.77
    3   25    7      0.25      1.34
    2   25    7     -3.41     -0.25
    1   25    7      0.30      0.11
    0   25    7      0.13     -0.10
   15   26    7     -0.40      0.41
   14   26    7     -1.36     -0.25
   13   26    7      1.10      0.34
   12   26    7     -1.01     -0.42
   11   26    7      0.14      1.30
   10   26    7     -1.14      0.12
    9   26    7     -0.03     -0.54
    8   26    7     -1.03     -1.27
    7   26    7     -0.38      0.73
    6   26    7     -1.27     -2.27
    5   26    7      0.42     -0.26
    4   26    7      0.76     -0.76
    3   26    7      0.11      0.21
    2   26    7      1.77      1.12
    1   26    7     -0.67     -2.74
    0   26    7     -1.92      0.43
   13   27    7     -0.46      0.45
   12   27    7     -0.29      0.73
   11   27    7     -0.61     -1.75
   10   27    7      0.88      0.65
    9   27    7     -1.97     -0.87
    8   27    7      0.11     -0.05
    7   27    7     -0.79     -0.80
    6   27    7     -1.09      0.24
    5   27    7     -1.12     -1.63
    4   27    7     -2.18      0.38
    3   27    7      0.32      1.09
    2   27    7     -2.01      1.10
    1   27    7     -0.79     -0.36
    0   27    7     -0.17      2.30
   14   27    7      0.16      3.92
   12   28    7     -1.52      1.51
   11   28    7      0.46      0.49
   10   28    7     -0.66      1.07
    9   28    7      1.08     -1.63
    8   28    7      0.72     -0.26
    7   28    7     -0.41     -1.05
    6   28    7      0.06     -0.43
    5   28    7      0.26     -2.44
    4   28    7     -0.53      0.55
    3   28    7      1.02      0.26
    2   28    7      0.59     -0.77
    1   28    7     -0.08     -0.56
    0   28    7     -1.56      0.26
   10   29    7      0.00      1.77
    9   29    7     -0.79     -1.47
    8   29    7     -1.15      1.17
    7   29    7     -0.18     -1.22
    6   29    7     -0.01     -0.54
    5   29    7     -1.79     -1.06
    4   29    7     -0.95      1.12
    3   29    7     -0.71     -0.58
    2   29    7     -0.99      1.26
    1   29    7     -0.13     -1.53
    0   29    7      0.00      0.41
    7   30    7      0.24     -1.70
    6   30    7     -1.08      1.15
    5   30    7     -0.36     -1.16
    4   30    7     -0.67      0.35
    3   30    7      0.41      1.68
    2   30    7      0.54      0.72
    1   30    7     -1.42     -0.52
    0   30    7     -0.17     -0.39
    4   31    7     -0.21      0.38
    3   31    7     -0.38      0.71
    2   31    7     -0.23     -0.30
    1   31    7     -0.21     -0.37
    0   31    7      0.29     -0.53
    0    0    8     -1.20     -0.02
    1    0    8      0.48     -0.20
    2    0    8     -0.67     -0.03
    3    0    8      0.35      6.29
    4    0    8      1.38      0.17
    5    0    8      0.13      0.34
    6    0    8     -1.02      0.06
    7    0    8      0.42      0.68
    8    0    8     -3.16      0.27
    9    0    8     -0.23     -2.90
   10    0    8     -3.48      0.54
   11    0    8     -0.18      1.87
   12    0    8     -1.61     -0.75
   13    0    8      0.03     -1.05
   14    0    8     -1.55     -0.01
   15    0    8      0.45      0.49
   16    0    8     -1.36      0.28
   17    0    8      0.03      1.47
   18    0    8      0.95     -0.24
   19    0    8     -0.06      2.33
   20    0    8      0.21     -0.22
   21    0    8     -0.10      1.01
   22    0    8     -1.19     -0.17
   23    0    8      0.12      2.87
   24    0    8      1.10      0.05
   24    1    8     -0.19      0.24
   23    1    8     -3.28      2.74
   22    1    8      0.81     -0.11
   21    1    8     -0.09      0.32
   20    1    8     -0.82     -0.16
   19    1    8     -2.65     -2.57
   18    1    8      1.82     -1.15
   17    1    8      1.73     -0.80
   16    1    8      1.08     -1.51
   15    1    8     -0.25      1.07
   14    1    8      1.18     -2.85
   13    1    8      1.60     -0.40
   12    1    8     -0.37     -2.02
   11    1    8      0.03     -0.04
   10    1    8     -0.50     -1.71
    9    1    8      2.19      1.15
    8    1    8      0.29      0.37
    7    1    8      1.40      0.69
    6    1    8      0.21     -4.66
    5    1    8      3.02      0.24
    4    1    8     -1.02      2.53
    3    1    8      2.75     -0.42
    2    1    8      0.89     -4.75
    1    1    8      1.58     -0.30
    0    1    8     -0.19      3.37
   24    2    8      0.33      1.41
   23    2    8      0.52      2.87
   22    2    8     -1.04     -0.56
   21    2    8     -0.97      3.93
   20    2    8     -0.40     -0.16
   19    2    8      0.60      1.40
   18    2    8      0.62     -1.58
   17    2    8      0.43     -2.94
   16    2    8      0.15     -1.77
   15    2    8      1.73     -0.01
   14    2    8     -0.96      0.56
   13    2    8     -0.08     -0.53
   12    2    8     -0.94     -1.05
   11    2    8     -0.86     -0.38
   10    2    8     -4.14     -0.57
    9    2    8     -0.89     -3.72
    8    2    8     -0.64     -0.99
    7    2    8      1.46     -0.20
    6    2    8     -0.36      1.03
    5    2    8      1.30     -2.78
    4    2    8     -2.33     -0.32
    3    2    8      0.36      3.35
    2    2    8     -3.20     -0.37
    1    2    8     -1.33     -2.14
    0    2    8     -1.74     -0.05
   24    3    8      0.73      0.45
   23    3    8     -1.15      0.20
   22    3    8      0.87     -0.73
   21    3    8      2.24      0.03
   20    3    8     -1.32     -0.24
   19    3    8     -1.14      1.81
   18    3    8      0.80      1.06
   17    3    8      2.36      1.33
   16    3    8      2.10     -1.03
   15    3    8      1.91      0.03
   14    3    8      1.28     -0.62
   13    3    8      2.44      1.12
   12    3    8     -0.29      1.56
   11    3    8     -0.12      0.19
   10    3    8     -3.23      1.51
    9    3    8      1.30      0.69
    8    3    8     -1.98      2.35
    7    3    8     -1.18      1.29
    6    3    8      3.44     -1.11
    5    3    8      3.09     -0.10
    4    3    8     -0.28      4.78
    3    3    8      3.07     -0.85
    2    3    8      0.68     -2.63
    1    3    8      2.57      0.20
    0    3    8      0.97      8.49
   24    4    8      0.39      1.89
   23    4    8     -1.36      1.64
   22    4    8     -0.33     -1.58
   21    4    8      1.70     -0.90
   20    4    8     -0.58     -2.58
   19    4    8      5.26     -2.26
   18    4    8     -1.39     -0.10
   17    4    8      1.22      0.21
   16    4    8     -0.62     -0.05
   15    4    8      0.36      0.33
   14    4    8      0.21     -2.91
   13    4    8      1.02     -2.47
   12    4    8      0.41     -3.26
   11    4    8      0.55     -1.36
   10    4    8     -1.19      0.49
    9    4    8     -0.42     -6.35
    8    4    8     -2.35     -1.19
    7    4    8     -0.65     -2.50
    6    4    8     -2.69      2.37
    5    4    8     -1.56     -5.15
    4    4    8     -3.39      2.92
    3    4    8      0.41     -0.45
    2    4    8     -4.06     -0.73
    1    4    8     -2.06     -3.64
    0    4    8     -5.70     -0.15
   24    5    8     -0.50      0.38
   23    5    8     -0.21      3.08
   22    5    8      1.36      0.66
   21    5    8     -1.22      1.53
   20    5    8     -0.11     -1.89
   19    5    8      0.63      1.26
   18    5    8      0.57     -1.71
   17    5    8      4.75      2.42
   16    5    8     -1.80      3.11
   15    5    8      1.92      3.81
   14    5    8     -1.20      4.10
   13    5    8     -0.03      1.34
   12    5    8     -0.40      0.11
   11    5    8      0.02     -0.75
   10    5    8     -0.75      2.59
    9    5    8      1.70      0.21
    8    5    8     -0.61      3.89
    7    5    8     -1.20     -1.75
    6    5    8      0.49     -0.65
    5    5    8      1.96     -1.73
    4    5    8     -2.31      8.12
    3    5    8      2.67     -1.41
    2    5    8      1.67      1.07
    1    5    8      4.28      0.01
    0    5    8      0.48      9.85
   24    6    8     -0.18     -0.88
   23    6    8      1.71      1.00
   22    6    8     -1.00     -1.99
   21    6    8      2.96      1.89
   20    6    8     -0.05      1.04
   19    6    8      2.52     -1.93
   18    6    8     -0.94     -1.23
   17    6    8      0.68      0.02
   16    6    8     -1.84     -2.48
   15    6    8      0.33     -0.28
   14    6    8     -2.43     -0.81
   13    6    8      0.85     -0.57
   12    6    8     -1.00     -0.81
   11    6    8      0.61      0.32
   10    6    8     -0.92     -0.29
    9    6    8      0.12     -4.30
    8    6    8      0.90      1.18
    7    6    8     -0.49     -1.72
    6    6    8     -1.85      1.61
    5    6    8     -1.29     -5.15
    4    6    8     -5.38      1.15
    3    6    8      0.99      0.87
    2    6    8     -3.01      0.33
    1    6    8     -1.40     -3.60
    0    6    8     -5.12     -0.11
   23    7    8     -0.59      1.89
   22    7    8     -0.68     -0.99
   21    7    8      1.21      3.19
   20    7    8     -0.50      0.48
   19    7    8     -0.18      3.28
   18    7    8      1.33      1.76
   17    7    8      0.87      0.80
   16    7    8      0.50     -0.69
   15    7    8     -0.90      0.40
   14    7    8     -1.37     -0.54
   13    7    8     -1.90     -2.58
   12    7    8     -0.54      0.09
   11    7    8     -0.55     -1.66
   10    7    8     -0.56      3.68
    9    7    8      1.16      1.38
    8    7    8     -0.13      1.89
    7    7    8      0.15     -1.32
    6    7    8      1.10      0.03
    5    7    8      3.14     -2.96
    4    7    8     -3.56      5.45
    3    7    8      1.95     -0.42
    2    7    8     -1.12     -1.73
    1    7    8      4.00      2.16
    0    7    8     -0.29      7.83
   23    8    8     -1.00     -0.10
   22    8    8      0.70     -2.68
   21    8    8      1.75      0.28
   20    8    8     -1.29     -0.98
   19    8    8      1.51      0.00
   18    8    8     -2.27      1.79
   17    8    8     -0.89      2.08
   16    8    8     -3.78      2.63
   15    8    8      0.43      0.39
   14    8    8     -0.99     -2.66
   13    8    8      1.55     -0.19
   12    8    8     -2.37     -2.96
   11    8    8      1.97      1.07
   10    8    8     -1.80     -0.69
    9    8    8      0.38     -1.08
    8    8    8     -0.01      1.85
    7    8    8     -0.33      2.04
    6    8    8     -2.07     -0.32
    5    8    8      0.24     -4.11
    4    8    8     -3.80      0.57
    3    8    8      1.97      0.38
    2    8    8     -0.79     -1.04
    1    8    8     -0.16      0.94
    0    8    8     -5.58     -0.40
   23    9    8      0.62      2.98
   22    9    8     -1.23      0.59
   21    9    8      0.12      1.03
   20    9    8     -0.77      0.53
   19    9    8      0.67     -0.16
   18    9    8      0.97     -3.30
   17    9    8     -0.23     -2.17
   16    9    8      0.32     -0.79
   15    9    8     -2.68     -0.36
   14    9    8     -2.39      1.67
   13    9    8     -1.64     -0.98
   12    9    8     -0.17     -1.30
   11    9    8      1.43     -1.80
   10    9    8     -1.22      1.43
    9    9    8      2.91      0.60
    8    9    8      1.63     -1.40
    7    9    8      1.12      0.48
    6    9    8      1.01     -2.23
    5    9    8      2.04      1.61
    4    9    8     -3.12      0.64
    3    9    8      0.14     -0.24
    2    9    8      0.84     -5.55
    1    9    8      3.04      1.01
    0    9    8     -0.21      1.88
   23   10    8     -1.21      1.11
   22   10    8     -0.27     -0.87
   21   10    8      0.08      1.50
   20   10    8     -2.27      0.99
   19   10    8     -1.77     -0.19
   18   10    8     -2.38      1.03
   17   10    8      0.77      1.46
   16   10    8     -3.36     -1.29
   15   10    8      2.03     -1.70
   14   10    8     -1.48     -2.18
   13   10    8      1.09      1.71
   12   10    8     -4.08     -0.96
   11   10    8      2.06      2.91
   10   10    8     -3.94     -2.68
    9   10    8      1.93     -0.91
    8   10    8     -1.59      0.01
    7   10    8      1.52      1.58
    6   10    8     -1.69     -2.04
    5   10    8     -0.16     -2.00
    4   10    8     -4.94      1.30
    3   10    8     -1.28      2.04
    2   10    8      0.94     -0.44
    1   10    8     -0.30     -1.24
    0   10    8     -2.69     -0.35
   22   11    8     -0.76      0.15
   21   11    8      1.65      1.38
   20   11    8     -2.38     -0.16
   19   11    8      0.54     -2.04
   18   11    8     -1.05     -2.25
   17   11    8      0.85     -1.59
   16   11    8      0.93     -0.12
   15   11    8      1.10      0.67
   14   11    8     -1.66      1.41
   13   11    8      0.21     -0.36
   12   11    8     -0.66      0.36
   11   11    8      0.76      1.44
   10   11    8     -2.45      1.14
    9   11    8      3.01      0.35
    8   11    8     -0.35     -3.86
    7   11    8      1.81     -1.03
    6   11    8      1.33     -3.18
    5   11    8      2.64      1.78
    4   11    8      0.33     -0.76
    3   11    8     -2.72      4.13
    2   11    8      2.52     -4.12
    1   11    8      2.80      4.11
    0   11    8      0.31      1.97
   22   12    8     -0.36     -0.44
   21   12    8      0.56      2.52
   20   12    8     -2.75     -0.36
   19   12    8     -1.92      1.47
   18   12    8     -3.38     -0.70
   17   12    8     -1.77     -0.57
   16   12    8     -2.10     -0.38
   15   12    8      1.88     -0.12
   14   12    8      0.35     -1.94
   13   12    8      1.26      0.75
   12   12    8     -2.91      0.34
   11   12    8      0.07      0.96
   10   12    8     -2.01     -0.86
    9   12    8      0.80     -1.13
    8   12    8     -1.04      1.43
    7   12    8      2.12      1.36
    6   12    8     -2.40     -2.39
    5   12    8      2.40     -5.89
    4   12    8     -4.92     -0.18
    3   12    8     -1.33     -1.76
    2   12    8      2.84     -0.69
    1   12    8     -1.81     -0.92
    0   12    8     -1.53     -0.51
   21   13    8      0.70     -0.29
   20   13    8     -1.50      1.16
   19   13    8      1.57      1.00
   18   13    8     -1.73     -2.08
   17   13    8      1.65      0.24
   16   13    8      0.65      1.85
   15   13    8      0.56      0.87
   14   13    8      0.73      2.74
   13   13    8      2.04      0.17
   12   13    8     -0.38     -0.19
   11   13    8     -0.09      0.12
   10   13    8     -2.08      0.91
    9   13    8      0.39     -2.05
    8   13    8     -0.53     -2.23
    7   13    8     -1.16      0.47
    6   13    8      0.65      3.01
    5   13    8      2.92      2.43
    4   13    8      1.21      2.47
    3   13    8      0.56     -1.42
    2   13    8      2.35     -0.86
    1   13    8      2.15      1.17
    0   13    8     -0.24      5.02
   21   14    8      0.96     -0.89
   20   14    8     -3.12     -2.06
   19   14    8     -1.66     -0.09
   18   14    8     -2.22     -1.06
   17   14    8     -0.68      0.90
   16   14    8     -0.77     -0.52
   15   14    8     -0.31      1.35
   14   14    8      2.61      1.74
   13   14    8     -0.76      1.88
   12   14    8      0.12      1.12
   11   14    8      1.01      0.42
   10   14    8     -1.70      1.43
    9   14    8      1.48     -4.18
    8   14    8      0.92      1.20
    7   14    8      1.02     -3.61
    6   14    8      0.75     -1.66
    5   14    8      0.77     -4.14
    4   14    8     -2.65      2.07
    3   14    8     -0.02     -1.62
    2   14    8      1.29     -1.43
    1   14    8      0.52     -3.05
    0   14    8     -7.54      0.37
   20   15    8     -0.68      0.59
   19   15    8     -0.12     -0.78
   18   15    8     -2.01      0.19
   17   15    8      0.36     -0.61
   16   15    8      0.19      0.44
   15   15    8      0.56      0.49
   14   15    8      0.74      1.83
   13   15    8      1.18     -0.03
   12   15    8      1.85      0.21
   11   15    8     -0.33      0.38
   10   15    8     -0.40      0.71
    9   15    8      2.46     -0.56
    8   15    8     -3.35     -0.05
    7   15    8      0.77     -0.23
    6   15    8      0.40      0.72
    5   15    8      4.08     -2.73
    4   15    8      2.52      3.29
    3   15    8      1.64     -4.04
    2   15    8      6.15      1.61
    1   15    8      1.28     -1.41
    0   15    8     -1.59      5.81
   20   16    8     -0.55     -2.66
   19   16    8      0.14      0.31
   18   16    8     -1.35     -1.54
   17   16    8      0.97     -0.74
   16   16    8     -1.72      0.65
   15   16    8     -0.20     -0.59
   14   16    8      0.31      1.48
   13   16    8     -0.93      1.73
   12   16    8     -0.83      2.06
   11   16    8      0.18      1.21
   10   16    8      1.20      1.12
    9   16    8      0.36     -4.07
    8   16    8      0.61      2.37
    7   16    8      1.08     -0.79
    6   16    8     -0.51     -1.02
    5   16    8      0.69     -1.99
    4   16    8     -3.95     -0.50
    3   16    8      0.33     -0.39
    2   16    8     -0.98     -1.54
    1   16    8      1.14     -3.65
    0   16    8     -5.82     -0.47
   19   17    8     -0.69      0.02
   18   17    8      0.87     -0.18
   17   17    8      0.01      0.21
   16   17    8      0.10      0.70
   15   17    8      1.31     -0.96
   14   17    8     -0.31     -0.08
   13   17    8      1.55     -1.85
   12   17    8     -2.26      0.12
   11   17    8      2.08      2.53
   10   17    8     -0.61      0.26
    9   17    8      3.76     -1.16
    8   17    8      0.38     -2.36
    7   17    8      1.53     -0.74
    6   17    8      1.43     -0.70
    5   17    8      4.06     -1.25
    4   17    8      2.15      0.70
    3   17    8      1.96     -1.37
    2   17    8      1.59     -0.47
    1   17    8      0.74      1.33
    0   17    8      0.14      2.41
   18   18    8      0.95     -0.54
   17   18    8      0.48     -0.89
   16   18    8     -1.60      0.21
   15   18    8      0.61     -0.88
   14   18    8      0.97      1.64
   13   18    8     -0.20     -1.90
   12   18    8     -1.42     -0.91
   11   18    8     -0.50      0.10
   10   18    8     -3.36      1.89
    9   18    8      0.10      0.21
    8   18    8     -0.99     -1.02
    7   18    8      0.79     -1.15
    6   18    8     -0.44     -2.04
    5   18    8      1.00     -0.17
    4   18    8     -1.96     -0.27
    3   18    8      0.35      0.60
    2   18    8     -0.11      0.32
    1   18    8      0.29      0.41
    0   18    8     -6.31     -0.29
   18   19    8      0.51      0.79
   17   19    8     -0.55      0.35
   16   19    8      0.03      0.16
   15   19    8      0.12      0.21
   14   19    8     -0.88      1.74
   13   19    8      1.27      0.37
   12   19    8      0.46     -0.10
   11   19    8      2.20      0.40
   10   19    8     -1.39      0.48
    9   19    8      1.76     -0.87
    8   19    8     -0.18     -0.66
    7   19    8      0.67      1.47
    6   19    8      1.31     -2.78
    5   19    8      1.34     -0.30
    4   19    8      0.25      0.49
    3   19    8      1.15      1.54
    2   19    8      0.52     -2.33
    1   19    8     -0.65      1.09
    0   19    8      0.48      1.33
   17   20    8     -0.02     -0.40
   16   20    8     -0.67     -1.36
   15   20    8      0.43     -1.16
   14   20    8      0.88     -0.61
   13   20    8     -0.21     -1.57
   12   20    8      0.38     -1.27
   11   20    8      1.00      0.41
   10   20    8     -1.72     -0.76
    9   20    8      0.19     -1.08
    8   20    8     -3.23     -0.75
    7   20    8     -0.48     -1.92
    6   20    8     -0.01     -1.25
    5   20    8      0.58     -0.14
    4   20    8     -1.12      1.65
    3   20    8      0.45      1.31
    2   20    8      1.25      2.29
    1   20    8      1.25      2.58
    0   20    8     -0.24     -0.25
   16   21    8     -0.87      1.16
   15   21    8     -0.17      1.38
   14   21    8     -1.25      0.24
   13   21    8     -1.08      1.68
   12   21    8     -0.06      0.53
   11   21    8     -0.08      0.99
   10   21    8      0.79      1.58
    9   21    8      0.23      0.29
    8   21    8      0.62     -0.27
    7   21    8      0.54      0.39
    6   21    8     -0.97     -1.00
    5   21    8     -0.46     -2.09
    4   21    8      1.01      0.98
    3   21    8     -0.85     -0.67
    2   21    8     -1.76     -0.24
    1   21    8     -1.13     -0.07
    0   21    8      0.66      1.55
   15   22    8      0.66     -0.50
   14   22    8      1.33      0.36
   13   22    8      0.44     -0.37
   12   22    8      0.00     -2.92
   11   22    8      0.74     -0.09
   10   22    8     -2.45      0.64
    9   22    8      0.65     -0.05
    8   22    8      0.13     -0.30
    7   22    8     -1.18     -0.35
    6   22    8     -0.17      0.28
    5   22    8      0.71     -0.77
    4   22    8     -1.34      1.62
    3   22    8     -0.21     -0.85
    2   22    8      1.12      2.32
    1   22    8     -0.37     -1.20
    0   22    8     -1.35      0.05
   14   23    8     -0.61      1.35
   13   23    8     -1.19      1.21
   12   23    8      0.38      0.63
   11   23    8     -1.98     -0.11
   10   23    8     -2.20      0.66
    9   23    8     -0.27     -1.72
    8   23    8     -0.20      0.50
    7   23    8      1.25      0.07
    6   23    8      0.90     -0.64
    5   23    8      0.30     -1.48
    4   23    8      1.35      1.11
    3   23    8      1.26     -0.64
    2   23    8      0.25     -0.12
    1   23    8     -0.51      0.26
    0   23    8      0.74      2.31
   12   24    8      1.37      0.41
   11   24    8     -0.68      0.23
   10   24    8     -0.48      1.47
    9   24    8     -0.35      0.42
    8   24    8     -1.21     -0.36
    7   24    8      0.31     -1.38
    6   24    8     -0.64      0.08
    5   24    8      0.33     -1.69
    4   24    8     -1.26      0.47
    3   24    8      0.31     -2.45
    2   24    8     -0.56      0.56
    1   24    8     -0.25     -2.02
    0   24    8     -0.93      0.16
   11   25    8     -0.06     -2.39
   10   25    8     -0.93      1.99
    9   25    8     -1.57     -0.54
    8   25    8      0.76     -0.32
    7   25    8      1.25      0.62
    6   25    8     -0.05     -0.73
    5   25    8      1.84     -1.49
    4   25    8      1.41      0.21
    3   25    8      1.93     -1.03
    2   25    8      0.60     -0.04
    1   25    8      0.43     -0.54
    0   25    8      0.01      0.98
    9   26    8      0.45     -1.30
    8   26    8      0.44      0.10
    7   26    8     -0.86      0.00
    6   26    8      0.10     -0.44
    5   26    8      1.38     -0.59
    4   26    8     -0.91      0.16
    3   26    8      2.36     -1.29
    2   26    8      0.01      0.43
    1   26    8      0.33     -0.99
    0   26    8      0.18      0.26
    6   27    8      0.09     -0.56
    5   27    8     -0.48     -1.12
    4   27    8      1.18      0.00
    3   27    8      1.35     -0.94
    2   27    8      0.48      0.43
    1   27    8      0.90     -1.02
    0   27    8     -0.27      0.69
    2   28    8      0.44      0.82
    1   28    8      0.08     -0.09
    0   28    8      0.72      0.11
    0    0    9     -3.65     -0.35
    1    0    9      0.31     -2.40
    2    0    9     -4.52     -0.62
    3    0    9     -0.18      0.71
    4    0    9     -4.71     -0.03
    5    0    9      0.04     -0.49
    6    0    9     -3.80     -0.75
    7    0    9     -0.22      2.39
    8    0    9     -1.62     -0.33
    9    0    9      0.09      0.56
   10    0    9     -1.23     -0.67
   11    0    9      0.14     -0.32
   12    0    9     -0.36     -1.95
   13    0    9     -0.15     -0.63
   14    0    9     -2.45     -0.67
   15    0    9     -0.08     -1.46
   16    0    9     -2.15      0.01
   17    0    9      0.08      0.30
   18    0    9     -1.47      0.09
   19    0    9      0.13      0.30
   20    0    9     -1.28     -0.18
   20    1    9     -0.11      0.61
   19    1    9      0.33      1.08
   18    1    9     -1.37     -1.88
   17    1    9      1.11     -0.10
   16    1    9      0.71     -1.24
   15    1    9     -0.01     -1.01
   14    1    9      0.90     -3.38
   13    1    9      1.74     -0.72
   12    1    9     -0.43      0.23
   11    1    9      0.37     -0.37
   10    1    9     -0.66      0.22
    9    1    9      1.18      0.52
    8    1    9     -0.82      2.46
    7    1    9      0.60     -0.77
    6    1    9      0.07     -3.27
    5    1    9      1.41     -0.23
    4    1    9      0.22     -0.11
    3    1    9      2.73     -2.18
    2    1    9      0.60     -3.49
    1    1    9      2.29     -3.60
    0    1    9      0.12      3.67
   20    2    9      0.29      0.77
   19    2    9      0.28     -1.39
   18    2    9     -0.99      1.43
   17    2    9     -1.79      0.04
   16    2    9     -3.29     -2.71
   15    2    9     -1.13     -0.59
   14    2    9      0.78     -1.70
   13    2    9     -0.35      1.05
   12    2    9      1.11     -0.72
   11    2    9      0.01     -0.64
   10    2    9     -0.88      4.94
    9    2    9      0.43     -1.36
    8    2    9     -1.40      1.47
    7    2    9     -0.97      0.50
    6    2    9     -3.23      1.44
    5    2    9     -0.07      0.57
    4    2    9     -3.70     -1.49
    3    2    9      0.31      5.33
    2    2    9     -2.04     -2.75
    1    2    9     -1.44     -5.37
    0    2    9     -3.12      0.12
   20    3    9     -1.36      0.19
   19    3    9     -1.27     -1.03
   18    3    9      0.80     -1.69
   17    3    9     -0.21     -0.81
   16    3    9     -1.76      1.95
   15    3    9     -0.83     -1.42
   14    3    9     -1.45     -0.31
   13    3    9      1.53      1.23
   12    3    9      0.28      0.11
   11    3    9     -0.86      1.91
   10    3    9      0.34      0.35
    9    3    9      0.52      0.94
    8    3    9     -0.35      1.89
    7    3    9     -0.44     -2.23
    6    3    9     -0.73     -3.03
    5    3    9     -1.36     -3.66
    4    3    9     -1.73      2.40
    3    3    9      1.57      0.89
    2    3    9      1.02     -1.30
    1    3    9      0.29     -0.23
    0    3    9     -0.23      4.79
   20    4    9      0.23      1.29
   19    4    9      0.97     -2.00
   18    4    9      0.45      1.52
   17    4    9      0.44     -1.29
   16    4    9      0.60     -2.26
   15    4    9     -0.87     -0.36
   14    4    9     -0.35      2.46
   13    4    9     -0.54      0.31
   12    4    9     -0.04     -1.15
   11    4    9      0.75      1.11
   10    4    9      0.04      1.90
    9    4    9     -0.27     -0.29
    8    4    9      2.26     -0.23
    7    4    9      0.24      0.64
    6    4    9      0.35      0.95
    5    4    9     -0.68     -1.56
    4    4    9     -2.52     -2.04
    3    4    9     -0.66      0.86
    2    4    9     -0.52     -1.79
    1    4    9     -1.00     -0.36
    0    4    9     -0.99      0.18
   20    5    9     -1.51     -0.31
   19    5    9     -2.57     -0.26
   18    5    9      0.69     -0.02
   17    5    9      0.52      1.17
   16    5    9      0.44      1.33
   15    5    9      0.92      2.28
   14    5    9     -0.64      1.17
   13    5    9      0.10      2.37
   12    5    9     -2.02      2.46
   11    5    9     -0.70     -0.74
   10    5    9     -1.43      0.55
    9    5    9     -0.01      1.82
    8    5    9     -0.12      0.67
    7    5    9     -1.39      1.26
    6    5    9      0.55     -1.10
    5    5    9      0.94      1.21
    4    5    9     -1.76      2.67
    3    5    9      1.22      2.16
    2    5    9     -0.17     -1.50
    1    5    9      0.82     -3.62
    0    5    9      0.06      5.43
   20    6    9     -0.77     -0.12
   19    6    9      1.87     -1.10
   18    6    9     -1.05      1.47
   17    6    9      0.80      0.15
   16    6    9     -0.62      0.79
   15    6    9      1.43      0.20
   14    6    9      1.12      1.47
   13    6    9     -0.80      1.64
   12    6    9     -0.08     -2.80
   11    6    9     -0.09      1.65
   10    6    9     -0.67     -1.67
    9    6    9     -0.05     -1.72
    8    6    9      0.66     -2.77
    7    6    9     -0.38      1.12
    6    6    9      1.22      0.09
    5    6    9     -1.12     -0.45
    4    6    9     -0.73      0.51
    3    6    9     -0.06      3.28
    2    6    9      0.73     -1.42
    1    6    9     -1.66     -0.20
    0    6    9     -1.71      0.15
   19    7    9     -0.64     -0.88
   18    7    9      2.00     -1.02
   17    7    9      0.34      2.87
   16    7    9     -0.51      1.16
   15    7    9      1.16      3.89
   14    7    9     -0.64      1.58
   13    7    9      0.60      1.57
   12    7    9     -1.15     -0.34
   11    7    9      0.78     -0.76
   10    7    9     -0.77      0.85
    9    7    9      1.29      1.04
    8    7    9     -0.35      0.10
    7    7    9     -0.84      0.46
    6    7    9     -1.18     -1.16
    5    7    9      1.72      0.27
    4    7    9     -1.97      3.04
    3    7    9      3.03      2.48
    2    7    9     -0.14     -1.55
    1    7    9      1.95     -1.05
    0    7    9     -0.01      2.20
   20    7    9     -1.49      0.29
   19    8    9      0.44     -0.81
   18    8    9     -0.93      0.06
   17    8    9      0.09      0.31
   16    8    9     -1.33     -0.63
   15    8    9      0.68      1.24
   14    8    9     -1.85      1.21
   13    8    9     -1.43      0.45
   12    8    9     -1.19     -0.46
   11    8    9     -0.51      1.42
   10    8    9     -0.46     -2.54
    9    8    9      1.08     -1.39
    8    8    9      0.34     -0.49
    7    8    9      1.07      1.58
    6    8    9     -0.56     -1.71
    5    8    9     -1.94      0.28
    4    8    9     -2.50      0.86
    3    8    9     -0.61      1.61
    2    8    9      0.15      0.28
    1    8    9     -0.03      1.62
    0    8    9     -2.69     -0.11
   19    9    9     -0.08     -0.18
   18    9    9      1.09     -0.49
   17    9    9     -0.61     -0.36
   16    9    9      0.50     -0.25
   15    9    9      0.08      1.21
   14    9    9     -0.62     -0.44
   13    9    9     -0.79     -0.09
   12    9    9     -3.84     -0.76
   11    9    9      0.23     -0.97
   10    9    9     -2.62      2.25
    9    9    9      2.19      1.11
    8    9    9     -0.29      0.48
    7    9    9      1.27     -1.27
    6    9    9     -0.92      0.21
    5    9    9      3.03     -0.53
    4    9    9     -1.04      2.08
    3    9    9      0.12      2.65
    2    9    9      0.03     -0.85
    1    9    9      2.43     -0.94
    0    9    9     -0.36      4.11
   19   10    9     -0.28     -0.10
   18   10    9     -1.19     -0.74
   17   10    9     -1.44      0.78
   16   10    9     -2.28     -0.50
   15   10    9      1.08      0.15
   14   10    9      0.56     -0.73
   13   10    9      0.16     -0.57
   12   10    9     -0.28      1.89
   11   10    9     -1.53      0.21
   10   10    9     -3.65     -0.59
    9   10    9     -0.11     -2.93
    8   10    9     -1.35      2.65
    7   10    9      1.99      1.54
    6   10    9     -1.54     -2.56
    5   10    9      0.99     -1.68
    4   10    9     -4.24     -0.74
    3   10    9      0.71      1.03
    2   10    9     -0.32     -3.08
    1   10    9     -0.92      2.13
    0   10    9     -2.98     -0.57
   18   11    9      0.45     -0.68
   17   11    9     -1.56     -1.59
   16   11    9     -1.44      0.19
   15   11    9     -1.15     -0.38
   14   11    9     -3.42      0.12
   13   11    9      0.19     -1.43
   12   11    9     -1.87     -0.40
   11   11    9      0.46      0.87
   10   11    9     -2.66      2.77
    9   11    9      0.06      0.80
    8   11    9     -2.70     -0.57
    7   11    9      0.19      0.26
    6   11    9      0.43      3.17
    5   11    9      2.81      2.69
    4   11    9      0.80      4.49
    3   11    9      0.14      2.38
    2   11    9     -0.09     -1.90
    1   11    9      1.45      0.94
    0   11    9     -0.12     -0.16
   18   12    9     -1.01     -1.02
   17   12    9     -0.69      0.04
   16   12    9      0.87     -1.03
   15   12    9     -0.44      0.68
   14   12    9      0.75     -1.76
   13   12    9      0.33      0.57
   12   12    9     -1.08      1.38
   11   12    9      0.66      0.85
   10   12    9     -3.03      0.72
    9   12    9      0.81     -2.45
    8   12    9     -2.23      2.00
    7   12    9      0.97     -0.73
    6   12    9     -1.51     -5.47
    5   12    9      0.88      0.71
    4   12    9     -1.51      1.73
    3   12    9      1.32      2.11
    2   12    9      0.65     -0.49
    1   12    9      0.07      1.84
    0   12    9     -3.65     -0.42
   17   13    9     -0.17     -1.15
   16   13    9     -1.24     -0.10
   15   13    9      0.24     -0.19
   14   13    9     -1.76      0.75
   13   13    9     -0.72     -0.08
   12   13    9     -1.16     -0.24
   11   13    9     -0.74      1.67
   10   13    9     -0.61      1.61
    9   13    9      0.80      2.17
    8   13    9     -2.62      0.21
    7   13    9     -0.50      0.54
    6   13    9     -0.68     -0.97
    5   13    9      0.92      1.23
    4   13    9      1.15      0.09
    3   13    9     -1.29      4.13
    2   13    9      2.61     -0.79
    1   13    9      0.66      2.60
    0   13    9     -0.08      0.88
   16   14    9      0.06     -0.65
   15   14    9     -0.02     -0.26
   14   14    9      1.42     -2.57
   13   14    9      0.61      1.70
   12   14    9     -0.55      1.25
   11   14    9     -1.31      2.28
   10   14    9     -1.37     -0.58
    9   14    9      0.69     -0.73
    8   14    9      0.71      3.66
    7   14    9      2.48      3.27
    6   14    9     -0.65     -1.47
    5   14    9     -0.38     -0.87
    4   14    9     -1.62     -1.05
    3   14    9     -0.61      0.03
    2   14    9      1.03     -2.83
    1   14    9     -0.46      2.15
    0   14    9      1.08      0.66
   17   14    9      0.02     -0.83
   16   15    9      0.50      1.39
   15   15    9      0.48      0.18
   14   15    9     -1.36     -0.44
   13   15    9      0.55     -0.86
   12   15    9     -0.62     -0.33
   11   15    9     -0.38      1.74
   10   15    9     -0.77      0.44
    9   15    9     -2.17     -1.52
    8   15    9     -1.28     -2.70
    7   15    9     -0.67      0.97
    6   15    9      0.42      1.02
    5   15    9      1.53      2.05
    4   15    9      0.91      1.49
    3   15    9     -1.68     -0.99
    2   15    9     -0.35     -1.39
    1   15    9     -1.74      2.04
    0   15    9     -0.28     -0.20
   15   16    9     -0.79      0.66
   14   16    9      2.02      0.97
   13   16    9      0.07      0.49
   12   16    9      0.99      0.25
   11   16    9     -0.04      1.57
   10   16    9     -1.02      1.55
    9   16    9     -0.44     -0.39
    8   16    9     -0.27      0.27
    7   16    9     -0.13     -0.86
    6   16    9     -1.22     -2.97
    5   16    9     -0.59      0.47
    4   16    9     -0.82      0.87
    3   16    9      0.16     -2.13
    2   16    9      0.18     -1.02
    1   16    9     -0.41     -1.35
    0   16    9     -0.70      0.42
   14   17    9     -1.06      0.92
   13   17    9     -1.10      0.14
   12   17    9      0.66     -0.32
   11   17    9      0.70     -0.23
   10   17    9     -0.07      0.90
    9   17    9     -1.12     -0.66
    8   17    9     -2.13      0.79
    7   17    9     -0.50     -0.70
    6   17    9     -0.82     -0.62
    5   17    9      0.87     -1.25
    4   17    9      0.25      1.41
    3   17    9      0.83     -0.25
    2   17    9     -0.62      1.21
    1   17    9     -1.68      0.41
    0   17    9     -0.23      3.02
   13   18    9     -0.89      0.68
   12   18    9      0.16      0.89
   11   18    9      0.66      0.09
   10   18    9     -0.11     -0.84
    9   18    9     -0.71     -2.44
    8   18    9     -1.42     -0.49
    7   18    9     -0.80     -0.17
    6   18    9     -2.80     -1.95
    5   18    9     -0.57     -1.75
    4   18    9     -1.16      0.03
    3   18    9      1.11     -1.51
    2   18    9     -1.12     -0.56
    1   18    9      1.70     -0.88
    0   18    9     -1.36     -0.35
   12   19    9      0.01      1.03
   11   19    9      0.68      1.12
   10   19    9     -0.73      1.79
    9   19    9      1.14     -1.21
    8   19    9     -0.83      0.04
    7   19    9      0.21     -0.58
    6   19    9     -1.42      0.03
    5   19    9      0.50     -0.73
    4   19    9      0.69      1.38
    3   19    9      1.55     -1.83
    2   19    9     -0.57      1.33
    1   19    9     -0.11      0.61
    0   19    9      0.02      1.21
   11   20    9     -0.99      0.01
   10   20    9     -1.46      0.36
    9   20    9     -0.44      0.01
    8   20    9     -0.92     -0.64
    7   20    9      0.60     -0.25
    6   20    9     -1.83     -0.21
    5   20    9     -0.63      0.86
    4   20    9     -0.50      0.61
    3   20    9      0.52      1.47
    2   20    9     -0.11      1.36
    1   20    9      0.98      1.79
    0   20    9     -0.46     -0.04
   10   21    9     -2.13      1.66
    9   21    9     -0.73     -0.92
    8   21    9      0.06      0.36
    7   21    9      0.70      0.38
    6   21    9      0.44     -0.91
    5   21    9     -0.10     -0.33
    4   21    9      1.03      1.19
    3   21    9      0.48     -0.73
    2   21    9      0.35     -0.14
    1   21    9     -0.84      0.31
    0   21    9      0.01      1.00
    8   22    9     -1.75      1.08
    7   22    9     -0.42      0.20
    6   22    9     -0.14      0.70
    5   22    9     -0.53      1.23
    4   22    9     -0.04      1.05
    3   22    9     -0.08      2.45
    2   22    9      0.76      0.99
    1   22    9      0.10      2.57
    0   22    9      2.08     -0.03
    5   23    9     -1.48      0.28
    4   23    9      1.07      1.15
    3   23    9     -0.90     -0.02
    2   23    9     -0.23      0.77
    1   23    9     -1.34      0.41
    0   23    9      0.14      1.17
    0    0   10     -1.39     -0.76
    1    0   10     -0.07     -6.55
    2    0   10     -1.12     -0.45
    3    0   10     -0.05      4.92
    4    0   10     -5.26     -0.46
    5    0   10      0.14      1.07
    6    0   10     -2.97      0.10
    7    0   10     -0.19     -0.27
    8    0   10      0.88     -0.81
    9    0   10      0.01     -1.42
   10    0   10      0.41     -0.64
   11    0   10      0.22     -2.91
   12    0   10     -1.10     -1.09
   13    0   10      0.03      1.92
   14    0   10     -0.93     -0.75
   15    0   10     -0.13      1.24
   15    1   10      0.09     -0.91
   14    1   10     -0.78     -1.56
   13    1   10      0.82      1.98
   12    1   10      1.59     -2.26
   11    1   10     -0.18      1.06
   10    1   10      1.26     -1.46
    9    1   10      0.39      0.53
    8    1   10      0.33      0.71
    7    1   10      1.03     -0.19
    6    1   10     -0.21      0.80
    5    1   10     -0.46     -1.80
    4    1   10     -1.08      2.78
    3    1   10      0.29      1.97
    2    1   10     -0.70      0.78
    1    1   10      1.41      2.07
    0    1   10      0.08      3.56
   15    2   10     -1.62     -0.41
   14    2   10     -1.67     -0.58
   13    2   10     -1.48      0.39
   12    2   10     -0.96     -2.75
   11    2   10      0.54     -0.59
   10    2   10      1.24     -0.58
    9    2   10     -0.94      0.04
    8    2   10      1.26     -0.32
    7    2   10     -1.12      1.47
    6    2   10     -2.16      1.35
    5    2   10      0.56     -0.16
    4    2   10     -3.59     -0.65
    3    2   10     -0.09      0.95
    2    2   10     -1.24     -0.60
    1    2   10     -0.88     -1.06
    0    2   10     -1.01     -0.55
   15    3   10      2.07      0.46
   14    3   10     -1.70      0.35
   13    3   10      1.02      1.13
   12    3   10      0.16      1.22
   11    3   10     -1.31     -0.79
   10    3   10      0.67     -0.34
    9    3   10     -0.23      0.75
    8    3   10      1.32     -0.82
    7    3   10     -0.75      0.75
    6    3   10     -0.38     -0.41
    5    3   10     -0.06      1.00
    4    3   10     -0.55      1.12
    3    3   10      1.71     -0.02
    2    3   10     -0.83     -0.54
    1    3   10      0.15     -3.41
    0    3   10      0.66      2.07
   15    4   10      0.10      0.00
   14    4   10      2.71     -0.66
   13    4   10      1.10      2.14
   12    4   10     -0.71     -2.80
   11    4   10      0.68      0.22
   10    4   10     -1.31      0.13
    9    4   10     -1.01     -0.43
    8    4   10     -0.03     -1.33
    7    4   10      0.06      0.22
    6    4   10      0.04      1.56
    5    4   10      0.38      1.33
    4    4   10     -1.05      0.82
    3    4   10      1.36      4.25
    2    4   10     -0.22      0.19
    1    4   10      0.03     -2.28
    0    4   10     -1.21     -0.44
   14    5   10     -0.35      0.92
   13    5   10      1.73      1.24
   12    5   10      1.60      1.19
   11    5   10      1.29     -0.64
   10    5   10     -0.71      1.36
    9    5   10     -0.13     -0.59
    8    5   10     -1.18      0.06
    7    5   10     -0.52     -1.84
    6    5   10     -1.14     -1.45
    5    5   10      0.19     -1.73
    4    5   10      0.36     -0.15
    3    5   10      0.47      2.62
    2    5   10     -0.08     -1.05
    1    5   10     -0.08      0.02
    0    5   10      0.63      1.57
   15    5   10      1.37      0.43
   14    6   10     -0.60      0.56
   13    6   10      0.21      0.73
   12    6   10     -0.37     -1.76
   11    6   10      1.05      0.78
   10    6   10     -0.19     -1.47
    9    6   10      0.95      1.60
    8    6   10     -0.28     -1.23
    7    6   10      1.47      0.87
    6    6   10     -0.31      0.78
    5    6   10      1.82     -1.11
    4    6   10     -0.46      0.59
    3    6   10      0.70     -0.51
    2    6   10     -0.89      0.31
    1    6   10     -0.72      1.19
    0    6   10     -1.93     -0.27
   15    6   10      2.61     -0.75
   13    7   10      1.44      0.76
   12    7   10     -1.05     -0.35
   11    7   10      0.64     -2.02
   10    7   10     -0.75      1.17
    9    7   10      1.55     -1.26
    8    7   10     -0.14      0.01
    7    7   10      0.03     -1.01
    6    7   10     -1.72      0.39
    5    7   10      1.30     -0.99
    4    7   10      0.73      0.51
    3    7   10      1.27      0.83
    2    7   10     -0.09     -0.75
    1    7   10     -1.91     -2.49
    0    7   10      0.24      1.76
   14    7   10      0.43     -0.69
   13    8   10      0.21     -0.04
   12    8   10      0.37      0.51
   11    8   10     -0.13      0.44
   10    8   10     -1.65      0.03
    9    8   10     -0.19     -0.74
    8    8   10      0.27     -0.04
    7    8   10      1.34      0.57
    6    8   10     -0.17     -1.18
    5    8   10     -0.31      0.74
    4    8   10     -2.10      0.16
    3    8   10      0.66      1.09
    2    8   10     -0.79     -0.53
    1    8   10      0.69      1.41
    0    8   10     -1.95      0.41
   14    8   10      0.14      1.28
   12    9   10      0.85     -2.23
   11    9   10      0.39      0.85
   10    9   10      0.51      0.46
    9    9   10     -0.11      0.47
    8    9   10     -1.18      0.09
    7    9   10     -1.01     -2.97
    6    9   10     -0.26      1.94
    5    9   10      1.20     -1.98
    4    9   10      0.23      1.71
    3    9   10     -0.33      1.48
    2    9   10     -1.71      0.08
    1    9   10     -0.16     -1.03
    0    9   10      0.22      0.43
   13    9   10      0.20     -0.40
   12   10   10      0.14      3.33
   11   10   10     -0.11     -1.99
   10   10   10      0.17      2.37
    9   10   10      0.00     -0.27
    8   10   10     -0.27      0.88
    7   10   10     -0.79      0.05
    6   10   10     -0.16     -2.09
    5   10   10     -0.99      0.11
    4   10   10      0.48      0.98
    3   10   10     -0.25      1.64
    2   10   10     -0.12      0.57
    1   10   10     -0.96      3.76
    0   10   10     -2.77      0.24
   13   10   10      0.19     -1.00
   12   11   10     -0.54     -1.50
   11   11   10     -0.70      0.58
   10   11   10      0.41      2.57
    9   11   10     -0.44      0.08
    8   11   10     -0.77      0.55
    7   11   10     -1.55     -1.28
    6   11   10     -2.22     -0.42
    5   11   10      0.91     -1.68
    4   11   10     -0.58      0.51
    3   11   10      0.97      1.95
    2   11   10     -0.50      1.49
    1   11   10      1.16      0.30
    0   11   10      0.45      2.29
   11   12   10     -0.71     -0.15
   10   12   10     -1.36      1.79
    9   12   10      0.89     -2.06
    8   12   10      0.23      3.65
    7   12   10      1.11     -1.27
    6   12   10      0.55     -0.99
    5   12   10     -0.71     -1.34
    4   12   10     -0.43     -1.54
    3   12   10     -0.07      0.71
    2   12   10      0.07     -1.74
    1   12   10     -0.14      3.17
    0   12   10     -0.97     -0.02
   12   12   10      1.03      3.27
   11   13   10     -0.52      0.23
   10   13   10      0.19      2.39
    9   13   10     -1.68      0.41
    8   13   10     -1.31     -0.78
    7   13   10      0.73      0.48
    6   13   10     -0.66      1.51
    5   13   10      2.56     -0.04
    4   13   10     -0.85      0.71
    3   13   10      1.41      0.79
    2   13   10     -1.76     -1.11
    1   13   10      1.94      1.22
    0   13   10      0.32     -0.56
   10   14   10     -1.21      1.09
    9   14   10      0.10     -2.12
    8   14   10     -0.54      0.69
    7   14   10      0.41     -1.28
    6   14   10     -0.11     -1.45
    5   14   10      0.75      0.29
    4   14   10     -0.19      0.60
    3   14   10      0.46     -0.66
    2   14   10     -1.23     -1.55
    1   14   10      0.03      0.80
    0   14   10      0.13     -0.05
    8   15   10     -0.43     -0.51
    7   15   10      0.30     -0.38
    6   15   10     -0.35     -0.93
    5   15   10      0.33      0.32
    4   15   10      0.92      0.26
    3   15   10      0.53      1.53
    2   15   10     -1.50     -0.94
    1   15   10      0.66      0.15
    0   15   10      0.08     -1.42
    7   16   10     -0.07      0.36
    6   16   10     -0.86     -1.08
    5   16   10     -0.83     -1.92
    4   16   10      0.21     -0.06
    3   16   10     -0.95     -0.56
    2   16   10     -0.55     -0.99
    1   16   10      0.02      0.65
    0   16   10      1.04     -0.02
    5   17   10     -1.16      0.15
    4   17   10      0.95     -0.35
    3   17   10     -1.77     -2.00
    2   17   10      0.38      0.05
    1   17   10     -2.36      0.92
    0   17   10      0.26      0.48
    1   18   10      0.78     -0.48
    0   18   10      2.66     -0.25
    2   18   10     -0.67     -1.26
    5    1    0   -104.19      0.78
    6    1    0    107.46     -0.68
    0    2    0    390.86      1.47
   10    2    0     47.19     -0.36
    2    3    0    181.43     -1.31
    4    5    0     97.87     -2.08
   23    5    0      0.89      0.26
   35    5    0      0.71     -0.40
   23    6    0     -4.25      2.69
   35    6    0     -3.09      0.02
   35    7    0     -0.34     -0.09
   22   10    0      3.47     -1.28
   34   11    0      1.20      0.02
   33   14    0     -0.25     -0.09
   33   15    0     -1.47     -0.14
   32   17    0      1.11     -0.08
   29   23    0     -1.06      0.40
   27   26    0      0.99     -0.37
   19   34    0      1.37      0.11
   16   36    0     -0.26     -0.28
   14   37    0      2.25     -0.08
   12   38    0      1.43     -0.06
    9   39    0      4.01     -0.13
    3   40    0      0.19     -0.15
    4   40    0     -1.61      0.19
    5   40    0     -0.79     -0.30
    0    1    1     -1.67   -232.84
    0    3    1     -0.42     88.87
   35    4    1     -2.82     -0.58
   35    5    1     -0.16     -1.10
   35    6    1     -1.98     -1.98
   34   10    1     -1.71     -1.38
   34   11    1     -1.02     -0.57
   33   14    1      0.07      0.61
   32   17    1      0.50     -0.66
   31   19    1      1.24      0.79
   30   21    1     -0.09      0.71
   29   23    1      0.56     -0.26
   27   26    1      1.48      0.75
   26   27    1     -1.01      1.37
   21   32    1      0.63     -0.13
   20   33    1      1.17     -0.14
   17   35    1      0.09     -0.14
   11   38    1     -1.61      0.36
    8   39    1      1.46     -2.30
    0   40    1     -0.20      0.33
    1   40    1     -0.29     -0.04
    2   40    1      0.13      1.77
    3   40    1     -0.85      1.05
    4   40    1     -0.13      1.26
   35    0    2      0.32      0.84
   34    8    2     -0.23     -1.39
   34    9    2      0.23      3.12
   33   13    2     -0.53     -1.82
   32   16    2     -0.20     -1.49
   31   18    2     -0.07     -1.40
   30   20    2     -0.43      1.99
   29   22    2     -1.53     -0.05
   27   25    2      1.52     -1.56
   19   33    2     -2.21      0.58
   18   34    2     -0.68      1.55
   16   35    2     -0.03      1.88
   10   38    2     -0.53      2.02
    6   39    2     -0.24     -1.09
   34    0    3     -2.30     -0.05
   34    1    3      0.53      0.80
   34    2    3     -0.39      1.12
   34    3    3      1.61      1.77
   34    4    3     -1.95      1.99
   34    5    3      0.72      0.74
   33   10    3     -0.94      1.31
   32   13    3      0.17      0.60
   32   14    3      0.72      0.12
   31   16    3     -0.09     -0.18
   28   22    3     -0.03      0.39
   27   24    3      0.61     -0.71
   26   25    3      0.23      0.74
   19   32    3      0.76     -0.79
   18   33    3      0.83     -0.47
   15   35    3     -1.40      0.98
   13   36    3      0.22      1.33
   10   37    3     -0.15     -0.32
    6   38    3     -0.97     -0.28
    7   38    3      0.61      1.04
   33    0    4      0.06     -1.59
   33    1    4      0.78      0.65
   33    2    4      0.86     -0.59
   33    3    4      1.09      0.52
   33    4    4      1.77     -0.12
   32    9    4     -0.03     -0.47
   32   10    4      1.03      1.51
   31   13    4     -0.17     -0.46
   30   16    4      0.92     -0.50
   29   18    4     -0.93      0.48
   28   20    4     -0.89      1.74
   27   22    4      0.38     -0.89
   26   23    4      1.44     -0.54
   24   26    4      0.88     -0.03
   23   27    4     -1.94      0.71
   22   28    4     -0.23     -0.08
   21   29    4     -0.87      0.16
   20   30    4      1.21      0.41
   19   31    4      0.39     -0.27
   16   33    4      0.41     -0.94
   14   34    4     -0.82      0.36
   12   35    4      0.12     -1.07
   10   36    4     -0.41      0.21
    0   37    4     -0.05     -0.85
    1   37    4     -2.34     -0.27
    2   37    4      1.62     -0.22
    3   37    4     -0.89      0.09
    4   37    4      2.08     -0.86
    5   37    4     -0.29      0.67
    6   37    4      0.17      0.95
   31    7    5      0.21     -0.86
   31    8    5     -1.31      0.92
   30   12    5     -2.07     -0.34
   29   15    5     -0.08     -2.58
   28   17    5     -0.92      1.17
   27   19    5      1.19     -0.75
   26   21    5      1.73      0.45
   25   22    5     -0.54      0.00
   23   25    5     -0.10      0.77
   22   26    5     -1.23      1.03
   21   27    5     -0.47      0.95
   20   28    5     -0.97     -1.00
   19   29    5     -0.33      1.22
   16   31    5     -0.49     -0.07
   15   32    5      0.94      2.03
   13   33    5      1.16      1.49
   11   34    5     -1.14      0.59
    8   35    5     -0.23     -0.02
    0   36    5     -1.25      0.17
    1   36    5      0.05      0.30
    2   36    5     -0.52     -2.45
    3   36    5      0.99      0.65
   30    0    6     -1.50     -0.23
   30    1    6     -1.54      1.93
   30    2    6     -0.11     -0.10
   30    3    6     -0.81      0.07
   29    8    6      3.30     -1.20
   29    9    6     -1.30      0.70
   28   12    6     -2.61     -0.66
    0   14    6     -9.78      2.15
    0   15    6      1.33     11.71
    1   15    6     -5.08      4.84
   27   15    6      1.26     -0.98
   26   17    6     -0.17      0.17
   25   19    6     -0.30      0.30
   24   20    6      0.49     -2.72
   23   22    6      1.56     -0.79
   22   23    6     -1.03     -1.54
   21   24    6      0.39     -2.15
   18   27    6     -0.70      0.54
   17   28    6      1.07     -0.60
   16   29    6      2.35     -1.27
   14   30    6      0.67      0.89
   10   32    6      0.98      0.43
    7   33    6     -0.54     -0.48
    8   33    6      0.52      0.90
    0   34    6      1.61     -0.02
    1   34    6     -0.36     -0.34
    2   34    6      1.36     -0.83
    3   34    6      0.34     -0.01
   27    7    7      0.37     -0.54
   27    8    7     -1.60      1.18
   26   11    7     -0.46      1.69
   25   14    7      1.47     -2.16
   24   16    7     -0.78      0.44
   23   18    7      0.67     -0.56
   22   19    7     -0.45     -2.08
   20   22    7     -2.26     -1.05
   19   23    7     -0.14     -0.30
   18   24    7      1.26     -0.57
   17   25    7     -0.75     -1.13
   16   26    7     -0.58      3.27
   13   28    7      0.52      0.33
   11   29    7     -1.45     -1.07
    8   30    7     -0.10      1.71
    9   30    7      0.30     -0.52
    5   31    7     -1.30     -1.38
    6   31    7      0.16      1.04
   25    0    8      0.04      1.09
   25    1    8     -0.30      1.60
   25    2    8     -0.19     -1.10
   25    3    8     -0.66      0.51
   24    7    8      0.55     -0.14
   24    8    8      0.12     -1.19
   23   11    8      0.65      0.56
   22   13    8     -0.73     -0.84
   21   15    8     -0.29      0.41
   20   17    8      1.01      1.78
   19   18    8      0.24      0.02
   17   21    8     -1.22      0.20
   16   22    8      0.04     -0.93
   13   24    8      0.90     -0.91
   12   25    8     -1.24     -0.86
   10   26    8     -1.06      1.12
    7   27    8      0.78     -0.82
    8   27    8     -0.46     -0.12
    3   28    8      1.73      0.66
    4   28    8     -0.30      0.35
    5   28    8      1.00      0.18
   21    0    9     -0.04      1.36
   21    1    9      2.36      0.90
   21    2    9     -0.60     -0.90
   21    3    9     -0.58      1.09
   21    4    9     -0.91     -0.20
   21    5    9     -1.00     -0.21
   20    8    9     -0.58     -0.11
   20    9    9     -0.84      0.30
   19   11    9      0.51     -0.11
   18   13    9     -2.22     -0.18
   17   15    9     -0.21      0.09
   16   16    9      0.63      0.85
   15   17    9     -0.49      0.16
   14   18    9      0.78      1.32
   13   19    9     -2.46     -0.45
   12   20    9     -0.58     -1.52
   11   21    9      1.00     -0.96
    9   22    9     -0.71     -0.01
    6   23    9      0.18     -0.12
    7   23    9      0.20      0.06
    0   24    9      1.37     -0.13
    1   24    9     -0.28      0.91
    2   24    9      0.31      0.30
    3   24    9     -0.09      0.35
    4   24    9     -0.46      0.02
   16    0   10     -3.64     -0.06
   16    1   10     -0.82      2.06
   16    2   10     -2.18     -1.00
   16    3   10      1.21      1.08
   16    4   10      0.20     -1.31
   16    5   10     -1.23      0.48
   15    7   10      1.32      0.70
   15    8   10      2.06     -1.30
   14    9   10     -0.46     -1.57
   14   10   10     -1.25      1.62
   13   11   10     -0.58      1.04
   12   13   10     -0.39      0.72
   11   14   10      0.16      0.11
    9   15   10     -0.78      0.13
   10   15   10      0.19      0.65
    8   16   10      0.53      0.21
    6   17   10     -1.08     -0.33
    7   17   10     -0.08      1.34
    3   18   10     -0.08     -1.69
    4   18   10     -0.33     -0.36
    5   18   10     -0.94      0.09
    0    0    0      0.00      0.00
# SQUEEZE RESULTS (Version =  30715)
# Note: Data are Listed for all Voids in the P1 Unit Cell
# i.e. Centre of Gravity, Solvent Accessible Volume,
# Recovered number of Electrons in the Void and
# Details about the Squeezed Material
loop_
  _platon_squeeze_void_nr
  _platon_squeeze_void_average_x
  _platon_squeeze_void_average_y
  _platon_squeeze_void_average_z
  _platon_squeeze_void_volume
  _platon_squeeze_void_count_electrons
  _platon_squeeze_void_content
   1 -0.011 -0.001 -0.489      3981      1144 ' '
# Missing Reflections Below sin(th)/lambda = 0.25
loop_
  _platon_missing_refln_index_h
  _platon_missing_refln_index_k
  _platon_missing_refln_index_l
  _platon_missing_refln_theta
    5    1    0     7.575
    6    1    0     9.060
    0    2    0     2.618
   10    2    0    15.287
    2    3    0     4.933
    4    5    0     8.881
    0    1    1     4.860
    0    3    1     6.116
_platon_squeeze_void_probe_radius                  1.20
_platon_squeeze_details
)
TITL 1         P 21 21 2    R = 0.06
CELL   29.6876   33.7481    9.4487     90.00     90.00     90.00
SPGR P21212
# Solvent Accessible Volume =    4047.3
# Electrons Found in S.A.V. =    1139.7
# Note: Atoms in Void as Cxxx and Qxxx all others
C101 0.500 0.996 0.062 !       8.10 eA-3
C102 1.000 1.000 0.407 !       3.92 eA-3
C103 0.282 1.005 0.019 !       3.62 eA-3
C104 0.788 0.504 0.959 !       3.61 eA-3
C105 0.857 0.791 0.571 !       3.57 eA-3
C106 0.501 0.103 0.704 !       3.00 eA-3
C107 0.943 0.081 0.826 !       2.98 eA-3
C108 0.941 0.068 0.888 !       2.92 eA-3
C109 0.315 0.702 0.495 !       2.57 eA-3
C110 0.287 0.033 0.121 !       2.56 eA-3
C111 0.758 0.499 0.099 !       2.47 eA-3
C112 0.273 0.957 0.168 !       2.06 eA-3
C113 0.893 0.773 0.476 !       2.03 eA-3
C114 0.355 0.726 0.318 !       1.97 eA-3
C115 0.187 0.972 0.981 !       1.91 eA-3
C116 0.123 0.173 0.587 !       1.90 eA-3
C117 0.813 0.021 1.015 !       1.90 eA-3
C118 0.477 0.111 0.601 !       1.87 eA-3
C119 0.140 0.287 0.465 !       1.81 eA-3
C120 0.635 0.231 0.622 !       1.80 eA-3
C121 0.664 1.001-0.003 !       1.67 eA-3
C122 0.288 0.498 0.097 !       1.67 eA-3
C123 0.187 0.491 0.046 !       1.61 eA-3
C124 0.944 0.039 0.920 !       1.42 eA-3
C125 0.929 0.578 0.147 !       1.40 eA-3
C126 0.540 0.134 0.643 !       1.37 eA-3
C127 0.908 0.085 0.790 !       1.35 eA-3
C128 0.516 0.056 0.652 !       1.34 eA-3
C129 0.510 0.578 0.170 !       1.33 eA-3
C130 0.954 0.638 0.220 !       1.26 eA-3
C131 0.123 0.250 0.569 !       1.23 eA-3
C132 0.464 0.946 0.713 !       1.23 eA-3
C133 0.977 0.917 0.718 !       1.16 eA-3
C134 0.781 0.997 0.039 !       1.14 eA-3
C135 0.049 0.585 0.166 !       1.13 eA-3
C136 0.020 0.557 0.315 !       1.10 eA-3
C137 0.060 0.887 0.967 !       1.05 eA-3
C138 0.967 0.031 0.067 !       1.02 eA-3
C139 0.554 0.968 0.842 !       1.02 eA-3
C140 0.059 0.905 0.008 !       0.99 eA-3
C141 0.655 0.257 0.716 !       0.98 eA-3
C142 0.037 0.060 0.784 !       0.97 eA-3
C143 0.436 0.971 0.808 !       0.97 eA-3
C144 0.516 0.561 0.355 !       0.97 eA-3
C145 0.441 0.956 0.770 !       0.97 eA-3
C146 0.899 0.493 0.054 !       0.95 eA-3
C147 0.960 0.434 0.366 !       0.95 eA-3
C148 0.382 0.673 0.290 !       0.95 eA-3
C149 0.440 0.074 0.812 !       0.94 eA-3
C150 0.243 0.025-0.011 !       0.94 eA-3
C151 0.540 0.585 0.318 !       0.92 eA-3
C152 0.875 0.813 0.758 !       0.91 eA-3
C153 0.891 0.114 0.804 !       0.90 eA-3
C154 0.522 0.926 0.563 !       0.90 eA-3
C155 0.069 0.480 0.142 !       0.89 eA-3
C156 0.076 0.994-0.003 !       0.88 eA-3
C157 0.999 1.003 0.065 !       0.87 eA-3
C158 0.913 0.534 0.085 !       0.87 eA-3
C159 0.831 0.565 0.957 !       0.86 eA-3
C160 0.608 0.023 0.000 !       0.86 eA-3
C161 0.483 0.390 0.159 !       0.86 eA-3
C162 0.913 0.945 0.778 !       0.85 eA-3
C163 0.939 0.090 0.626 !       0.85 eA-3
C164 0.540 0.558 0.928 !       0.84 eA-3
C165 0.064 0.109 0.714 !       0.83 eA-3
C166 0.054 0.918 0.119 !       0.82 eA-3
C167 0.940 0.912 0.781 !       0.81 eA-3
C168 0.004 0.024 0.049 !       0.80 eA-3
C169 0.017 0.057 0.722 !       0.80 eA-3
C170 0.030 0.924 0.488 !       0.80 eA-3
C171 0.071 0.481 0.069 !       0.80 eA-3
C172 0.022 0.880 0.891 !       0.77 eA-3
C173 0.571 0.489 0.090 !       0.76 eA-3
C174 0.524 0.559 0.807 !       0.74 eA-3
C175 0.423 0.840 0.808 !       0.74 eA-3
C176 0.938 0.046 0.099 !       0.74 eA-3
C177 0.453 0.552 0.300 !       0.72 eA-3
C178 0.568 0.606 0.908 !       0.72 eA-3
C179 0.826 0.982-0.009 !       0.72 eA-3
C180 0.086 0.033 0.793 !       0.71 eA-3
C181 0.960 0.071 0.536 !       0.70 eA-3
C182 0.966 0.106 0.618 !       0.70 eA-3
C183 0.366 0.486 0.105 !       0.70 eA-3
C184 0.434 0.079 0.751 !       0.70 eA-3
C185 0.061 0.586-0.001 !       0.69 eA-3
C186 0.422 0.492 0.206 !       0.69 eA-3
C187 0.871 1.003 0.953 !       0.69 eA-3
C188 0.615 0.448 0.188 !       0.69 eA-3
C189 0.641 0.482 0.052 !       0.67 eA-3
C190 0.488 0.995 0.188 !       0.66 eA-3
C191 0.788 0.516 0.760 !       0.66 eA-3
C192 0.493 0.464 0.338 !       0.66 eA-3
C193 1.001 0.048 0.208 !       0.66 eA-3
C194 0.877 0.941 0.731 !       0.65 eA-3
C195 0.231 0.502 0.791 !       0.65 eA-3
C196 0.686 0.047 0.942 !       0.63 eA-3
Q197 0.390 0.049 0.889 !       0.62 eA-3
C198 0.202 0.202 0.788 !       0.62 eA-3
C199 0.764 0.946 0.033 !       0.62 eA-3
)
;
_shelx_fab_checksum              81483
loop_
_space_group_symop_operation_xyz
'x, y, z'
'x+1/2, -y+1/2, -z'
'-x+1/2, y+1/2, -z'
'-x, -y, z'
loop_
_atom_site_label
_atom_site_type_symbol
_atom_site_fract_x
_atom_site_fract_y
_atom_site_fract_z
_atom_site_U_iso_or_equiv
_atom_site_adp_type
_atom_site_occupancy
_atom_site_site_symmetry_order
_atom_site_calc_flag
_atom_site_refinement_flags_posn
_atom_site_refinement_flags_adp
In1 In 0.52230(3) 0.26635(2) 0.99740(8) 0.0408(2) Uani 1 1 d . .
In2 In 0.70249(3) 0.88559(2) 0.34331(8) 0.0442(2) Uani 1 1 d . .
In3 In 0.74686(3) 0.62609(2) 1.66565(9) 0.0449(2) Uani 1 1 d . .
Cl1 Cl 0.77701(15) 0.88728(15) 0.2476(5) 0.0793(11) Uani 1 1 d . .
Cl2 Cl 0.82178(15) 0.63348(17) 1.7520(6) 0.0868(13) Uani 1 1 d . .
O1 O 0.6872(3) 0.5942(2) 1.5809(10) 0.049(2) Uani 1 1 d . .
O2 O 0.7494(3) 0.5610(2) 1.6153(10) 0.053(2) Uani 1 1 d . .
O3 O 0.5216(4) 0.3283(3) 1.0880(11) 0.063(2) Uani 1 1 d . .
O4 O 0.5860(3) 0.3010(3) 1.0458(12) 0.063(3) Uani 1 1 d . .
O5 O 0.7379(4) 0.6789(3) 1.5388(10) 0.069(3) Uani 1 1 d . .
O6 O 0.7709(4) 0.6320(4) 1.4156(12) 0.072(3) Uani 1 1 d . .
O7 O 0.7286(4) 0.8871(3) 0.6013(12) 0.065(3) Uani 1 1 d . .
O8 O 0.7071(4) 0.8352(3) 0.4814(11) 0.063(2) Uani 1 1 d . .
O9 O 0.6973(3) 0.9489(2) 0.3817(10) 0.051(2) Uani 1 1 d . .
O10 O 0.6385(3) 0.9139(3) 0.4467(10) 0.056(2) Uani 1 1 d . .
O11 O 0.6727(5) 0.9039(3) 0.1110(12) 0.075(3) Uani 1 1 d . .
O12 O 0.6651(4) 0.8454(3) 0.2090(9) 0.060(2) Uani 1 1 d . .
O13 O 0.7230(5) 0.6015(4) 1.8980(13) 0.079(3) Uani 1 1 d . .
O14 O 0.7024(4) 0.6582(3) 1.8088(9) 0.060(2) Uani 1 1 d . .
O15 O 0.4689(4) 0.2825(4) 0.8555(11) 0.078(3) Uani 1 1 d . .
O16 O 0.5287(5) 0.2966(5) 0.7497(14) 0.098(5) Uani 1 1 d . .
O17 O 0.4644(3) 0.2515(3) 1.1368(9) 0.050(2) Uani 1 1 d . .
O18 O 0.5309(3) 0.2421(3) 1.2263(10) 0.061(2) Uani 1 1 d . .
O19 O 0.5738(5) 0.2255(4) 0.9007(15) 0.089(4) Uani 1 1 d . .
O20 O 0.5090(4) 0.1992(4) 0.9477(14) 0.087(4) Uani 1 1 d . .
C1 C 0.6878(5) 0.5268(3) 1.5049(16) 0.053(3) Uani 1 1 d . .
C2 C 0.6456(6) 0.5297(5) 1.443(2) 0.084(6) Uani 1 1 d . .
H2A H 0.6298 0.5536 1.4453 0.101 Uiso 1 1 calc R U
C3 C 0.6279(6) 0.4981(5) 1.380(2) 0.083(5) Uani 1 1 d . .
H3A H 0.5997 0.5006 1.3381 0.100 Uiso 1 1 calc R U
C4 C 0.6495(5) 0.4610(4) 1.375(2) 0.071(5) Uani 1 1 d . .
C5 C 0.6920(6) 0.4583(5) 1.436(2) 0.074(5) Uani 1 1 d . .
H5A H 0.7079 0.4346 1.4325 0.089 Uiso 1 1 calc R U
C6 C 0.7101(5) 0.4908(4) 1.501(2) 0.067(4) Uani 1 1 d . .
H6A H 0.7382 0.4886 1.5443 0.080 Uiso 1 1 calc R U
C7 C 0.6285(5) 0.4260(4) 1.302(2) 0.078(6) Uani 1 1 d . .
C8 C 0.5817(6) 0.4228(5) 1.301(3) 0.091(7) Uani 1 1 d . .
H8A H 0.5641 0.4419 1.3453 0.109 Uiso 1 1 calc R U
C9 C 0.5611(6) 0.3900(5) 1.2316(19) 0.069(4) Uani 1 1 d . .
H9A H 0.5299 0.3876 1.2312 0.083 Uiso 1 1 calc R U
C10 C 0.5865(5) 0.3629(4) 1.167(2) 0.067(4) Uani 1 1 d . .
C11 C 0.6324(6) 0.3671(5) 1.159(2) 0.076(5) Uani 1 1 d . .
H11A H 0.6501 0.3495 1.1076 0.092 Uiso 1 1 calc R U
C12 C 0.7086(4) 0.5627(4) 1.5716(13) 0.045(3) Uani 1 1 d . .
C13 C 0.5621(6) 0.3293(4) 1.0944(16) 0.062(4) Uani 1 1 d . .
C14 C 0.7517(5) 0.6935(4) 1.2976(13) 0.055(3) Uani 1 1 d . .
C15 C 0.7292(5) 0.7295(4) 1.3122(15) 0.060(3) Uani 1 1 d . .
H15A H 0.7165 0.7369 1.3982 0.073 Uiso 1 1 calc R U
C16 C 0.7265(5) 0.7541(4) 1.1944(14) 0.057(3) Uani 1 1 d . .
H16A H 0.7104 0.7776 1.2019 0.069 Uiso 1 1 calc R U
C17 C 0.7463(5) 0.7451(4) 1.0690(13) 0.051(3) Uani 1 1 d . .
C18 C 0.7696(5) 0.7090(4) 1.0563(14) 0.055(3) Uani 1 1 d . .
H18A H 0.7834 0.7024 0.9711 0.066 Uiso 1 1 calc R U
C19 C 0.7721(5) 0.6832(4) 1.1695(16) 0.058(3) Uani 1 1 d . .
H19A H 0.7873 0.6593 1.1607 0.070 Uiso 1 1 calc R U
C20 C 0.7411(5) 0.7724(4) 0.9464(13) 0.048(3) Uani 1 1 d . .
C21 C 0.7486(5) 0.8122(4) 0.9593(14) 0.057(3) Uani 1 1 d . .
H21A H 0.7585 0.8221 1.0456 0.069 Uiso 1 1 calc R U
C22 C 0.7419(4) 0.8377(3) 0.8492(14) 0.050(3) Uani 1 1 d . .
H22A H 0.7465 0.8647 0.8622 0.060 Uiso 1 1 calc R U
C23 C 0.7282(4) 0.8234(4) 0.7168(13) 0.048(3) Uani 1 1 d . .
C24 C 0.7209(5) 0.7835(4) 0.7021(14) 0.056(3) Uani 1 1 d . .
H24A H 0.7116 0.7735 0.6152 0.067 Uiso 1 1 calc R U
C25 C 0.7272(5) 0.7584(4) 0.8122(14) 0.054(3) Uani 1 1 d . .
H25A H 0.7223 0.7314 0.7993 0.064 Uiso 1 1 calc R U
C26 C 0.7524(5) 0.6665(4) 1.4240(15) 0.057(3) Uani 1 1 d . .
C27 C 0.7205(5) 0.8507(4) 0.5943(17) 0.058(3) Uani 1 1 d . .
C28 C 0.6350(5) 0.8539(4) -0.0221(13) 0.050(3) Uani 1 1 d . .
C29 C 0.6188(6) 0.8158(5) -0.0218(14) 0.063(4) Uani 1 1 d . .
H29A H 0.6223 0.7996 0.0571 0.075 Uiso 1 1 calc R U
C30 C 0.5965(7) 0.8017(6) -0.1451(19) 0.079(5) Uani 1 1 d . .
H30A H 0.5831 0.7768 -0.1438 0.095 Uiso 1 1 calc R U
C31 C 0.5944(4) 0.8239(4) -0.2645(12) 0.048(3) Uani 1 1 d . .
C32 C 0.6124(6) 0.8603(5) -0.2649(15) 0.064(4) Uani 1 1 d . .
H32A H 0.6116 0.8751 -0.3478 0.077 Uiso 1 1 calc R U
C33 C 0.6325(6) 0.8768(5) -0.1426(16) 0.070(4) Uani 1 1 d . .
H33A H 0.6437 0.9025 -0.1434 0.084 Uiso 1 1 calc R U
C34 C 0.5723(5) 0.8080(4) -0.3932(13) 0.052(3) Uani 1 1 d . .
C35 C 0.5289(5) 0.7968(5) -0.3916(14) 0.063(4) Uani 1 1 d . .
H35A H 0.5124 0.7987 -0.3082 0.076 Uiso 1 1 calc R U
C36 C 0.5084(4) 0.7824(4) -0.5127(15) 0.056(3) Uani 1 1 d . .
H36A H 0.4777 0.7771 -0.5115 0.067 Uiso 1 1 calc R U
C37 C 0.5324(5) 0.7758(4) -0.6346(13) 0.052(3) Uani 1 1 d . .
C38 C 0.5792(5) 0.7860(5) -0.6349(13) 0.063(4) Uani 1 1 d . .
H38A H 0.5967 0.7812 -0.7148 0.076 Uiso 1 1 calc R U
C39 C 0.5980(5) 0.8027(6) -0.5181(17) 0.070(4) Uani 1 1 d . .
H39A H 0.6279 0.8108 -0.5202 0.084 Uiso 1 1 calc R U
C40 C 0.6580(5) 0.8688(4) 0.1078(14) 0.055(3) Uani 1 1 d . .
C41 C 0.6584(5) 0.9468(4) 0.4389(13) 0.048(3) Uani 1 1 d . .
C42 C 0.7020(5) 0.6336(4) 1.9102(16) 0.057(3) Uani 1 1 d . .
C43 C 0.6736(5) 0.6419(4) 2.0337(12) 0.048(3) Uani 1 1 d . .
C44 C 0.4600(5) 0.3086(4) 0.6273(14) 0.054(3) Uani 1 1 d . .
C45 C 0.4802(5) 0.3200(6) 0.5032(16) 0.069(4) Uani 1 1 d . .
H45A H 0.5114 0.3217 0.4978 0.082 Uiso 1 1 calc R U
C46 C 0.4539(5) 0.3289(5) 0.3853(14) 0.060(3) Uani 1 1 d . .
H46A H 0.4679 0.3348 0.2998 0.072 Uiso 1 1 calc R U
C47 C 0.4078(5) 0.3293(4) 0.3931(14) 0.052(3) Uani 1 1 d . .
C48 C 0.3874(5) 0.3186(6) 0.5228(15) 0.067(4) Uani 1 1 d . .
H48A H 0.3562 0.3195 0.5316 0.080 Uiso 1 1 calc R U
C49 C 0.4131(5) 0.3068(5) 0.6355(15) 0.067(4) Uani 1 1 d . .
H49A H 0.3993 0.2977 0.7176 0.081 Uiso 1 1 calc R U
C50 C 0.3789(5) 0.3387(4) 0.2679(14) 0.053(3) Uani 1 1 d . .
C51 C 0.3832(6) 0.3178(5) 0.1436(17) 0.068(4) Uani 1 1 d . .
H51A H 0.4045 0.2977 0.1364 0.082 Uiso 1 1 calc R U
C52 C 0.3560(5) 0.3267(5) 0.0293(15) 0.067(4) Uani 1 1 d . .
H52A H 0.3576 0.3112 -0.0518 0.081 Uiso 1 1 calc R U
C53 C 0.3478(5) 0.3682(5) 0.2793(15) 0.059(3) Uani 1 1 d . .
H53A H 0.3441 0.3817 0.3644 0.070 Uiso 1 1 calc R U
C55 C 0.4871(6) 0.2955(5) 0.7517(16) 0.063(4) Uani 1 1 d . .
C56 C 0.4886(4) 0.2399(4) 1.2380(13) 0.047(3) Uani 1 1 d . .
C57 C 0.5615(5) 0.1580(4) 0.8370(19) 0.066(4) Uani 1 1 d . .
C58 C 0.6071(6) 0.1537(5) 0.790(2) 0.082(5) Uani 1 1 d . .
H58A H 0.6274 0.1744 0.8023 0.099 Uiso 1 1 calc R U
C59 C 0.6205(6) 0.1202(5) 0.730(3) 0.085(6) Uani 1 1 d . .
H59A H 0.6506 0.1175 0.7048 0.102 Uiso 1 1 calc R U
C60 C 0.5914(5) 0.0890(5) 0.7019(18) 0.066(4) Uani 1 1 d . .
C61 C 0.5461(6) 0.0923(5) 0.746(3) 0.093(7) Uani 1 1 d . .
H61A H 0.5256 0.0721 0.7285 0.112 Uiso 1 1 calc R U
C62 C 0.5327(6) 0.1273(4) 0.8193(17) 0.066(4) Uani 1 1 d . .
H62A H 0.5036 0.1291 0.8554 0.079 Uiso 1 1 calc R U
C63 C 0.6085(6) 0.0516(4) 0.6377(18) 0.066(4) Uani 1 1 d . .
C64 C 0.6427(5) 0.0520(4) 0.5391(18) 0.065(4) Uani 1 1 d . .
H64A H 0.6549 0.0762 0.5124 0.077 Uiso 1 1 calc R U
C65 C 0.6587(5) 0.0194(4) 0.481(2) 0.066(4) Uani 1 1 d . .
H65A H 0.6839 0.0210 0.4227 0.079 Uiso 1 1 calc R U
C66 C 0.6389(5) -0.0176(4) 0.5052(17) 0.056(3) Uani 1 1 d . .
C67 C 0.6028(6) -0.0191(4) 0.5969(17) 0.063(4) Uani 1 1 d . .
H67A H 0.5889 -0.0432 0.6153 0.076 Uiso 1 1 calc R U
C68 C 0.5871(5) 0.0146(4) 0.661(2) 0.068(4) Uani 1 1 d . .
H68A H 0.5622 0.0132 0.7204 0.081 Uiso 1 1 calc R U
C69 C 0.5482(6) 0.1974(5) 0.9011(17) 0.070(5) Uani 1 1 d . .
C71 C 0.6516(6) 0.3997(5) 1.233(2) 0.086(6) Uani 1 1 d . .
H71A H 0.6827 0.4024 1.2314 0.103 Uiso 1 1 calc R U
C54 C 0.6789(6) 0.6218(4) 2.1599(17) 0.063(4) Uani 1 1 d . .
H54A H 0.7001 0.6016 2.1667 0.076 Uiso 1 1 calc R U
loop_
_atom_site_aniso_label
_atom_site_aniso_U_11
_atom_site_aniso_U_22
_atom_site_aniso_U_33
_atom_site_aniso_U_23
_atom_site_aniso_U_13
_atom_site_aniso_U_12
In1 0.0465(4) 0.0407(4) 0.0351(4) -0.0019(3) 0.0040(3) -0.0034(3)
In2 0.0603(5) 0.0342(4) 0.0380(4) -0.0034(3) -0.0060(4) -0.0034(3)
In3 0.0593(5) 0.0379(4) 0.0376(4) -0.0035(3) 0.0010(4) 0.0028(3)
Cl1 0.069(2) 0.086(3) 0.083(3) -0.019(2) 0.010(2) -0.012(2)
Cl2 0.068(2) 0.105(3) 0.088(3) -0.017(3) -0.015(2) -0.005(2)
O1 0.058(5) 0.037(4) 0.053(5) 0.002(4) -0.004(4) 0.004(4)
O2 0.064(5) 0.036(4) 0.058(5) -0.012(3) -0.009(4) 0.001(4)
O3 0.062(6) 0.064(6) 0.063(6) -0.001(5) -0.002(5) -0.011(5)
O4 0.064(6) 0.053(5) 0.071(6) -0.019(5) 0.009(5) -0.014(4)
O5 0.104(9) 0.064(6) 0.039(5) 0.017(4) 0.010(5) 0.001(6)
O6 0.076(7) 0.076(7) 0.064(6) 0.025(6) -0.001(5) 0.000(6)
O7 0.070(6) 0.055(6) 0.070(6) 0.021(5) -0.007(5) -0.006(5)
O8 0.073(6) 0.066(6) 0.050(5) 0.015(4) -0.017(5) -0.001(5)
O9 0.068(5) 0.034(4) 0.052(5) -0.011(3) 0.007(4) -0.001(4)
O10 0.080(6) 0.037(4) 0.052(5) -0.004(4) 0.003(4) 0.000(4)
O11 0.104(9) 0.064(7) 0.057(6) -0.006(5) -0.013(6) -0.018(6)
O12 0.081(6) 0.061(6) 0.038(4) -0.006(4) -0.014(4) -0.010(5)
O13 0.104(9) 0.071(7) 0.063(6) -0.004(5) 0.014(6) 0.035(6)
O14 0.093(7) 0.049(5) 0.039(4) -0.001(4) 0.020(5) 0.003(5)
O15 0.103(9) 0.079(7) 0.052(6) 0.023(5) -0.028(6) -0.019(6)
O16 0.077(8) 0.153(14) 0.064(7) -0.004(8) -0.014(6) 0.032(9)
O17 0.050(4) 0.063(5) 0.037(4) 0.005(4) 0.006(3) 0.004(4)
O18 0.062(6) 0.072(6) 0.048(5) 0.010(4) 0.006(4) -0.013(5)
O19 0.122(11) 0.048(6) 0.097(9) -0.018(6) 0.027(8) 0.008(7)
O20 0.069(7) 0.109(10) 0.084(8) -0.051(8) 0.000(6) 0.021(7)
C1 0.069(8) 0.034(6) 0.056(7) -0.008(6) -0.014(7) -0.002(5)
C2 0.082(11) 0.041(8) 0.128(17) -0.021(9) -0.026(11) 0.013(7)
C3 0.071(10) 0.062(10) 0.116(15) -0.019(10) -0.030(10) 0.015(8)
C4 0.061(8) 0.045(7) 0.108(13) -0.010(8) -0.019(9) 0.013(6)
C5 0.078(10) 0.047(8) 0.097(12) -0.008(8) -0.026(9) 0.006(7)
C6 0.065(8) 0.052(7) 0.083(10) -0.019(8) -0.029(8) 0.003(6)
C7 0.068(9) 0.038(7) 0.128(16) -0.010(8) -0.036(10) 0.007(6)
C8 0.067(9) 0.064(10) 0.143(19) -0.058(12) 0.005(11) -0.016(8)
C9 0.064(8) 0.068(9) 0.076(10) -0.026(8) 0.009(8) -0.002(7)
C10 0.070(8) 0.049(7) 0.084(10) -0.008(8) 0.005(8) -0.016(6)
C11 0.070(9) 0.069(9) 0.090(12) -0.025(10) 0.000(9) -0.014(7)
C12 0.051(7) 0.037(6) 0.048(6) 0.000(5) -0.003(5) 0.001(5)
C13 0.083(11) 0.050(8) 0.052(8) 0.002(6) -0.005(7) -0.020(7)
C14 0.065(8) 0.062(8) 0.037(6) 0.008(5) 0.000(6) 0.003(7)
C15 0.085(9) 0.050(7) 0.047(7) -0.003(6) 0.006(6) 0.000(7)
C16 0.087(10) 0.044(7) 0.041(7) 0.002(5) 0.008(6) 0.007(6)
C17 0.068(8) 0.047(6) 0.037(5) 0.004(5) -0.002(6) -0.001(6)
C18 0.074(9) 0.049(7) 0.042(6) 0.001(5) 0.007(6) 0.001(6)
C19 0.074(8) 0.051(7) 0.050(7) 0.003(6) 0.001(7) 0.005(6)
C20 0.066(8) 0.039(6) 0.040(6) 0.004(5) -0.004(5) -0.009(5)
C21 0.072(8) 0.058(7) 0.041(6) 0.006(5) -0.010(6) -0.017(7)
C22 0.066(7) 0.039(6) 0.044(6) 0.002(5) -0.009(6) -0.009(5)
C23 0.054(7) 0.051(7) 0.039(6) 0.004(5) -0.007(5) -0.007(5)
C24 0.073(9) 0.051(7) 0.044(7) 0.001(5) -0.014(6) 0.000(6)
C25 0.081(9) 0.038(6) 0.042(7) 0.004(5) 0.000(6) -0.004(6)
C26 0.056(7) 0.055(8) 0.059(8) 0.019(6) 0.002(6) 0.003(6)
C27 0.054(7) 0.052(8) 0.067(9) 0.011(6) -0.001(6) 0.008(6)
C28 0.059(7) 0.055(7) 0.036(6) 0.003(5) -0.002(5) -0.012(6)
C29 0.089(10) 0.066(9) 0.033(6) 0.006(6) -0.012(6) -0.021(7)
C30 0.100(12) 0.077(11) 0.061(9) 0.006(8) -0.008(9) -0.044(9)
C31 0.053(7) 0.061(8) 0.029(5) 0.001(5) -0.007(5) -0.007(6)
C32 0.091(11) 0.056(8) 0.045(7) 0.010(6) -0.012(7) -0.012(8)
C33 0.099(11) 0.060(8) 0.051(8) -0.002(6) -0.033(8) -0.023(8)
C34 0.062(8) 0.059(8) 0.035(6) -0.003(5) -0.008(5) -0.007(6)
C35 0.069(9) 0.084(10) 0.037(6) -0.006(6) 0.009(6) -0.023(8)
C36 0.045(6) 0.072(8) 0.051(7) -0.016(6) 0.012(6) -0.010(6)
C37 0.056(7) 0.058(7) 0.041(6) 0.008(5) -0.009(5) -0.010(5)
C38 0.052(7) 0.108(12) 0.029(6) -0.003(6) 0.011(5) -0.021(7)
C39 0.052(7) 0.101(12) 0.057(9) -0.009(8) 0.001(7) -0.028(8)
C40 0.069(8) 0.056(8) 0.039(6) -0.010(5) 0.004(6) -0.003(6)
C41 0.065(8) 0.038(6) 0.041(6) -0.004(5) -0.011(6) -0.001(5)
C42 0.061(8) 0.049(7) 0.063(8) -0.012(6) 0.002(7) 0.006(6)
C43 0.063(7) 0.053(7) 0.029(5) -0.001(5) -0.002(5) 0.002(6)
C44 0.064(8) 0.054(7) 0.045(7) 0.008(5) -0.005(6) 0.013(6)
C45 0.053(7) 0.102(12) 0.051(7) 0.017(8) 0.004(7) 0.006(7)
C46 0.065(8) 0.074(9) 0.040(6) 0.007(6) 0.011(6) 0.009(7)
C47 0.057(7) 0.065(8) 0.035(6) 0.000(5) -0.006(5) 0.009(6)
C48 0.055(7) 0.104(12) 0.041(7) 0.005(7) 0.013(6) -0.007(8)
C49 0.053(7) 0.102(12) 0.047(8) 0.028(8) 0.005(6) -0.004(7)
C50 0.063(8) 0.056(8) 0.041(6) 0.001(5) -0.001(6) 0.003(6)
C51 0.074(9) 0.081(10) 0.050(8) -0.009(7) -0.010(7) 0.034(8)
C52 0.075(9) 0.088(11) 0.039(7) -0.006(6) -0.006(6) 0.027(8)
C53 0.063(8) 0.062(8) 0.051(7) -0.006(6) -0.007(6) 0.010(7)
C55 0.079(11) 0.059(8) 0.051(8) -0.005(7) -0.018(7) 0.008(7)
C56 0.060(7) 0.040(6) 0.041(6) -0.004(5) 0.007(5) -0.003(5)
C57 0.079(9) 0.041(7) 0.080(10) -0.020(7) 0.032(9) 0.010(6)
C58 0.065(9) 0.059(9) 0.123(17) 0.006(10) -0.007(10) -0.002(7)
C59 0.054(8) 0.057(9) 0.144(18) -0.039(10) 0.009(10) 0.001(7)
C60 0.070(9) 0.048(8) 0.079(10) 0.005(7) 0.013(8) -0.006(6)
C61 0.071(10) 0.054(9) 0.154(19) -0.044(11) 0.032(11) 0.003(8)
C62 0.077(10) 0.053(8) 0.068(9) -0.029(7) 0.009(8) 0.005(6)
C63 0.085(10) 0.044(7) 0.069(9) -0.003(6) -0.005(8) 0.003(7)
C64 0.068(8) 0.049(8) 0.077(10) -0.012(7) 0.022(7) -0.008(6)
C65 0.072(9) 0.035(6) 0.092(11) -0.004(7) 0.008(9) -0.002(6)
C66 0.062(7) 0.046(7) 0.061(8) 0.015(6) 0.006(7) 0.003(5)
C67 0.076(9) 0.047(8) 0.065(9) 0.003(6) 0.016(7) -0.003(6)
C68 0.075(9) 0.047(7) 0.082(10) 0.002(7) 0.024(9) -0.008(6)
C69 0.088(12) 0.071(11) 0.052(8) -0.018(7) -0.014(8) 0.030(9)
C71 0.069(10) 0.071(11) 0.117(15) -0.032(10) 0.011(10) -0.034(9)
C54 0.083(9) 0.052(7) 0.055(8) 0.005(6) 0.010(8) 0.021(7)
loop_
_atom_type_symbol
_atom_type_description
_atom_type_scat_dispersion_real
_atom_type_scat_dispersion_imag
_atom_type_scat_source
C C 0.0181 0.0091 'International Tables Vol C Tables 4.2.6.8 and 6.1.1.4'
H H 0.0000 0.0000 'International Tables Vol C Tables 4.2.6.8 and 6.1.1.4'
O O 0.0492 0.0322 'International Tables Vol C Tables 4.2.6.8 and 6.1.1.4'
In In 0.0822 5.0449 'International Tables Vol C Tables 4.2.6.8 and 6.1.1.4'
Cl Cl 0.3639 0.7018 'International Tables Vol C Tables 4.2.6.8 and 6.1.1.4'
loop_
_geom_angle_atom_site_label_1
_geom_angle_atom_site_label_2
_geom_angle_atom_site_label_3
_geom_angle
_geom_angle_site_symmetry_1
_geom_angle_site_symmetry_3
O15 In1 O17 81.7(4) . .
O15 In1 O19 113.8(6) . .
O17 In1 O19 128.9(4) . .
O15 In1 O3 89.7(4) . .
O17 In1 O3 88.6(4) . .
O19 In1 O3 136.6(5) . .
O15 In1 O4 127.6(4) . .
O17 In1 O4 129.8(4) . .
O19 In1 O4 80.3(5) . .
O3 In1 O4 56.9(4) . .
O15 In1 O18 138.6(4) . .
O17 In1 O18 57.0(3) . .
O19 In1 O18 95.1(5) . .
O3 In1 O18 88.5(4) . .
O4 In1 O18 84.4(4) . .
O15 In1 O20 89.8(5) . .
O17 In1 O20 76.8(4) . .
O19 In1 O20 56.1(5) . .
O3 In1 O20 165.4(4) . .
O4 In1 O20 132.6(4) . .
O18 In1 O20 82.3(4) . .
O15 In1 O16 51.9(4) . .
O17 In1 O16 133.5(4) . .
O19 In1 O16 79.8(5) . .
O3 In1 O16 88.7(5) . .
O4 In1 O16 85.2(5) . .
O18 In1 O16 169.1(4) . .
O20 In1 O16 102.4(5) . .
O8 In2 O12 83.9(4) . .
O8 In2 O9 133.0(4) . .
O12 In2 O9 132.6(4) . .
O8 In2 O10 96.9(4) . .
O12 In2 O10 94.8(4) . .
O9 In2 O10 58.1(3) . .
O8 In2 O11 140.2(4) . .
O12 In2 O11 56.4(4) . .
O9 In2 O11 82.8(4) . .
O10 In2 O11 88.7(4) . .
Cl1 In2 O11 89.4(3) . .
O8 In2 O7 54.4(4) . .
O12 In2 O7 136.6(3) . .
O9 In2 O7 81.0(3) . .
O10 In2 O7 80.8(4) . .
Cl1 In2 O7 94.5(3) . .
O11 In2 O7 163.7(4) . .
O5 In3 O14 81.9(4) . .
O5 In3 O1 95.9(4) . .
O14 In3 O1 89.0(4) . .
O5 In3 O2 133.7(4) . .
O14 In3 O2 129.6(4) . .
O1 In3 O2 58.5(3) . .
O5 In3 O13 137.7(4) . .
O14 In3 O13 55.7(3) . .
O1 In3 O13 85.9(4) . .
O2 In3 O13 82.5(4) . .
Cl2 In3 O13 89.9(4) . .
O5 In3 O6 56.0(4) . .
O14 In3 O6 136.6(4) . .
O1 In3 O6 85.7(4) . .
O2 In3 O6 82.4(4) . .
Cl2 In3 O6 92.9(3) . .
O13 In3 O6 164.8(4) . .
C12 O1 In3 91.8(7) . .
C12 O2 In3 89.5(7) . .
C13 O3 In1 92.0(10) . .
C13 O4 In1 89.7(9) . .
C26 O5 In3 99.4(9) . .
C26 O6 In3 83.8(9) . .
C27 O7 In2 82.6(9) . .
C27 O8 In2 101.9(9) . .
C41 O9 In2 94.6(7) . .
C41 O10 In2 87.4(8) . .
C40 O11 In2 84.8(9) . .
C40 O12 In2 98.0(8) . .
C42 O13 In3 86.3(10) . .
C42 O14 In3 98.5(8) . .
C55 O15 In1 105.6(11) . .
C55 O16 In1 84.3(11) . .
C56 O17 In1 94.5(7) . .
C56 O18 In1 89.6(8) . .
C69 O19 In1 93.0(11) . .
C69 O20 In1 87.8(11) . .
C6 C1 C2 119.0(12) . .
C6 C1 C12 121.6(12) . .
C2 C1 C12 119.4(12) . .
C3 C2 C1 119.2(14) . .
C3 C2 H2A 120.4 . .
C1 C2 H2A 120.4 . .
C2 C3 C4 123.5(16) . .
C2 C3 H3A 118.3 . .
C4 C3 H3A 118.3 . .
C5 C4 C3 117.1(15) . .
C5 C4 C7 121.0(13) . .
C3 C4 C7 121.9(14) . .
C6 C5 C4 119.5(15) . .
C6 C5 H5A 120.2 . .
C4 C5 H5A 120.2 . .
C5 C6 C1 121.7(13) . .
C5 C6 H6A 119.1 . .
C1 C6 H6A 119.1 . .
C71 C7 C8 117.9(15) . .
C71 C7 C4 123.3(15) . .
C8 C7 C4 118.6(15) . .
C7 C8 C9 119.5(15) . .
C7 C8 H8A 120.3 . .
C9 C8 H8A 120.3 . .
C10 C9 C8 120.2(16) . .
C10 C9 H9A 119.9 . .
C8 C9 H9A 119.9 . .
C9 C10 C11 121.0(15) . .
C9 C10 C13 117.0(15) . .
C11 C10 C13 121.9(15) . .
C10 C11 C71 116.7(17) . .
C10 C11 H11A 121.6 . .
C71 C11 H11A 121.6 . .
O1 C12 O2 120.1(11) . .
O1 C12 C1 120.7(11) . .
O2 C12 C1 119.2(11) . .
O3 C13 O4 121.1(13) . .
O3 C13 C10 121.5(15) . .
O4 C13 C10 117.3(14) . .
C15 C14 C19 120.7(12) . .
C15 C14 C26 117.2(12) . .
C19 C14 C26 122.0(13) . .
C16 C15 C14 117.9(13) . .
C16 C15 H15A 121.0 . .
C14 C15 H15A 121.0 . .
C17 C16 C15 122.8(13) . .
C17 C16 H16A 118.6 . .
C15 C16 H16A 118.6 . .
C16 C17 C18 118.7(12) . .
C16 C17 C20 119.9(12) . .
C18 C17 C20 121.4(12) . .
C19 C18 C17 120.4(13) . .
C19 C18 H18A 119.8 . .
C17 C18 H18A 119.8 . .
C18 C19 C14 119.4(13) . .
C18 C19 H19A 120.3 . .
C14 C19 H19A 120.3 . .
C21 C20 C25 117.1(11) . .
C21 C20 C17 121.5(11) . .
C25 C20 C17 121.4(11) . .
C22 C21 C20 121.9(12) . .
C22 C21 H21A 119.0 . .
C20 C21 H21A 119.0 . .
C21 C22 C23 120.3(11) . .
C21 C22 H22A 119.8 . .
C23 C22 H22A 119.8 . .
C24 C23 C22 118.3(12) . .
C24 C23 C27 120.2(12) . .
C22 C23 C27 121.5(12) . .
C25 C24 C23 121.0(13) . .
C25 C24 H24A 119.5 . .
C23 C24 H24A 119.5 . .
C24 C25 C20 121.3(12) . .
C24 C25 H25A 119.3 . .
C20 C25 H25A 119.3 . .
O5 C26 O6 120.4(12) . .
O5 C26 C14 119.0(12) . .
O6 C26 C14 120.4(13) . .
O7 C27 O8 121.0(13) . .
O7 C27 C23 122.2(14) . .
O8 C27 C23 116.7(13) . .
C29 C28 C33 120.5(12) . .
C29 C28 C40 118.4(12) . .
C33 C28 C40 121.0(12) . .
C28 C29 C30 118.4(13) . .
C28 C29 H29A 120.8 . .
C30 C29 H29A 120.8 . .
C31 C30 C29 121.2(14) . .
C31 C30 H30A 119.4 . .
C29 C30 H30A 119.4 . .
C32 C31 C30 119.4(13) . .
C32 C31 C34 120.3(12) . .
C30 C31 C34 120.3(13) . .
C31 C32 C33 121.7(13) . .
C31 C32 H32A 119.1 . .
C33 C32 H32A 119.1 . .
C28 C33 C32 118.5(13) . .
C28 C33 H33A 120.7 . .
C32 C33 H33A 120.7 . .
C35 C34 C39 119.3(12) . .
C35 C34 C31 121.2(13) . .
C39 C34 C31 119.4(12) . .
C34 C35 C36 120.8(13) . .
C34 C35 H35A 119.6 . .
C36 C35 H35A 119.6 . .
C37 C36 C35 121.6(12) . .
C37 C36 H36A 119.2 . .
C35 C36 H36A 119.2 . .
C36 C37 C38 117.7(12) . .
C36 C37 C56 122.2(12) . 4_663
C38 C37 C56 120.0(12) . 4_663
C39 C38 C37 119.7(12) . .
C39 C38 H38A 120.1 . .
C37 C38 H38A 120.1 . .
C38 C39 C34 120.6(13) . .
C38 C39 H39A 119.7 . .
C34 C39 H39A 119.7 . .
O12 C40 O11 120.8(13) . .
O12 C40 C28 119.4(12) . .
O11 C40 C28 119.6(13) . .
O10 C41 O9 119.8(12) . .
O10 C41 C66 120.7(13) . 1_565
O9 C41 C66 119.3(11) . 1_565
O13 C42 O14 119.4(13) . .
O13 C42 C43 121.7(14) . .
O14 C42 C43 118.7(12) . .
C52 C43 C54 118.4(12) 4_667 .
C52 C43 C42 119.4(12) 4_667 .
C54 C43 C42 121.8(13) . .
C45 C44 C49 119.7(13) . .
C45 C44 C55 121.4(14) . .
C49 C44 C55 118.8(13) . .
C44 C45 C46 120.0(13) . .
C44 C45 H45A 120.0 . .
C46 C45 H45A 120.0 . .
C47 C46 C45 121.2(13) . .
C47 C46 H46A 119.4 . .
C45 C46 H46A 119.4 . .
C46 C47 C48 118.1(13) . .
C46 C47 C50 122.2(13) . .
C48 C47 C50 119.6(13) . .
C49 C48 C47 120.7(13) . .
C49 C48 H48A 119.7 . .
C47 C48 H48A 119.7 . .
C48 C49 C44 120.1(13) . .
C48 C49 H49A 120.0 . .
C44 C49 H49A 120.0 . .
C53 C50 C51 120.3(13) . .
C53 C50 C47 118.8(12) . .
C51 C50 C47 120.9(13) . .
C50 C51 C52 120.1(13) . .
C50 C51 H51A 119.9 . .
C52 C51 H51A 119.9 . .
C43 C52 C51 121.1(14) 4_663 .
C43 C52 H52A 119.4 4_663 .
C51 C52 H52A 119.4 . .
C50 C53 C54 119.3(13) . 4_663
C50 C53 H53A 120.4 . .
C54 C53 H53A 120.4 4_663 .
O15 C55 O16 118.1(15) . .
O15 C55 C44 120.5(15) . .
O16 C55 C44 121.3(16) . .
O18 C56 O17 118.9(11) . .
O18 C56 C37 121.2(12) . 4_667
O17 C56 C37 119.9(12) . 4_667
C62 C57 C58 118.8(13) . .
C62 C57 C69 123.8(14) . .
C58 C57 C69 117.4(15) . .
C59 C58 C57 120.2(16) . .
C59 C58 H58A 119.9 . .
C57 C58 H58A 119.9 . .
C58 C59 C60 122.8(16) . .
C58 C59 H59A 118.6 . .
C60 C59 H59A 118.6 . .
C59 C60 C61 118.4(15) . .
C59 C60 C63 120.6(14) . .
C61 C60 C63 120.9(14) . .
C60 C61 C62 118.5(16) . .
C60 C61 H61A 120.8 . .
C62 C61 H61A 120.8 . .
C57 C62 C61 121.1(15) . .
C57 C62 H62A 119.4 . .
C61 C62 H62A 119.4 . .
C64 C63 C68 116.2(14) . .
C64 C63 C60 121.3(14) . .
C68 C63 C60 122.1(15) . .
C65 C64 C63 122.7(15) . .
C65 C64 H64A 118.7 . .
C63 C64 H64A 118.7 . .
C64 C65 C66 121.7(16) . .
C64 C65 H65A 119.2 . .
C66 C65 H65A 119.2 . .
C67 C66 C65 117.5(14) . .
C67 C66 C41 122.9(12) . 1_545
C65 C66 C41 119.6(13) . 1_545
C68 C67 C66 120.8(14) . .
C68 C67 H67A 119.6 . .
C66 C67 H67A 119.6 . .
C67 C68 C63 120.7(14) . .
C67 C68 H68A 119.6 . .
C63 C68 H68A 119.6 . .
O19 C69 O20 123.2(16) . .
O19 C69 C57 121.5(16) . .
O20 C69 C57 115.3(17) . .
C7 C71 C11 124.5(17) . .
C7 C71 H71A 117.8 . .
C11 C71 H71A 117.8 . .
C43 C54 C53 120.4(13) . 4_667
C43 C54 H54A 119.8 . .
C53 C54 H54A 119.8 4_667 .
loop_
_geom_bond_atom_site_label_1
_geom_bond_atom_site_label_2
_geom_bond_distance
_geom_bond_site_symmetry_2
In1 O15 2.148(11) .
In1 O17 2.223(8) .
In1 O19 2.253(12) .
In1 O3 2.260(11) .
In1 O4 2.270(10) .
In1 O18 2.326(9) .
In1 O20 2.348(14) .
In1 O16 2.560(14) .
In2 O8 2.147(10) .
In2 O12 2.164(9) .
In2 O9 2.173(8) .
In2 O10 2.339(10) .
In2 O11 2.446(12) .
In2 O7 2.559(11) .
In3 O5 2.164(10) .
In3 O14 2.179(9) .
In3 O1 2.223(9) .
In3 O2 2.249(8) .
In3 O13 2.451(13) .
In3 O6 2.476(11) .
O1 C12 1.239(15) .
O2 C12 1.281(15) .
O3 C13 1.205(19) .
O4 C13 1.28(2) .
O5 C26 1.240(18) .
O6 C26 1.288(19) .
O7 C27 1.252(18) .
O8 C27 1.253(19) .
O9 C41 1.277(17) .
O10 C41 1.262(16) .
O11 C40 1.264(18) .
O12 C40 1.257(17) .
O13 C42 1.253(18) .
O14 C42 1.269(18) .
O15 C55 1.20(2) .
O16 C55 1.24(2) .
O17 C56 1.259(16) .
O18 C56 1.263(16) .
O19 C69 1.21(2) .
O20 C69 1.25(2) .
C1 C6 1.385(19) .
C1 C2 1.39(2) .
C1 C12 1.500(16) .
C2 C3 1.33(2) .
C2 H2A 0.9300 .
C3 C4 1.41(2) .
C3 H3A 0.9300 .
C4 C5 1.39(2) .
C4 C7 1.50(2) .
C5 C6 1.37(2) .
C5 H5A 0.9300 .
C6 H6A 0.9300 .
C7 C71 1.30(3) .
C7 C8 1.39(2) .
C8 C9 1.42(2) .
C8 H8A 0.9300 .
C9 C10 1.33(2) .
C9 H9A 0.9300 .
C10 C11 1.37(2) .
C10 C13 1.51(2) .
C11 C71 1.42(2) .
C11 H11A 0.9300 .
C14 C15 1.39(2) .
C14 C19 1.40(2) .
C14 C26 1.504(17) .
C15 C16 1.39(2) .
C15 H15A 0.9300 .
C16 C17 1.357(19) .
C16 H16A 0.9300 .
C17 C18 1.41(2) .
C17 C20 1.487(16) .
C18 C19 1.38(2) .
C18 H18A 0.9300 .
C19 H19A 0.9300 .
C20 C21 1.365(18) .
C20 C25 1.415(18) .
C21 C22 1.365(18) .
C21 H21A 0.9300 .
C22 C23 1.402(18) .
C22 H22A 0.9300 .
C23 C24 1.37(2) .
C23 C27 1.498(18) .
C24 C25 1.354(18) .
C24 H24A 0.9300 .
C25 H25A 0.9300 .
C28 C29 1.371(19) .
C28 C33 1.38(2) .
C28 C40 1.492(18) .
C29 C30 1.42(2) .
C29 H29A 0.9300 .
C30 C31 1.35(2) .
C30 H30A 0.9300 .
C31 C32 1.34(2) .
C31 C34 1.482(16) .
C32 C33 1.41(2) .
C32 H32A 0.9300 .
C33 H33A 0.9300 .
C34 C35 1.34(2) .
C34 C39 1.42(2) .
C35 C36 1.384(19) .
C35 H35A 0.9300 .
C36 C37 1.372(19) .
C36 H36A 0.9300 .
C37 C38 1.434(18) .
C37 C56 1.454(17) 4_663
C38 C39 1.36(2) .
C38 H38A 0.9300 .
C39 H39A 0.9300 .
C41 C66 1.473(19) 1_565
C42 C43 1.467(18) .
C43 C52 1.38(2) 4_667
C43 C54 1.381(19) .
C44 C45 1.37(2) .
C44 C49 1.39(2) .
C44 C55 1.490(19) .
C45 C46 1.39(2) .
C45 H45A 0.9300 .
C46 C47 1.37(2) .
C46 H46A 0.9300 .
C47 C48 1.41(2) .
C47 C50 1.496(18) .
C48 C49 1.37(2) .
C48 H48A 0.9300 .
C49 H49A 0.9300 .
C50 C53 1.36(2) .
C50 C51 1.38(2) .
C51 C52 1.38(2) .
C51 H51A 0.9300 .
C52 C43 1.38(2) 4_663
C52 H52A 0.9300 .
C53 C54 1.42(2) 4_663
C53 H53A 0.9300 .
C56 C37 1.454(17) 4_667
C57 C62 1.36(2) .
C57 C58 1.43(2) .
C57 C69 1.512(19) .
C58 C59 1.33(2) .
C58 H58A 0.9300 .
C59 C60 1.39(2) .
C59 H59A 0.9300 .
C60 C61 1.41(2) .
C60 C63 1.49(2) .
C61 C62 1.425(19) .
C61 H61A 0.9300 .
C62 H62A 0.9300 .
C63 C64 1.38(2) .
C63 C68 1.42(2) .
C64 C65 1.32(2) .
C64 H64A 0.9300 .
C65 C66 1.398(19) .
C65 H65A 0.9300 .
C66 C67 1.38(2) .
C66 C41 1.473(19) 1_545
C67 C68 1.37(2) .
C67 H67A 0.9300 .
C68 H68A 0.9300 .
C71 H71A 0.9300 .
C54 C53 1.42(2) 4_667
C54 H54A 0.9300 .
