#------------------------------------------------------------------------------
#$Date: 2019-11-24 05:34:54 +0200 (Sun, 24 Nov 2019) $
#$Revision: 236841 $
#$URL: file:///home/coder/svn-repositories/cod/cif/7/70/21/7702191.cif $
#------------------------------------------------------------------------------
#
# This file is available in the Crystallography Open Database (COD),
# http://www.crystallography.net/
#
# All data on this site have been placed in the public domain by the
# contributors.
#
data_7702191
loop_
_publ_author_name
'Li, Yuan-Han'
'Wang, Sue-Lein'
'Su, Yu-Chia'
'Ko, Bao-Tsan'
'Tsai, Chen-Yen'
'Lin, Chia-Her'
_publ_section_title
;
 Microporous 2D indium metal-organic frameworks for selective
 CO<sub>2</sub> capture and their application in the catalytic
 CO<sub>2</sub>-cycloaddition of epoxides.
;
_journal_issue                   28
_journal_name_full
'Dalton transactions (Cambridge, England : 2003)'
_journal_page_first              9474
_journal_page_last               9481
_journal_paper_doi               10.1039/c8dt01405a
_journal_volume                  47
_journal_year                    2018
_chemical_formula_sum            'C22 H12 In N0 O10 S'
_chemical_formula_weight         583.20
_space_group_crystal_system      orthorhombic
_space_group_IT_number           68
_space_group_name_Hall           '-C 2a 2ac'
_space_group_name_H-M_alt        'C c c a :2'
_atom_sites_solution_hydrogens   geom
_audit_creation_method           SHELXL-2014/7
_audit_update_record
;
2018-06-07 deposited with the CCDC.
2018-06-13 downloaded from the CCDC.
;
_cell_angle_alpha                90
_cell_angle_beta                 90
_cell_angle_gamma                90
_cell_formula_units_Z            8
_cell_length_a                   14.5653(3)
_cell_length_b                   21.0484(5)
_cell_length_c                   23.9140(5)
_cell_measurement_reflns_used    4507
_cell_measurement_temperature    295(2)
_cell_measurement_theta_max      28.31
_cell_measurement_theta_min      1.70
_cell_volume                     7331.5(3)
_computing_cell_refinement       'SAINT V8.34A (Bruker AXS Inc., 2013)'
_computing_data_collection       'APEX2 (Bruker AXS, 2010)'
_computing_data_reduction        'SAINT V8.34A (Bruker AXS Inc., 2013)'
_computing_molecular_graphics    'SHELXTL (Sheldrick, 2008)'
_computing_publication_material  SHELXTL
_computing_structure_refinement  'SHELXL-2014/6 (Sheldrick, 2014)'
_computing_structure_solution    'SHELXS-97 (Sheldrick, 2008)'
_diffrn_ambient_temperature      295(2)
_diffrn_detector_area_resol_mean 8.3333
_diffrn_measured_fraction_theta_full 0.994
_diffrn_measured_fraction_theta_max 0.985
_diffrn_measurement_device_type  'Bruker APEX-II CCD'
_diffrn_measurement_method       '\f and \w scans'
_diffrn_radiation_type           MoK\a
_diffrn_radiation_wavelength     0.71073
_diffrn_reflns_av_R_equivalents  0.1118
_diffrn_reflns_av_unetI/netI     0.1144
_diffrn_reflns_Laue_measured_fraction_full 0.994
_diffrn_reflns_Laue_measured_fraction_max 0.985
_diffrn_reflns_limit_h_max       18
_diffrn_reflns_limit_h_min       -18
_diffrn_reflns_limit_k_max       27
_diffrn_reflns_limit_k_min       -20
_diffrn_reflns_limit_l_max       31
_diffrn_reflns_limit_l_min       -31
_diffrn_reflns_number            31740
_diffrn_reflns_point_group_measured_fraction_full 0.994
_diffrn_reflns_point_group_measured_fraction_max 0.985
_diffrn_reflns_theta_full        25.242
_diffrn_reflns_theta_max         28.306
_diffrn_reflns_theta_min         1.703
_exptl_absorpt_coefficient_mu    0.736
_exptl_absorpt_correction_T_max  0.867
_exptl_absorpt_correction_T_min  0.837
_exptl_absorpt_correction_type   multi-scan
_exptl_absorpt_process_details   'SADABS V2014/4 (Bruker AXS Inc.)'
_exptl_crystal_colour            colorless
_exptl_crystal_density_diffrn    1.057
_exptl_crystal_density_meas      ?
_exptl_crystal_density_method    'not measured'
_exptl_crystal_description       columnar
_exptl_crystal_F_000             2312
_exptl_crystal_size_max          0.250
_exptl_crystal_size_mid          0.200
_exptl_crystal_size_min          0.200
_refine_diff_density_max         1.695
_refine_diff_density_min         -1.607
_refine_diff_density_rms         0.197
_refine_ls_extinction_method     none
_refine_ls_goodness_of_fit_ref   1.025
_refine_ls_hydrogen_treatment    constr
_refine_ls_matrix_type           full
_refine_ls_number_parameters     156
_refine_ls_number_reflns         4507
_refine_ls_number_restraints     0
_refine_ls_restrained_S_all      1.025
_refine_ls_R_factor_all          0.1408
_refine_ls_R_factor_gt           0.0876
_refine_ls_shift/su_max          0.003
_refine_ls_shift/su_mean         0.000
_refine_ls_structure_factor_coef Fsqd
_refine_ls_weighting_details
'w=1/[\s^2^(Fo^2^)+(0.1518P)^2^] where P=(Fo^2^+2Fc^2^)/3'
_refine_ls_weighting_scheme      calc
_refine_ls_wR_factor_gt          0.2662
_refine_ls_wR_factor_ref         0.2852
_reflns_Friedel_coverage         0.000
_reflns_number_gt                2122
_reflns_number_total             4507
_reflns_threshold_expression     'I > 2\s(I)'
_cod_data_source_file            c8dt01405a2.cif
_cod_data_source_block           2
_cod_depositor_comments
;
The following automatic conversions were performed:

data item '_exptl_crystal_density_meas' value 'not measured' was
changed to '?' -- the value is perceived as not measured.

Automatic conversion script
Id: cif_fix_values 6909 2019-04-08 15:41:33Z antanas 
;
_cod_original_sg_symbol_Hall     '-C 2b 2bc'
_cod_original_sg_symbol_H-M      'C c c a'
_cod_database_code               7702191
_shelx_shelxl_version_number     2014/7
_shelx_space_group_comment
;
The symmetry employed for this shelxl refinement is uniquely defined
by the following loop, which should always be used as a source of
symmetry information in preference to the above space-group names.
They are only intended as comments.
;
_shelx_estimated_absorpt_t_min   0.837
_shelx_estimated_absorpt_t_max   0.867
_shelx_res_file
;

    insba_0m_sq.res created by SHELXL-2014/7


TITL InSBA_0m in Ccca
CELL 0.71073  14.5653  21.0484  23.9140  90.000  90.000  90.000
ZERR   8.00   0.0003   0.0005   0.0005   0.000   0.000   0.000
LATT  7
SYMM 0.5-X, -Y, Z
SYMM -X, Y, 0.5-Z
SYMM 0.5+X, -Y, 0.5-Z
SFAC C H O S IN N
UNIT 176 96 80 8 8 0
TEMP 22.000

ACTA

OMIT 2   0   4
OMIT 1   1   1
OMIT 1   3   1
OMIT 1   1   5
OMIT 4   0   4
OMIT 0   4   2
OMIT 0   0   6
OMIT 0   2   0
OMIT 2   0   2
OMIT 1   3   3
OMIT 3   1   1
OMIT 4   4   0
OMIT 2   4   1
OMIT 0   6   2
OMIT 2   4   3
OMIT 2   6   5
OMIT 3   3   1
FREE IN1 C8
FREE IN1 C1

SIZE 0.25 0.20 0.20

L.S. 5 0   58
BOND $H
FMAP 2
PLAN 20

ABIN
WGHT    0.151800
FVAR       0.74405   0.50000
IN1   5    0.250000    0.000000    0.328763    10.50000    0.03043    0.04829 =
         0.02856    0.00000    0.00000   -0.00244
S1    4    0.000000   -0.250000    0.086897    10.50000    0.06416    0.04946 =
         0.03028    0.00000    0.00000   -0.01903
O1    3    0.247359   -0.096010    0.281700    11.00000    0.04992    0.06085 =
         0.04417   -0.00940   -0.01165   -0.00374
O2    3    0.142995   -0.022640    0.263038    11.00000    0.05957    0.04231 =
         0.05078   -0.01476   -0.00471    0.00187
O3    3   -0.067663   -0.215870    0.057039    11.00000    0.10801    0.07479 =
         0.03478    0.00542   -0.02616   -0.02914
O4    3    0.373874   -0.046975    0.374553    11.00000    0.05205    0.05446 =
         0.04236   -0.01066   -0.01404    0.00165
O5    3    0.329803    0.048411    0.396335    11.00000    0.04781    0.04977 =
         0.04237    0.00630   -0.01497    0.00187
C1    1    0.176736   -0.075597    0.254946    11.00000    0.04980    0.05779 =
         0.02260    0.00165   -0.00631   -0.02569
C2    1    0.135574   -0.119478    0.211117    11.00000    0.05082    0.03914 =
         0.02526    0.00682    0.00896   -0.00695
C3    1    0.173878   -0.178311    0.199440    11.00000    0.04513    0.05733 =
         0.04916   -0.00863   -0.00581    0.01357
AFIX  43
H3B   2    0.228168   -0.190890    0.216656    11.00000   -1.20000
AFIX   0
C4    1    0.130176   -0.218020    0.161818    11.00000    0.05761    0.06851 =
         0.05941   -0.02529    0.00033   -0.00218
AFIX  43
H4A   2    0.152543   -0.258820    0.155716    11.00000   -1.20000
AFIX   0
C5    1    0.054332   -0.197473    0.133638    11.00000    0.03413    0.04495 =
         0.03501   -0.00054   -0.00165   -0.00779
C6    1    0.015079   -0.139573    0.144860    11.00000    0.03783    0.05239 =
         0.03401   -0.00170   -0.01479    0.00323
AFIX  43
H6A   2   -0.037350   -0.126550    0.125853    11.00000   -1.20000
AFIX   0
C7    1    0.054690   -0.100995    0.184812    11.00000    0.03562    0.04991 =
         0.05127   -0.00402   -0.00183    0.00768
AFIX  43
H7A   2    0.027234   -0.062547    0.194169    11.00000   -1.20000
AFIX   0
C8    1    0.378421    0.002814    0.405428    11.00000    0.03485    0.05577 =
         0.03667    0.00232   -0.00596   -0.01375
C9    1    0.442346    0.001597    0.453818    11.00000    0.04318    0.04563 =
         0.03458    0.00932   -0.00645   -0.00282
C10   1    0.494060   -0.052199    0.466919    11.00000    0.07050    0.04086 =
         0.04825   -0.00441   -0.01133   -0.00276
AFIX  43
H10A  2    0.490386   -0.087620    0.443780    11.00000   -1.20000
AFIX   0
C11   1    0.450360    0.054293    0.487463    11.00000    0.05718    0.04587 =
         0.05034   -0.00610   -0.02111    0.00693
AFIX  43
H11A  2    0.417947    0.091141    0.479051    11.00000   -1.20000

AFIX   0
HKLF 4

REM  InSBA_0m in Ccca
REM R1 =  0.0876 for    2122 Fo > 4sig(Fo)  and  0.1408 for all    4507 data
REM    156 parameters refined using      0 restraints

END

WGHT      0.1518      0.0000

REM Highest difference peak  1.695,  deepest hole -1.607,  1-sigma level  0.197
Q1    1   0.2045  0.0008  0.3281  11.00000  0.05    1.69
Q2    1   0.2500  0.0000  0.3525  10.50000  0.05    1.61
Q3    1   0.2468  0.0092  0.3130  11.00000  0.05    1.36
Q4    1   0.1608 -0.2120  0.1557  11.00000  0.05    0.73
Q5    1   0.3564  0.0538  0.3767  11.00000  0.05    0.72
Q6    1   0.2769 -0.0918  0.2897  11.00000  0.05    0.66
Q7    1   0.3537 -0.0548  0.3761  11.00000  0.05    0.65
Q8    1   0.3381 -0.2164  0.1590  11.00000  0.05    0.58
Q9    1   0.3439 -0.0072  0.4057  11.00000  0.05    0.55
Q10   1   0.3137  0.0468  0.4211  11.00000  0.05    0.54
Q11   1   0.3353  0.0178  0.4030  11.00000  0.05    0.54
Q12   1   0.3402  0.0644  0.4213  11.00000  0.05    0.54
Q13   1   0.3944  0.0021  0.3833  11.00000  0.05    0.53
Q14   1   0.3591 -0.2248  0.1393  11.00000  0.05    0.53
Q15   1   0.1016 -0.0978  0.1904  11.00000  0.05    0.53
Q16   1   0.3549 -0.0206  0.4019  11.00000  0.05    0.52
Q17   1   0.4305 -0.2500  0.2500  10.50000  0.05    0.51
Q18   1   0.2264 -0.0932  0.2910  11.00000  0.05    0.51
Q19   1   0.3821 -0.2364  0.1298  11.00000  0.05    0.51
Q20   1   0.1178 -0.0211  0.3055  11.00000  0.05    0.50
;
_shelx_res_checksum              15455
_shelx_fab_file
;
    0    0    2    -27.69      0.00
    0    0    4     -2.53      0.00
    0    0    8    -55.58      0.00
    0    0   10     17.60      0.00
    0    0   12      3.28      0.00
    0    0   14     13.66      0.00
    0    0   16     -3.80      0.00
    0    0   18    -18.13      0.00
    0    0   20      7.91      0.00
    0    0   22     17.36      0.00
    0    0   24     -1.39      0.00
    0    0   26     -2.80      0.00
    0    0   28     22.74      0.00
    0    0   30     -8.39      0.00
    0    2    0   -298.26      0.00
    0    2    2    -31.69      0.00
    0    2    4     47.48      0.00
    0    2    6      8.97      0.00
    0    2    8     56.36      0.00
    0    2   10     -8.58      0.00
    0    2   12    -20.25      0.00
    0    2   14     17.12      0.00
    0    2   16     -2.69      0.00
    0    2   18     -5.95      0.00
    0    2   20      9.14      0.00
    0    2   22     -6.54      0.00
    0    2   24      1.41      0.00
    0    2   26      0.54      0.00
    0    2   28     -5.61      0.00
    0    2   30     11.85      0.00
    0    4    0     16.54      0.00
    0    4    4   -100.94      0.00
    0    4    6     20.70      0.00
    0    4    8    -38.11      0.00
    0    4   10     25.75      0.00
    0    4   12     31.15      0.00
    0    4   14    -14.60      0.00
    0    4   16     -2.55      0.00
    0    4   18     -6.03      0.00
    0    4   20      3.54      0.00
    0    4   22      2.85      0.00
    0    4   24     -9.66      0.00
    0    4   26      2.70      0.00
    0    4   28      6.05      0.00
    0    4   30     -5.54      0.00
    0    6    0     -2.90      0.00
    0    6    2     56.52      0.00
    0    6    4     -5.13      0.00
    0    6    6      7.67      0.00
    0    6    8     29.22      0.00
    0    6   10    -33.56      0.00
    0    6   12     -9.56      0.00
    0    6   14      3.31      0.00
    0    6   16      2.38      0.00
    0    6   18      3.72      0.00
    0    6   20     -1.34      0.00
    0    6   22     -3.11      0.00
    0    6   24     -7.27      0.00
    0    6   26     -0.98      0.00
    0    6   28     -5.73      0.00
    0    6   30      0.65      0.00
    0    8    0    -21.88      0.00
    0    8    2    -51.51      0.00
    0    8    4     21.87      0.00
    0    8    6      4.00      0.00
    0    8    8     -6.35      0.00
    0    8   10     26.32      0.00
    0    8   12      4.99      0.00
    0    8   14     -5.82      0.00
    0    8   16      8.51      0.00
    0    8   18      1.06      0.00
    0    8   20     -0.74      0.00
    0    8   22      0.01      0.00
    0    8   24     -7.44      0.00
    0    8   26      6.15      0.00
    0    8   28      8.61      0.00
    0    8   30     -1.10      0.00
    0   10    0     53.54      0.00
    0   10    2      1.17      0.00
    0   10    4    -15.75      0.00
    0   10    6      4.27      0.00
    0   10    8     -7.84      0.00
    0   10   10     -6.69      0.00
    0   10   12      0.02      0.00
    0   10   14      8.32      0.00
    0   10   16     -1.66      0.00
    0   10   18     -1.77      0.00
    0   10   20      0.52      0.00
    0   10   22     12.73      0.00
    0   10   24      1.47      0.00
    0   10   26      5.75      0.00
    0   10   28     -7.11      0.00
    0   12    0    -23.30      0.00
    0   12    2      4.01      0.00
    0   12    4     20.46      0.00
    0   12    6      0.95      0.00
    0   12    8      6.62      0.00
    0   12   10      0.55      0.00
    0   12   12     -3.83      0.00
    0   12   14     -5.88      0.00
    0   12   16     -1.52      0.00
    0   12   18      2.41      0.00
    0   12   20     -2.50      0.00
    0   12   22     -7.96      0.00
    0   12   24     -2.96      0.00
    0   12   26      1.40      0.00
    0   12   28     19.43      0.00
    0   14    0     -0.59      0.00
    0   14    2      0.40      0.00
    0   14    4    -16.85      0.00
    0   14    6     -2.47      0.00
    0   14    8      0.82      0.00
    0   14   10     -0.18      0.00
    0   14   12     14.78      0.00
    0   14   14      0.25      0.00
    0   14   16     -0.98      0.00
    0   14   18     -4.40      0.00
    0   14   20      0.86      0.00
    0   14   22      2.31      0.00
    0   14   24      1.96      0.00
    0   14   26     -3.13      0.00
    0   16    0     -6.55      0.00
    0   16    2     -1.24      0.00
    0   16    4      2.05      0.00
    0   16    6      8.48      0.00
    0   16    8      1.58      0.00
    0   16   10    -16.66      0.00
    0   16   12     -5.39      0.00
    0   16   14      0.54      0.00
    0   16   16      0.42      0.00
    0   16   18     -3.41      0.00
    0   16   20     -3.13      0.00
    0   16   22      5.03      0.00
    0   16   24      4.32      0.00
    0   16   26      3.55      0.00
    0   18    0      1.52      0.00
    0   18    2     -1.41      0.00
    0   18    4      4.42      0.00
    0   18    6     -4.62      0.00
    0   18    8     -7.56      0.00
    0   18   10     13.75      0.00
    0   18   12    -12.37      0.00
    0   18   14     -3.69      0.00
    0   18   16      2.22      0.00
    0   18   18     -1.26      0.00
    0   18   20     -0.94      0.00
    0   18   22     -5.76      0.00
    0   18   24     -2.58      0.00
    0   20    0     -0.76      0.00
    0   20    2     -7.02      0.00
    0   20    4      0.04      0.00
    0   20    6      3.18      0.00
    0   20    8      6.06      0.00
    0   20   10      2.05      0.00
    0   20   12     10.33      0.00
    0   20   14      3.84      0.00
    0   20   16     -1.93      0.00
    0   20   18      0.16      0.00
    0   20   20      2.13      0.00
    0   20   22     -3.20      0.00
    0   22    0      3.25      0.00
    0   22    2      6.75      0.00
    0   22    4      5.09      0.00
    0   22    6     16.34      0.00
    0   22    8     -2.41      0.00
    0   22   10      1.49      0.00
    0   22   12     -5.57      0.00
    0   22   14      1.67      0.00
    0   22   16     -6.36      0.00
    0   22   18      3.84      0.00
    0   24    0      0.34      0.00
    0   24    2      8.52      0.00
    0   24    4     11.59      0.00
    0   24    6      3.05      0.00
    0   24    8      7.41      0.00
    0   24   10      1.22      0.00
    0   24   12      4.27      0.00
    0   24   14     -0.63      0.00
    0   24   16      2.39      0.00
    0   26    0     -6.38      0.00
    0   26    2     -8.29      0.00
    0   26    4      2.88      0.00
    0   26    6      2.02      0.00
    0   26    8      1.71      0.00
    0   26   10      5.16      0.00
    0   26   12     -8.51      0.00
    1    1    2    -67.12      0.00
    1    1    3    -16.90      0.00
    1    1    4    -14.16      0.00
    1    1    6      0.48      0.00
    1    1    7     -9.99      0.00
    1    1    8     16.38      0.00
    1    1    9     34.83      0.00
    1    1   10      1.29      0.00
    1    1   11      1.04      0.00
    1    1   12      2.12      0.00
    1    1   13     -6.50      0.00
    1    1   14     -1.07      0.00
    1    1   15      1.76      0.00
    1    1   16    -13.33      0.00
    1    1   17     -4.17      0.00
    1    1   18      3.04      0.00
    1    1   19      4.43      0.00
    1    1   20      3.57      0.00
    1    1   21      6.79      0.00
    1    1   22     -5.03      0.00
    1    1   23     -3.80      0.00
    1    1   24     -0.88      0.00
    1    1   25      0.30      0.00
    1    1   26      3.43      0.00
    1    1   27      5.92      0.00
    1    1   28      2.78      0.00
    1    1   29    -11.90      0.00
    1    1   30     -2.72      0.00
    1    1   31     -4.27      0.00
    1    3    2    -91.34      0.00
    1    3    3    130.25      0.00
    1    3    4     -5.97      0.00
    1    3    5    -31.86      0.00
    1    3    6     -4.17      0.00
    1    3    7     27.92      0.00
    1    3    8    -24.63      0.00
    1    3    9    -29.20      0.00
    1    3   10      3.62      0.00
    1    3   11    -13.18      0.00
    1    3   12      1.99      0.00
    1    3   13     24.92      0.00
    1    3   14      2.25      0.00
    1    3   15     -7.61      0.00
    1    3   16     -3.61      0.00
    1    3   17      1.87      0.00
    1    3   18      4.25      0.00
    1    3   19      0.13      0.00
    1    3   20      7.34      0.00
    1    3   21     -7.14      0.00
    1    3   22     -7.00      0.00
    1    3   23      1.73      0.00
    1    3   24     -2.44      0.00
    1    3   25     -7.50      0.00
    1    3   26      1.10      0.00
    1    3   27      1.28      0.00
    1    3   28      0.51      0.00
    1    3   29      5.61      0.00
    1    3   30      3.01      0.00
    1    3   31      4.50      0.00
    1    5    1      3.00      0.00
    1    5    2     80.79      0.00
    1    5    3    -33.12      0.00
    1    5    4    -24.38      0.00
    1    5    5     26.25      0.00
    1    5    6     22.60      0.00
    1    5    7    -15.22      0.00
    1    5    8     15.16      0.00
    1    5    9     32.70      0.00
    1    5   10     -4.92      0.00
    1    5   11      0.79      0.00
    1    5   12     -4.03      0.00
    1    5   13    -12.50      0.00
    1    5   14     -8.02      0.00
    1    5   15     -0.73      0.00
    1    5   16     -1.48      0.00
    1    5   17     -3.61      0.00
    1    5   18     -5.26      0.00
    1    5   19      5.07      0.00
    1    5   20     -7.31      0.00
    1    5   21     -1.15      0.00
    1    5   22     -2.53      0.00
    1    5   23     -2.70      0.00
    1    5   24      3.34      0.00
    1    5   25     -0.35      0.00
    1    5   26      1.01      0.00
    1    5   27     -0.70      0.00
    1    5   28     -4.24      0.00
    1    5   29     -2.80      0.00
    1    5   30     -4.73      0.00
    1    5   31     -1.52      0.00
    1    7    1     35.50      0.00
    1    7    2    -40.55      0.00
    1    7    3    -37.40      0.00
    1    7    4     34.68      0.00
    1    7    5     10.41      0.00
    1    7    6     -5.39      0.00
    1    7    7      3.13      0.00
    1    7    8     -8.95      0.00
    1    7    9    -23.91      0.00
    1    7   10      4.53      0.00
    1    7   11      8.61      0.00
    1    7   12    -11.55      0.00
    1    7   13      2.63      0.00
    1    7   14      0.50      0.00
    1    7   15     -0.98      0.00
    1    7   16      4.73      0.00
    1    7   17      4.18      0.00
    1    7   18     -1.56      0.00
    1    7   19      0.14      0.00
    1    7   20      1.44      0.00
    1    7   21     -2.54      0.00
    1    7   22    -10.59      0.00
    1    7   23      2.74      0.00
    1    7   24     -5.96      0.00
    1    7   25     -2.44      0.00
    1    7   26      3.21      0.00
    1    7   27     -1.77      0.00
    1    7   28     -0.89      0.00
    1    7   29     -1.36      0.00
    1    7   30     -0.44      0.00
    1    9    1      6.27      0.00
    1    9    2     10.23      0.00
    1    9    3     16.38      0.00
    1    9    4    -14.41      0.00
    1    9    5     -6.46      0.00
    1    9    6     -9.40      0.00
    1    9    7      1.46      0.00
    1    9    8     -8.46      0.00
    1    9    9      8.08      0.00
    1    9   10     -9.01      0.00
    1    9   11     -3.85      0.00
    1    9   12     13.90      0.00
    1    9   13     -3.99      0.00
    1    9   14      5.61      0.00
    1    9   15      7.06      0.00
    1    9   16     -4.41      0.00
    1    9   17     -2.19      0.00
    1    9   18     -1.16      0.00
    1    9   19     -0.15      0.00
    1    9   20     -1.02      0.00
    1    9   21     -0.59      0.00
    1    9   22      2.97      0.00
    1    9   23      5.49      0.00
    1    9   24      1.93      0.00
    1    9   25      8.87      0.00
    1    9   26      0.63      0.00
    1    9   27      2.36      0.00
    1    9   28     -5.70      0.00
    1    9   29     -3.94      0.00
    1    9   30      1.42      0.00
    1   11    1    -21.38      0.00
    1   11    2    -11.37      0.00
    1   11    3     -6.68      0.00
    1   11    4     13.87      0.00
    1   11    5      9.37      0.00
    1   11    6      6.54      0.00
    1   11    7     -4.77      0.00
    1   11    8     11.09      0.00
    1   11    9      7.38      0.00
    1   11   10     11.54      0.00
    1   11   11      1.53      0.00
    1   11   12    -18.56      0.00
    1   11   13      1.66      0.00
    1   11   14     -7.53      0.00
    1   11   15     -3.80      0.00
    1   11   16     -1.38      0.00
    1   11   17     -3.80      0.00
    1   11   18     -2.13      0.00
    1   11   19     -1.50      0.00
    1   11   20      0.93      0.00
    1   11   21      4.93      0.00
    1   11   22     -0.26      0.00
    1   11   23     -1.91      0.00
    1   11   24      4.56      0.00
    1   11   25     -0.53      0.00
    1   11   26      8.13      0.00
    1   11   27    -12.04      0.00
    1   11   28     -0.11      0.00
    1   11   29      2.82      0.00
    1   13    1      4.66      0.00
    1   13    2      6.07      0.00
    1   13    3     14.92      0.00
    1   13    4     -4.20      0.00
    1   13    5    -10.17      0.00
    1   13    6      2.90      0.00
    1   13    7     -2.45      0.00
    1   13    8    -13.49      0.00
    1   13    9      0.51      0.00
    1   13   10     -5.86      0.00
    1   13   11     -8.54      0.00
    1   13   12     11.10      0.00
    1   13   13      3.47      0.00
    1   13   14     -0.18      0.00
    1   13   15      1.74      0.00
    1   13   16     -0.66      0.00
    1   13   17      4.33      0.00
    1   13   18      0.39      0.00
    1   13   19     -3.12      0.00
    1   13   20      0.17      0.00
    1   13   21      1.48      0.00
    1   13   22      2.52      0.00
    1   13   23      1.18      0.00
    1   13   24     -4.00      0.00
    1   13   25      9.13      0.00
    1   13   26     -0.31      0.00
    1   13   27      3.73      0.00
    1   13   28      6.35      0.00
    1   15    1      2.35      0.00
    1   15    2      0.94      0.00
    1   15    3     -5.99      0.00
    1   15    4      0.74      0.00
    1   15    5     -0.35      0.00
    1   15    6     -4.32      0.00
    1   15    7      4.03      0.00
    1   15    8      5.75      0.00
    1   15    9      2.67      0.00
    1   15   10      3.46      0.00
    1   15   11      4.25      0.00
    1   15   12     -8.79      0.00
    1   15   13     -8.49      0.00
    1   15   14     -0.77      0.00
    1   15   15      1.31      0.00
    1   15   16     -0.25      0.00
    1   15   17     -1.20      0.00
    1   15   18     -7.12      0.00
    1   15   19      1.46      0.00
    1   15   20      4.40      0.00
    1   15   21     -2.62      0.00
    1   15   22     -1.00      0.00
    1   15   23     -0.28      0.00
    1   15   24      5.22      0.00
    1   15   25     -0.89      0.00
    1   15   26      2.85      0.00
    1   17    1      2.27      0.00
    1   17    2      1.10      0.00
    1   17    3     -0.22      0.00
    1   17    4      2.21      0.00
    1   17    5      2.64      0.00
    1   17    6      2.23      0.00
    1   17    7     -0.81      0.00
    1   17    8     -2.58      0.00
    1   17    9     -9.84      0.00
    1   17   10     -2.07      0.00
    1   17   11      9.03      0.00
    1   17   12      3.60      0.00
    1   17   13     -0.27      0.00
    1   17   14      0.00      0.00
    1   17   15     -1.07      0.00
    1   17   16     -0.18      0.00
    1   17   17      0.06      0.00
    1   17   18      1.94      0.00
    1   17   19     -1.29      0.00
    1   17   20     -0.36      0.00
    1   17   21      3.16      0.00
    1   17   22      0.60      0.00
    1   17   23     -4.28      0.00
    1   17   24     -1.27      0.00
    1   17   25     -2.21      0.00
    1   19    1      3.17      0.00
    1   19    2      2.20      0.00
    1   19    3     -1.68      0.00
    1   19    4      1.70      0.00
    1   19    5     -2.27      0.00
    1   19    6     -6.22      0.00
    1   19    7      0.26      0.00
    1   19    8     -8.56      0.00
    1   19    9      6.10      0.00
    1   19   10     -7.28      0.00
    1   19   11     -7.99      0.00
    1   19   12     -3.99      0.00
    1   19   13     -0.35      0.00
    1   19   14     -2.43      0.00
    1   19   15      5.56      0.00
    1   19   16     -5.45      0.00
    1   19   17      2.41      0.00
    1   19   18     -3.98      0.00
    1   19   19      3.85      0.00
    1   19   20      5.15      0.00
    1   19   21      1.23      0.00
    1   19   22      3.20      0.00
    1   19   23     -0.97      0.00
    1   21    1     -7.51      0.00
    1   21    2     -2.11      0.00
    1   21    3      1.07      0.00
    1   21    4     -1.69      0.00
    1   21    5     -4.41      0.00
    1   21    6     -0.88      0.00
    1   21    7      3.28      0.00
    1   21    8     -0.85      0.00
    1   21    9     -3.54      0.00
    1   21   10     -3.33      0.00
    1   21   11     -3.31      0.00
    1   21   12     -2.76      0.00
    1   21   13     -5.01      0.00
    1   21   14      7.25      0.00
    1   21   15     -0.81      0.00
    1   21   16      6.48      0.00
    1   21   17     -3.69      0.00
    1   21   18      6.69      0.00
    1   21   19     -1.35      0.00
    1   21   20     -3.00      0.00
    1   21   21     -4.88      0.00
    1   23    1     -2.01      0.00
    1   23    2      2.62      0.00
    1   23    3     -0.18      0.00
    1   23    4     -2.55      0.00
    1   23    5      8.07      0.00
    1   23    6     -7.65      0.00
    1   23    7     -4.61      0.00
    1   23    8     -5.38      0.00
    1   23    9      1.77      0.00
    1   23   10     -2.27      0.00
    1   23   11     -1.06      0.00
    1   23   12     -3.45      0.00
    1   23   13      4.59      0.00
    1   23   14     -8.94      0.00
    1   23   15      1.82      0.00
    1   23   16     -0.13      0.00
    1   23   17      7.92      0.00
    1   23   18      1.22      0.00
    1   25    1      4.29      0.00
    1   25    2      5.86      0.00
    1   25    3     -4.42      0.00
    1   25    4      3.30      0.00
    1   25    5     -4.81      0.00
    1   25    6     -4.69      0.00
    1   25    7      0.59      0.00
    1   25    8     -3.66      0.00
    1   25    9      2.32      0.00
    1   25   10     -6.66      0.00
    1   25   11      2.22      0.00
    1   25   12     -1.89      0.00
    1   25   13     -3.65      0.00
    1   25   14     -2.76      0.00
    1   27    1     -0.83      0.00
    1   27    2     -3.06      0.00
    1   27    3      6.48      0.00
    1   27    4      3.11      0.00
    1   27    5     -1.05      0.00
    1   27    6      7.60      0.00
    1   27    7     -2.21      0.00
    1   27    8     -7.17      0.00
    2    0    0    -16.89      0.00
    2    0    2   -255.47      0.00
    2    0    6    -12.74      0.00
    2    0    8     18.38      0.00
    2    0   10     17.25      0.00
    2    0   12     -0.16      0.00
    2    0   14     -4.61      0.00
    2    0   16      3.60      0.00
    2    0   18      4.14      0.00
    2    0   20     -7.38      0.00
    2    0   22     -7.48      0.00
    2    0   24      2.15      0.00
    2    0   26     -7.90      0.00
    2    0   28      6.95      0.00
    2    0   30      2.22      0.00
    2    2    0      2.77      0.00
    2    2    1     29.66      0.00
    2    2    2     23.61      0.00
    2    2    3     27.85      0.00
    2    2    4     16.79      0.00
    2    2    5      4.17      0.00
    2    2    6     -9.49      0.00
    2    2    7     21.57      0.00
    2    2    8     -5.10      0.00
    2    2    9    -19.01      0.00
    2    2   10     -9.93      0.00
    2    2   11      1.51      0.00
    2    2   12     -9.94      0.00
    2    2   13     -1.45      0.00
    2    2   14      1.01      0.00
    2    2   15     -6.14      0.00
    2    2   16     -4.08      0.00
    2    2   17      3.63      0.00
    2    2   18      3.32      0.00
    2    2   19     -2.88      0.00
    2    2   20      0.09      0.00
    2    2   21      2.23      0.00
    2    2   22     -1.72      0.00
    2    2   23      1.19      0.00
    2    2   24     -0.47      0.00
    2    2   25      6.78      0.00
    2    2   26      0.40      0.00
    2    2   27      5.54      0.00
    2    2   28     -8.15      0.00
    2    2   29     -2.28      0.00
    2    2   30     -8.61      0.00
    2    2   31      4.32      0.00
    2    4    0    -68.03      0.00
    2    4    1    -61.54      0.00
    2    4    2     73.32      0.00
    2    4    3     75.13      0.00
    2    4    4    -45.98      0.00
    2    4    5    -35.69      0.00
    2    4    6     17.97      0.00
    2    4    7    -14.91      0.00
    2    4    8    -15.11      0.00
    2    4    9     14.90      0.00
    2    4   10     -8.94      0.00
    2    4   11     -2.55      0.00
    2    4   12      1.84      0.00
    2    4   13      5.51      0.00
    2    4   14     -1.14      0.00
    2    4   15     -3.07      0.00
    2    4   16      4.66      0.00
    2    4   17      4.95      0.00
    2    4   18      0.88      0.00
    2    4   19     -1.46      0.00
    2    4   20     -0.55      0.00
    2    4   21     -9.33      0.00
    2    4   22      1.38      0.00
    2    4   23     -0.69      0.00
    2    4   24      3.44      0.00
    2    4   25      1.29      0.00
    2    4   26      0.81      0.00
    2    4   27      3.24      0.00
    2    4   28      1.47      0.00
    2    4   29      1.37      0.00
    2    4   30      3.37      0.00
    2    4   31     -0.61      0.00
    2    6    0    -49.40      0.00
    2    6    1     49.79      0.00
    2    6    2     -1.49      0.00
    2    6    3    -70.48      0.00
    2    6    4     -4.59      0.00
    2    6    5     36.87      0.00
    2    6    6     -5.21      0.00
    2    6    7      0.56      0.00
    2    6    8     12.34      0.00
    2    6    9     -9.69      0.00
    2    6   10     -1.13      0.00
    2    6   11      8.30      0.00
    2    6   12      6.67      0.00
    2    6   13     -8.31      0.00
    2    6   14     -3.37      0.00
    2    6   15     -2.24      0.00
    2    6   16     -2.59      0.00
    2    6   17      0.12      0.00
    2    6   18      1.76      0.00
    2    6   19      0.44      0.00
    2    6   20     -0.33      0.00
    2    6   21      5.72      0.00
    2    6   22     -0.44      0.00
    2    6   23      0.25      0.00
    2    6   24      2.65      0.00
    2    6   25     -7.48      0.00
    2    6   26      0.37      0.00
    2    6   27     -4.89      0.00
    2    6   28      1.31      0.00
    2    6   29     -1.92      0.00
    2    6   30      0.92      0.00
    2    6   31      2.63      0.00
    2    8    0     48.50      0.00
    2    8    1    -16.54      0.00
    2    8    2      0.27      0.00
    2    8    3     39.25      0.00
    2    8    4      4.17      0.00
    2    8    5     -9.50      0.00
    2    8    6    -10.67      0.00
    2    8    7     -4.50      0.00
    2    8    8    -11.94      0.00
    2    8    9      4.55      0.00
    2    8   10     -4.87      0.00
    2    8   11    -17.49      0.00
    2    8   12     -7.27      0.00
    2    8   13      4.65      0.00
    2    8   14      2.33      0.00
    2    8   15      6.63      0.00
    2    8   16      2.20      0.00
    2    8   17     -5.92      0.00
    2    8   18     -1.85      0.00
    2    8   19     -5.17      0.00
    2    8   20      1.16      0.00
    2    8   21     -7.68      0.00
    2    8   22      2.09      0.00
    2    8   23      1.85      0.00
    2    8   24      2.59      0.00
    2    8   25     -0.86      0.00
    2    8   26      1.02      0.00
    2    8   27     -1.30      0.00
    2    8   28     -4.78      0.00
    2    8   29     -2.16      0.00
    2    8   30     -0.15      0.00
    2   10    0    -13.44      0.00
    2   10    1      0.18      0.00
    2   10    2    -14.10      0.00
    2   10    3    -23.99      0.00
    2   10    4      3.00      0.00
    2   10    5     -2.52      0.00
    2   10    6      4.81      0.00
    2   10    7      4.73      0.00
    2   10    8      0.46      0.00
    2   10    9     -1.49      0.00
    2   10   10      7.50      0.00
    2   10   11     19.78      0.00
    2   10   12     -5.54      0.00
    2   10   13     -4.73      0.00
    2   10   14      3.64      0.00
    2   10   15     -8.12      0.00
    2   10   16     -3.55      0.00
    2   10   17     -1.76      0.00
    2   10   18      5.65      0.00
    2   10   19      0.44      0.00
    2   10   20     -5.45      0.00
    2   10   21      7.00      0.00
    2   10   22      1.72      0.00
    2   10   23     -1.75      0.00
    2   10   24     -2.67      0.00
    2   10   25     -7.61      0.00
    2   10   26     -1.36      0.00
    2   10   27     -5.57      0.00
    2   10   28     -9.68      0.00
    2   10   29      5.45      0.00
    2   12    0      0.74      0.00
    2   12    1     -2.51      0.00
    2   12    2      1.42      0.00
    2   12    3     20.60      0.00
    2   12    4      3.70      0.00
    2   12    5     -6.84      0.00
    2   12    6     -7.44      0.00
    2   12    7      8.30      0.00
    2   12    8      3.51      0.00
    2   12    9     -7.04      0.00
    2   12   10     -0.02      0.00
    2   12   11    -22.87      0.00
    2   12   12      2.51      0.00
    2   12   13      9.06      0.00
    2   12   14      0.53      0.00
    2   12   15      1.71      0.00
    2   12   16     -1.42      0.00
    2   12   17      2.73      0.00
    2   12   18     -3.04      0.00
    2   12   19      3.37      0.00
    2   12   20      2.81      0.00
    2   12   21      4.12      0.00
    2   12   22      2.18      0.00
    2   12   23      7.48      0.00
    2   12   24     -2.26      0.00
    2   12   25     -4.38      0.00
    2   12   26     -0.60      0.00
    2   12   27    -10.78      0.00
    2   12   28     -0.34      0.00
    2   14    0     -2.59      0.00
    2   14    1      6.23      0.00
    2   14    2      9.20      0.00
    2   14    3     -5.93      0.00
    2   14    4     -2.46      0.00
    2   14    5      1.55      0.00
    2   14    6      0.15      0.00
    2   14    7     -8.57      0.00
    2   14    8      2.56      0.00
    2   14    9     10.00      0.00
    2   14   10     -9.72      0.00
    2   14   11     12.99      0.00
    2   14   12     -0.84      0.00
    2   14   13     -3.72      0.00
    2   14   14     -1.47      0.00
    2   14   15      1.62      0.00
    2   14   16      0.98      0.00
    2   14   17      3.41      0.00
    2   14   18      2.31      0.00
    2   14   19     -5.30      0.00
    2   14   20      4.75      0.00
    2   14   21      4.19      0.00
    2   14   22     -2.65      0.00
    2   14   23     -3.84      0.00
    2   14   24      5.27      0.00
    2   14   25      3.81      0.00
    2   14   26     -2.58      0.00
    2   14   27      8.01      0.00
    2   16    0     -2.98      0.00
    2   16    1     -0.25      0.00
    2   16    2     -1.19      0.00
    2   16    3     -6.11      0.00
    2   16    4     -4.19      0.00
    2   16    5     -4.66      0.00
    2   16    6      0.80      0.00
    2   16    7      8.75      0.00
    2   16    8      1.70      0.00
    2   16    9     -1.59      0.00
    2   16   10      4.65      0.00
    2   16   11     -8.86      0.00
    2   16   12      8.41      0.00
    2   16   13      7.58      0.00
    2   16   14      3.39      0.00
    2   16   15      5.76      0.00
    2   16   16     -0.29      0.00
    2   16   17     -2.89      0.00
    2   16   18     -1.33      0.00
    2   16   19      6.46      0.00
    2   16   20      0.17      0.00
    2   16   21     -1.46      0.00
    2   16   22     -2.49      0.00
    2   16   23      4.65      0.00
    2   16   24     -0.77      0.00
    2   16   25     -0.77      0.00
    2   16   26     -4.88      0.00
    2   18    0      2.91      0.00
    2   18    1     -6.14      0.00
    2   18    2     -3.36      0.00
    2   18    3     -0.11      0.00
    2   18    4      0.47      0.00
    2   18    5      3.27      0.00
    2   18    6     -0.61      0.00
    2   18    7     -4.84      0.00
    2   18    8     -6.16      0.00
    2   18    9     -1.80      0.00
    2   18   10      3.40      0.00
    2   18   11     -2.22      0.00
    2   18   12     -4.77      0.00
    2   18   13     -3.15      0.00
    2   18   14      3.40      0.00
    2   18   15     -1.18      0.00
    2   18   16     -6.51      0.00
    2   18   17     -1.42      0.00
    2   18   18      2.62      0.00
    2   18   19     -4.01      0.00
    2   18   20      3.47      0.00
    2   18   21     -7.54      0.00
    2   18   22     -2.07      0.00
    2   18   23     -4.85      0.00
    2   18   24      3.59      0.00
    2   20    0     10.88      0.00
    2   20    1      2.91      0.00
    2   20    2      0.49      0.00
    2   20    3      5.21      0.00
    2   20    4     -0.33      0.00
    2   20    5     -1.09      0.00
    2   20    6     -3.03      0.00
    2   20    7     -0.32      0.00
    2   20    8     -1.88      0.00
    2   20    9     -2.54      0.00
    2   20   10     -2.78      0.00
    2   20   11      2.29      0.00
    2   20   12      0.42      0.00
    2   20   13      2.68      0.00
    2   20   14     -2.86      0.00
    2   20   15      1.38      0.00
    2   20   16      3.43      0.00
    2   20   17      1.94      0.00
    2   20   18     -0.68      0.00
    2   20   19      5.74      0.00
    2   20   20      1.33      0.00
    2   20   21     -2.35      0.00
    2   20   22     -3.14      0.00
    2   22    0     -6.16      0.00
    2   22    1     -6.94      0.00
    2   22    2     -3.69      0.00
    2   22    3     -2.15      0.00
    2   22    4     -9.47      0.00
    2   22    5     -0.74      0.00
    2   22    6      0.68      0.00
    2   22    7     -1.64      0.00
    2   22    8     -2.21      0.00
    2   22    9     -2.94      0.00
    2   22   10      3.08      0.00
    2   22   11      0.14      0.00
    2   22   12     -1.15      0.00
    2   22   13     10.68      0.00
    2   22   14      3.71      0.00
    2   22   15      1.83      0.00
    2   22   16     -4.18      0.00
    2   22   17     -2.73      0.00
    2   22   18      5.32      0.00
    2   22   19     -8.50      0.00
    2   24    0     -5.87      0.00
    2   24    1      2.25      0.00
    2   24    2      0.60      0.00
    2   24    3      3.84      0.00
    2   24    4     -4.42      0.00
    2   24    5      2.45      0.00
    2   24    6    -13.22      0.00
    2   24    7      3.49      0.00
    2   24    8     -5.09      0.00
    2   24    9      3.81      0.00
    2   24   10      0.03      0.00
    2   24   11      0.36      0.00
    2   24   12      2.35      0.00
    2   24   13     -0.42      0.00
    2   24   14     -2.17      0.00
    2   24   15      0.85      0.00
    2   24   16     -1.25      0.00
    2   26    0      2.62      0.00
    2   26    1      0.63      0.00
    2   26    2     -1.89      0.00
    2   26    3     -2.27      0.00
    2   26    4     -0.55      0.00
    2   26    5     -1.60      0.00
    2   26    6      2.90      0.00
    2   26    7      9.50      0.00
    2   26    8     -5.60      0.00
    2   26    9     -1.81      0.00
    2   26   10     -4.70      0.00
    2   26   11      4.62      0.00
    3    1    1     57.35      0.00
    3    1    2    -10.62      0.00
    3    1    3    129.20      0.00
    3    1    4     19.83      0.00
    3    1    5    -18.33      0.00
    3    1    6    -13.97      0.00
    3    1    7     24.49      0.00
    3    1    8      5.12      0.00
    3    1    9    -26.21      0.00
    3    1   10    -10.06      0.00
    3    1   11     -6.74      0.00
    3    1   12      1.24      0.00
    3    1   13      0.76      0.00
    3    1   14      1.92      0.00
    3    1   15      3.48      0.00
    3    1   16     -1.47      0.00
    3    1   17     -2.09      0.00
    3    1   18      4.00      0.00
    3    1   19     -6.42      0.00
    3    1   20     -0.02      0.00
    3    1   21     -4.68      0.00
    3    1   22      3.27      0.00
    3    1   23      4.32      0.00
    3    1   24     -0.93      0.00
    3    1   25     -0.37      0.00
    3    1   26      1.03      0.00
    3    1   27      8.65      0.00
    3    1   28      3.56      0.00
    3    1   29     14.08      0.00
    3    1   30      0.24      0.00
    3    1   31     -4.88      0.00
    3    3    1   -106.71      0.00
    3    3    2     12.79      0.00
    3    3    3      3.39      0.00
    3    3    4     36.11      0.00
    3    3    5    -36.53      0.00
    3    3    6     15.74      0.00
    3    3    7      1.32      0.00
    3    3    8    -12.95      0.00
    3    3    9     19.13      0.00
    3    3   10      5.27      0.00
    3    3   11      1.40      0.00
    3    3   12     -7.94      0.00
    3    3   13     -7.30      0.00
    3    3   14     -1.57      0.00
    3    3   15     -1.95      0.00
    3    3   16      3.76      0.00
    3    3   17      3.68      0.00
    3    3   18     -1.94      0.00
    3    3   19      3.34      0.00
    3    3   20     -0.38      0.00
    3    3   21      5.24      0.00
    3    3   22     -2.41      0.00
    3    3   23      3.72      0.00
    3    3   24      3.39      0.00
    3    3   25      2.95      0.00
    3    3   26     -0.42      0.00
    3    3   27     -5.21      0.00
    3    3   28     -7.20      0.00
    3    3   29     -7.40      0.00
    3    3   30     -2.97      0.00
    3    3   31      8.36      0.00
    3    5    1     38.57      0.00
    3    5    2     28.46      0.00
    3    5    3    -25.27      0.00
    3    5    4    -81.78      0.00
    3    5    5      3.30      0.00
    3    5    6      7.81      0.00
    3    5    7    -12.29      0.00
    3    5    8     -2.45      0.00
    3    5    9    -14.37      0.00
    3    5   10     -3.59      0.00
    3    5   11      2.40      0.00
    3    5   12     16.08      0.00
    3    5   13      9.23      0.00
    3    5   14     -0.17      0.00
    3    5   15      1.76      0.00
    3    5   16      1.98      0.00
    3    5   17      0.46      0.00
    3    5   18     -0.25      0.00
    3    5   19     -3.37      0.00
    3    5   20      3.25      0.00
    3    5   21      2.46      0.00
    3    5   22      5.03      0.00
    3    5   23     -2.10      0.00
    3    5   24      0.55      0.00
    3    5   25     -1.08      0.00
    3    5   26     -2.23      0.00
    3    5   27     -1.27      0.00
    3    5   28      0.86      0.00
    3    5   29     -2.30      0.00
    3    5   30      0.94      0.00
    3    5   31     -5.27      0.00
    3    7    1     28.43      0.00
    3    7    2    -28.00      0.00
    3    7    3     12.71      0.00
    3    7    4     39.99      0.00
    3    7    5      8.03      0.00
    3    7    6     -5.59      0.00
    3    7    7      5.63      0.00
    3    7    8      4.78      0.00
    3    7    9      9.91      0.00
    3    7   10      9.73      0.00
    3    7   11      2.39      0.00
    3    7   12     -3.45      0.00
    3    7   13    -13.34      0.00
    3    7   14     -0.03      0.00
    3    7   15      1.79      0.00
    3    7   16      5.31      0.00
    3    7   17     -3.88      0.00
    3    7   18      1.43      0.00
    3    7   19      3.35      0.00
    3    7   20     -3.27      0.00
    3    7   21      1.92      0.00
    3    7   22     -0.81      0.00
    3    7   23      2.45      0.00
    3    7   24      0.13      0.00
    3    7   25     -0.18      0.00
    3    7   26     -1.14      0.00
    3    7   27      6.45      0.00
    3    7   28      2.49      0.00
    3    7   29      6.03      0.00
    3    7   30     -0.14      0.00
    3    9    1    -22.69      0.00
    3    9    2     11.05      0.00
    3    9    3    -24.97      0.00
    3    9    4     -9.16      0.00
    3    9    5     -2.22      0.00
    3    9    6     -2.83      0.00
    3    9    7     -2.75      0.00
    3    9    8     11.64      0.00
    3    9    9    -10.55      0.00
    3    9   10     -8.30      0.00
    3    9   11      9.10      0.00
    3    9   12      2.94      0.00
    3    9   13     -1.59      0.00
    3    9   14      5.49      0.00
    3    9   15     -4.90      0.00
    3    9   16     -6.28      0.00
    3    9   17     -2.18      0.00
    3    9   18     -0.31      0.00
    3    9   19      4.42      0.00
    3    9   20     -2.77      0.00
    3    9   21     -0.33      0.00
    3    9   22      4.41      0.00
    3    9   23     -3.35      0.00
    3    9   24     -2.26      0.00
    3    9   25     -7.27      0.00
    3    9   26     -2.28      0.00
    3    9   27      3.31      0.00
    3    9   28     -0.86      0.00
    3    9   29      5.35      0.00
    3   11    1     17.11      0.00
    3   11    2    -11.78      0.00
    3   11    3     18.97      0.00
    3   11    4      9.74      0.00
    3   11    5      2.54      0.00
    3   11    6     -6.50      0.00
    3   11    7     -3.61      0.00
    3   11    8     -5.37      0.00
    3   11    9      0.64      0.00
    3   11   10      5.41      0.00
    3   11   11    -10.19      0.00
    3   11   12     -7.75      0.00
    3   11   13      5.89      0.00
    3   11   14      5.85      0.00
    3   11   15      3.92      0.00
    3   11   16      2.96      0.00
    3   11   17      4.87      0.00
    3   11   18      5.61      0.00
    3   11   19     -5.69      0.00
    3   11   20      4.07      0.00
    3   11   21     -0.05      0.00
    3   11   22     -2.40      0.00
    3   11   23     -7.59      0.00
    3   11   24      3.34      0.00
    3   11   25     -4.71      0.00
    3   11   26     -2.36      0.00
    3   11   27     -1.06      0.00
    3   11   28     -6.10      0.00
    3   13    1    -15.48      0.00
    3   13    2     13.37      0.00
    3   13    3     -4.73      0.00
    3   13    4     -8.79      0.00
    3   13    5     -1.25      0.00
    3   13    6      9.05      0.00
    3   13    7      6.75      0.00
    3   13    8     -5.39      0.00
    3   13    9      9.84      0.00
    3   13   10      1.28      0.00
    3   13   11      3.26      0.00
    3   13   12     10.66      0.00
    3   13   13     -2.91      0.00
    3   13   14     -4.89      0.00
    3   13   15     -8.01      0.00
    3   13   16      1.70      0.00
    3   13   17     -1.86      0.00
    3   13   18      1.05      0.00
    3   13   19      0.63      0.00
    3   13   20     -1.39      0.00
    3   13   21      7.74      0.00
    3   13   22     -0.93      0.00
    3   13   23     -9.17      0.00
    3   13   24     -9.99      0.00
    3   13   25      3.59      0.00
    3   13   26     -6.65      0.00
    3   13   27     -3.66      0.00
    3   15    1      4.09      0.00
    3   15    2     -0.93      0.00
    3   15    3     -3.56      0.00
    3   15    4      3.46      0.00
    3   15    5     -6.41      0.00
    3   15    6     -3.39      0.00
    3   15    7     -1.68      0.00
    3   15    8      4.98      0.00
    3   15    9    -14.50      0.00
    3   15   10      0.18      0.00
    3   15   11      3.93      0.00
    3   15   12     -4.83      0.00
    3   15   13      5.26      0.00
    3   15   14      2.63      0.00
    3   15   15      5.37      0.00
    3   15   16      1.67      0.00
    3   15   17     -1.83      0.00
    3   15   18     -4.36      0.00
    3   15   19     -0.98      0.00
    3   15   20      4.73      0.00
    3   15   21     -0.25      0.00
    3   15   22     -1.81      0.00
    3   15   23      1.73      0.00
    3   15   24      5.02      0.00
    3   15   25      2.98      0.00
    3   15   26      0.74      0.00
    3   17    1      2.22      0.00
    3   17    2     -7.10      0.00
    3   17    3      2.19      0.00
    3   17    4     -2.46      0.00
    3   17    5      3.21      0.00
    3   17    6      3.90      0.00
    3   17    7      8.79      0.00
    3   17    8     -3.05      0.00
    3   17    9      7.28      0.00
    3   17   10      1.83      0.00
    3   17   11      3.00      0.00
    3   17   12      7.00      0.00
    3   17   13     -4.80      0.00
    3   17   14     -1.49      0.00
    3   17   15     -1.33      0.00
    3   17   16     -3.74      0.00
    3   17   17     -2.04      0.00
    3   17   18      3.81      0.00
    3   17   19     -1.57      0.00
    3   17   20      2.70      0.00
    3   17   21      0.76      0.00
    3   17   22     -1.17      0.00
    3   17   23      4.71      0.00
    3   17   24     -5.65      0.00
    3   19    1      4.52      0.00
    3   19    2      2.10      0.00
    3   19    3      0.06      0.00
    3   19    4      6.95      0.00
    3   19    5      1.91      0.00
    3   19    6      2.68      0.00
    3   19    7     -6.80      0.00
    3   19    8     12.96      0.00
    3   19    9     -8.26      0.00
    3   19   10      5.75      0.00
    3   19   11     -0.88      0.00
    3   19   12      3.73      0.00
    3   19   13      5.91      0.00
    3   19   14      3.53      0.00
    3   19   15     -4.50      0.00
    3   19   16      3.81      0.00
    3   19   17      2.45      0.00
    3   19   18      5.77      0.00
    3   19   19     -2.84      0.00
    3   19   20     -6.27      0.00
    3   19   21     -2.31      0.00
    3   19   22     -1.59      0.00
    3   21    1     -3.73      0.00
    3   21    2     -0.89      0.00
    3   21    3      3.45      0.00
    3   21    4     -3.22      0.00
    3   21    5     -9.36      0.00
    3   21    6     -0.82      0.00
    3   21    7     -0.40      0.00
    3   21    8     -2.23      0.00
    3   21    9      8.88      0.00
    3   21   10      0.05      0.00
    3   21   11      7.19      0.00
    3   21   12     -4.11      0.00
    3   21   13     -0.19      0.00
    3   21   14     -6.82      0.00
    3   21   15      2.18      0.00
    3   21   16      0.40      0.00
    3   21   17     -0.96      0.00
    3   21   18      2.20      0.00
    3   21   19     -0.66      0.00
    3   21   20     -4.56      0.00
    3   23    1      0.42      0.00
    3   23    2      2.26      0.00
    3   23    3      2.24      0.00
    3   23    4      3.23      0.00
    3   23    5      4.32      0.00
    3   23    6      5.65      0.00
    3   23    7     -3.41      0.00
    3   23    8      6.58      0.00
    3   23    9     -3.27      0.00
    3   23   10      3.11      0.00
    3   23   11      0.54      0.00
    3   23   12      5.54      0.00
    3   23   13     -2.53      0.00
    3   23   14      0.14      0.00
    3   23   15     -3.57      0.00
    3   23   16     -4.58      0.00
    3   23   17      3.35      0.00
    3   25    1     -0.88      0.00
    3   25    2     -0.94      0.00
    3   25    3     -2.21      0.00
    3   25    4     -5.33      0.00
    3   25    5      2.91      0.00
    3   25    6      1.65      0.00
    3   25    7      2.40      0.00
    3   25    8      6.87      0.00
    3   25    9      0.85      0.00
    3   25   10     -1.76      0.00
    3   25   11     -0.95      0.00
    3   25   12      2.23      0.00
    3   25   13     -1.56      0.00
    3   27    1      0.81      0.00
    3   27    2      6.20      0.00
    3   27    3     -3.09      0.00
    3   27    4     -2.19      0.00
    3   27    5     -1.77      0.00
    3   27    6     -0.61      0.00
    3   27    7     -4.48      0.00
    4    0    0    -50.74      0.00
    4    0    2      3.07      0.00
    4    0    6    -41.44      0.00
    4    0    8     32.01      0.00
    4    0   10    -28.73      0.00
    4    0   12    -12.64      0.00
    4    0   14      1.19      0.00
    4    0   16      0.55      0.00
    4    0   18      4.86      0.00
    4    0   20     -1.82      0.00
    4    0   22     -9.54      0.00
    4    0   24      2.65      0.00
    4    0   26     -4.48      0.00
    4    0   28     -0.75      0.00
    4    0   30     15.93      0.00
    4    2    0     95.57      0.00
    4    2    1    -39.03      0.00
    4    2    2    -18.62      0.00
    4    2    3     13.20      0.00
    4    2    4    -24.00      0.00
    4    2    5    -14.00      0.00
    4    2    6      8.75      0.00
    4    2    7     19.79      0.00
    4    2    8    -27.28      0.00
    4    2    9      5.84      0.00
    4    2   10     21.17      0.00
    4    2   11     12.46      0.00
    4    2   12     16.03      0.00
    4    2   13     -0.35      0.00
    4    2   14     -3.92      0.00
    4    2   15     -0.61      0.00
    4    2   16      1.99      0.00
    4    2   17      6.52      0.00
    4    2   18     -3.27      0.00
    4    2   19     -1.80      0.00
    4    2   20      1.57      0.00
    4    2   21     -2.38      0.00
    4    2   22      6.97      0.00
    4    2   23     -7.61      0.00
    4    2   24      0.37      0.00
    4    2   25     -3.33      0.00
    4    2   26      6.25      0.00
    4    2   27     -0.76      0.00
    4    2   28      1.97      0.00
    4    2   29     -0.39      0.00
    4    2   30     -5.20      0.00
    4    2   31    -10.31      0.00
    4    4    0    -86.99      0.00
    4    4    1     36.31      0.00
    4    4    2     29.15      0.00
    4    4    3      8.87      0.00
    4    4    4     -4.46      0.00
    4    4    5    -22.43      0.00
    4    4    6     15.01      0.00
    4    4    7     -1.05      0.00
    4    4    8     15.78      0.00
    4    4    9     -7.49      0.00
    4    4   10     -7.22      0.00
    4    4   11    -14.30      0.00
    4    4   12    -10.10      0.00
    4    4   13      1.97      0.00
    4    4   14      2.51      0.00
    4    4   15     -0.72      0.00
    4    4   16     -1.12      0.00
    4    4   17     -5.39      0.00
    4    4   18      2.29      0.00
    4    4   19     -0.73      0.00
    4    4   20     -0.36      0.00
    4    4   21      3.29      0.00
    4    4   22      2.75      0.00
    4    4   23      6.52      0.00
    4    4   24     -2.40      0.00
    4    4   25     -0.55      0.00
    4    4   26     -6.16      0.00
    4    4   27     -4.83      0.00
    4    4   28      5.78      0.00
    4    4   29     -0.57      0.00
    4    4   30      1.08      0.00
    4    6    0     21.78      0.00
    4    6    1    -20.51      0.00
    4    6    2     -3.00      0.00
    4    6    3    -23.07      0.00
    4    6    4      4.67      0.00
    4    6    5     33.22      0.00
    4    6    6      2.68      0.00
    4    6    7    -10.38      0.00
    4    6    8     -8.93      0.00
    4    6    9     10.45      0.00
    4    6   10      5.02      0.00
    4    6   11      2.71      0.00
    4    6   12      9.35      0.00
    4    6   13     -7.34      0.00
    4    6   14     -4.23      0.00
    4    6   15      4.87      0.00
    4    6   16      5.73      0.00
    4    6   17      2.51      0.00
    4    6   18     -6.70      0.00
    4    6   19      6.71      0.00
    4    6   20      1.08      0.00
    4    6   21     -6.40      0.00
    4    6   22     -3.15      0.00
    4    6   23     -5.84      0.00
    4    6   24      0.53      0.00
    4    6   25      2.94      0.00
    4    6   26      4.33      0.00
    4    6   27      5.67      0.00
    4    6   28     -4.12      0.00
    4    6   29      8.48      0.00
    4    6   30      2.42      0.00
    4    8    0     15.84      0.00
    4    8    1     13.35      0.00
    4    8    2     -2.64      0.00
    4    8    3     -4.69      0.00
    4    8    4    -13.46      0.00
    4    8    5    -10.53      0.00
    4    8    6      3.83      0.00
    4    8    7     -3.38      0.00
    4    8    8     15.78      0.00
    4    8    9      8.15      0.00
    4    8   10     -6.58      0.00
    4    8   11      3.85      0.00
    4    8   12      0.42      0.00
    4    8   13     -2.59      0.00
    4    8   14      6.95      0.00
    4    8   15      6.95      0.00
    4    8   16     -9.14      0.00
    4    8   17     -1.90      0.00
    4    8   18      1.79      0.00
    4    8   19      2.69      0.00
    4    8   20     -1.54      0.00
    4    8   21      5.97      0.00
    4    8   22     -1.47      0.00
    4    8   23     -0.85      0.00
    4    8   24     -5.25      0.00
    4    8   25     -1.58      0.00
    4    8   26     -4.23      0.00
    4    8   27     -0.27      0.00
    4    8   28      7.78      0.00
    4    8   29     -6.44      0.00
    4   10    0    -26.17      0.00
    4   10    1      4.65      0.00
    4   10    2     -2.13      0.00
    4   10    3      9.95      0.00
    4   10    4     15.63      0.00
    4   10    5      4.39      0.00
    4   10    6      1.68      0.00
    4   10    7     10.20      0.00
    4   10    8     -2.09      0.00
    4   10    9    -13.87      0.00
    4   10   10     10.32      0.00
    4   10   11     -6.80      0.00
    4   10   12    -12.11      0.00
    4   10   13     -3.58      0.00
    4   10   14     -0.11      0.00
    4   10   15      2.73      0.00
    4   10   16      1.40      0.00
    4   10   17      4.49      0.00
    4   10   18      2.77      0.00
    4   10   19      1.06      0.00
    4   10   20     -3.09      0.00
    4   10   21      2.22      0.00
    4   10   22      8.54      0.00
    4   10   23     -4.13      0.00
    4   10   24     -1.65      0.00
    4   10   25      8.26      0.00
    4   10   26      6.00      0.00
    4   10   27     15.23      0.00
    4   10   28      1.09      0.00
    4   10   29     -1.23      0.00
    4   12    0     28.73      0.00
    4   12    1     -9.00      0.00
    4   12    2     -0.93      0.00
    4   12    3      2.43      0.00
    4   12    4     -8.15      0.00
    4   12    5     -9.88      0.00
    4   12    6    -10.47      0.00
    4   12    7      0.54      0.00
    4   12    8     -6.75      0.00
    4   12    9      7.49      0.00
    4   12   10     -4.82      0.00
    4   12   11      2.56      0.00
    4   12   12      9.97      0.00
    4   12   13      5.57      0.00
    4   12   14      1.13      0.00
    4   12   15     -5.61      0.00
    4   12   16     -4.38      0.00
    4   12   17      0.40      0.00
    4   12   18     -2.65      0.00
    4   12   19     -4.78      0.00
    4   12   20     -1.20      0.00
    4   12   21     -1.40      0.00
    4   12   22     -4.38      0.00
    4   12   23      0.06      0.00
    4   12   24     -6.36      0.00
    4   12   25     -6.44      0.00
    4   12   26      0.75      0.00
    4   12   27     -8.64      0.00
    4   12   28      8.61      0.00
    4   14    0    -12.50      0.00
    4   14    1      3.18      0.00
    4   14    2      1.41      0.00
    4   14    3     -6.25      0.00
    4   14    4      6.05      0.00
    4   14    5      8.22      0.00
    4   14    6      2.09      0.00
    4   14    7      6.65      0.00
    4   14    8      8.06      0.00
    4   14    9      2.33      0.00
    4   14   10     -4.71      0.00
    4   14   11     -7.32      0.00
    4   14   12     -3.30      0.00
    4   14   13     -4.91      0.00
    4   14   14      1.15      0.00
    4   14   15      3.52      0.00
    4   14   16      0.77      0.00
    4   14   17     -1.11      0.00
    4   14   18     -2.83      0.00
    4   14   19      0.80      0.00
    4   14   20     -1.19      0.00
    4   14   21     -1.13      0.00
    4   14   22     -5.68      0.00
    4   14   23     -7.83      0.00
    4   14   24      3.73      0.00
    4   14   25      1.17      0.00
    4   14   26     -1.24      0.00
    4   16    0      4.50      0.00
    4   16    1      4.54      0.00
    4   16    2      3.28      0.00
    4   16    3      3.92      0.00
    4   16    4     -3.64      0.00
    4   16    5     -3.13      0.00
    4   16    6     -0.06      0.00
    4   16    7     -3.09      0.00
    4   16    8     -1.42      0.00
    4   16    9     -2.88      0.00
    4   16   10      8.43      0.00
    4   16   11      1.50      0.00
    4   16   12      3.36      0.00
    4   16   13     -2.67      0.00
    4   16   14     -0.54      0.00
    4   16   15     -4.69      0.00
    4   16   16      1.53      0.00
    4   16   17     -7.21      0.00
    4   16   18      6.85      0.00
    4   16   19      4.83      0.00
    4   16   20      6.72      0.00
    4   16   21      4.88      0.00
    4   16   22     -4.28      0.00
    4   16   23      7.81      0.00
    4   16   24      7.21      0.00
    4   16   25     -4.46      0.00
    4   18    0     -2.42      0.00
    4   18    1      0.48      0.00
    4   18    2     -0.08      0.00
    4   18    3     -3.07      0.00
    4   18    4     -1.15      0.00
    4   18    5      2.49      0.00
    4   18    6      8.91      0.00
    4   18    7     -1.04      0.00
    4   18    8      5.74      0.00
    4   18    9      7.19      0.00
    4   18   10      0.25      0.00
    4   18   11      1.28      0.00
    4   18   12     -8.65      0.00
    4   18   13      5.44      0.00
    4   18   14      2.17      0.00
    4   18   15     -0.57      0.00
    4   18   16     -4.54      0.00
    4   18   17     -1.67      0.00
    4   18   18     -0.93      0.00
    4   18   19      3.31      0.00
    4   18   20     -2.76      0.00
    4   18   21      0.30      0.00
    4   18   22     -1.10      0.00
    4   18   23     -3.34      0.00
    4   20    0      4.59      0.00
    4   20    1     -3.45      0.00
    4   20    2      0.02      0.00
    4   20    3     -4.11      0.00
    4   20    4      7.03      0.00
    4   20    5     -8.89      0.00
    4   20    6     -5.74      0.00
    4   20    7      4.40      0.00
    4   20    8     -8.69      0.00
    4   20    9     -7.07      0.00
    4   20   10      2.04      0.00
    4   20   11     -4.83      0.00
    4   20   12      9.55      0.00
    4   20   13     -3.32      0.00
    4   20   14      0.94      0.00
    4   20   15     -3.87      0.00
    4   20   16      8.70      0.00
    4   20   17     -1.81      0.00
    4   20   18     -0.23      0.00
    4   20   19     -7.34      0.00
    4   20   20     -2.46      0.00
    4   20   21      5.68      0.00
    4   22    0     -0.60      0.00
    4   22    1     -0.77      0.00
    4   22    2     -0.90      0.00
    4   22    3      4.49      0.00
    4   22    4     -0.20      0.00
    4   22    5     -1.08      0.00
    4   22    6     14.48      0.00
    4   22    7     -0.58      0.00
    4   22    8      2.42      0.00
    4   22    9      6.07      0.00
    4   22   10     -4.54      0.00
    4   22   11      1.15      0.00
    4   22   12     -5.75      0.00
    4   22   13     -0.61      0.00
    4   22   14     -0.22      0.00
    4   22   15      7.95      0.00
    4   22   16     -1.13      0.00
    4   22   17      6.29      0.00
    4   22   18     -3.88      0.00
    4   24    0      7.47      0.00
    4   24    1      3.96      0.00
    4   24    2      2.79      0.00
    4   24    3      2.17      0.00
    4   24    4      0.55      0.00
    4   24    5     -1.79      0.00
    4   24    6      2.07      0.00
    4   24    7      2.32      0.00
    4   24    8      1.49      0.00
    4   24    9     -1.33      0.00
    4   24   10      1.57      0.00
    4   24   11     -2.63      0.00
    4   24   12     -0.11      0.00
    4   24   13     -3.52      0.00
    4   24   14      3.69      0.00
    4   24   15     -0.33      0.00
    4   26    0     -0.82      0.00
    4   26    1     -1.59      0.00
    4   26    2      8.81      0.00
    4   26    3     -0.57      0.00
    4   26    4      3.48      0.00
    4   26    5      0.28      0.00
    4   26    6     -0.53      0.00
    4   26    7     -0.88      0.00
    4   26    8      0.69      0.00
    4   26    9     -4.52      0.00
    4   26   10      6.81      0.00
    5    1    1     11.54      0.00
    5    1    2    -14.34      0.00
    5    1    3    -24.31      0.00
    5    1    4     13.38      0.00
    5    1    5    -43.29      0.00
    5    1    6    -13.68      0.00
    5    1    7     22.34      0.00
    5    1    8      2.99      0.00
    5    1    9    -26.64      0.00
    5    1   10      0.94      0.00
    5    1   11      9.23      0.00
    5    1   12      2.77      0.00
    5    1   13     10.06      0.00
    5    1   14     -0.41      0.00
    5    1   15     -1.05      0.00
    5    1   16     -2.46      0.00
    5    1   17      1.40      0.00
    5    1   18      1.72      0.00
    5    1   19     -0.73      0.00
    5    1   20      0.97      0.00
    5    1   21      0.31      0.00
    5    1   22     -0.51      0.00
    5    1   23      7.77      0.00
    5    1   24     -0.44      0.00
    5    1   25      2.35      0.00
    5    1   26     -1.02      0.00
    5    1   27     -0.49      0.00
    5    1   28     -0.42      0.00
    5    1   29      5.19      0.00
    5    1   30      3.04      0.00
    5    3    1    -31.57      0.00
    5    3    2     29.37      0.00
    5    3    3     21.66      0.00
    5    3    4    -21.61      0.00
    5    3    5      6.28      0.00
    5    3    6      3.81      0.00
    5    3    7     -4.90      0.00
    5    3    8      7.81      0.00
    5    3    9     10.51      0.00
    5    3   10      7.10      0.00
    5    3   11     -2.62      0.00
    5    3   12     -1.68      0.00
    5    3   13     -8.74      0.00
    5    3   14      1.81      0.00
    5    3   15      1.17      0.00
    5    3   16      5.31      0.00
    5    3   17     -4.38      0.00
    5    3   18     -5.61      0.00
    5    3   19     -1.39      0.00
    5    3   20     -3.54      0.00
    5    3   21     -1.27      0.00
    5    3   22      0.28      0.00
    5    3   23      3.69      0.00
    5    3   24      1.22      0.00
    5    3   25     -1.40      0.00
    5    3   26      8.90      0.00
    5    3   27      0.95      0.00
    5    3   28      5.48      0.00
    5    3   29      7.69      0.00
    5    3   30     -5.57      0.00
    5    5    1     23.20      0.00
    5    5    2    -25.82      0.00
    5    5    3     -4.87      0.00
    5    5    4      3.47      0.00
    5    5    5     11.53      0.00
    5    5    6     30.89      0.00
    5    5    7     12.59      0.00
    5    5    8    -19.05      0.00
    5    5    9     -5.00      0.00
    5    5   10      0.96      0.00
    5    5   11    -10.45      0.00
    5    5   12     -0.71      0.00
    5    5   13      2.79      0.00
    5    5   14     -7.74      0.00
    5    5   15     -1.89      0.00
    5    5   16     -0.93      0.00
    5    5   17      3.19      0.00
    5    5   18      0.06      0.00
    5    5   19     -1.88      0.00
    5    5   20      5.22      0.00
    5    5   21     -1.65      0.00
    5    5   22     -3.30      0.00
    5    5   23     -9.48      0.00
    5    5   24     -6.29      0.00
    5    5   25     -4.01      0.00
    5    5   26     -1.52      0.00
    5    5   27      8.48      0.00
    5    5   28     -1.18      0.00
    5    5   29     -6.57      0.00
    5    5   30      6.36      0.00
    5    7    1    -15.24      0.00
    5    7    2     27.94      0.00
    5    7    3     -7.99      0.00
    5    7    4      5.71      0.00
    5    7    5    -12.75      0.00
    5    7    6    -15.95      0.00
    5    7    7    -20.19      0.00
    5    7    8      4.49      0.00
    5    7    9      0.88      0.00
    5    7   10    -11.14      0.00
    5    7   11      2.79      0.00
    5    7   12      8.11      0.00
    5    7   13      2.05      0.00
    5    7   14      1.10      0.00
    5    7   15     11.53      0.00
    5    7   16      2.12      0.00
    5    7   17     -8.66      0.00
    5    7   18     -2.73      0.00
    5    7   19      3.55      0.00
    5    7   20     -5.32      0.00
    5    7   21     -6.49      0.00
    5    7   22      6.16      0.00
    5    7   23     -0.50      0.00
    5    7   24      3.43      0.00
    5    7   25      0.56      0.00
    5    7   26      3.31      0.00
    5    7   27     -9.02      0.00
    5    7   28     -0.49      0.00
    5    7   29      0.05      0.00
    5    9    1     -2.04      0.00
    5    9    2    -27.36      0.00
    5    9    3      0.89      0.00
    5    9    4     10.80      0.00
    5    9    5     13.52      0.00
    5    9    6     -0.42      0.00
    5    9    7     12.05      0.00
    5    9    8      9.85      0.00
    5    9    9     -8.46      0.00
    5    9   10      3.27      0.00
    5    9   11      3.86      0.00
    5    9   12     -6.48      0.00
    5    9   13     -2.56      0.00
    5    9   14     -0.52      0.00
    5    9   15     -7.98      0.00
    5    9   16     -5.99      0.00
    5    9   17      1.64      0.00
    5    9   18      7.36      0.00
    5    9   19     -1.95      0.00
    5    9   20      1.56      0.00
    5    9   21     -3.66      0.00
    5    9   22     -4.85      0.00
    5    9   23      2.07      0.00
    5    9   24     -4.82      0.00
    5    9   25     10.70      0.00
    5    9   26     -5.06      0.00
    5    9   27      9.71      0.00
    5    9   28      3.59      0.00
    5    9   29     -6.54      0.00
    5   11    1      7.87      0.00
    5   11    2      5.83      0.00
    5   11    3     -1.57      0.00
    5   11    4     -1.36      0.00
    5   11    5      3.25      0.00
    5   11    6      1.37      0.00
    5   11    7     -1.50      0.00
    5   11    8    -11.87      0.00
    5   11    9     -2.88      0.00
    5   11   10     -1.17      0.00
    5   11   11     -8.79      0.00
    5   11   12      3.68      0.00
    5   11   13      6.61      0.00
    5   11   14      3.94      0.00
    5   11   15      5.55      0.00
    5   11   16     -4.00      0.00
    5   11   17     -2.95      0.00
    5   11   18     -2.56      0.00
    5   11   19      4.00      0.00
    5   11   20     -3.70      0.00
    5   11   21     13.14      0.00
    5   11   22     -0.04      0.00
    5   11   23     -5.41      0.00
    5   11   24      9.97      0.00
    5   11   25      0.44      0.00
    5   11   26     16.00      0.00
    5   11   27     -6.11      0.00
    5   11   28     -4.95      0.00
    5   13    1     -9.85      0.00
    5   13    2      0.46      0.00
    5   13    3     -5.41      0.00
    5   13    4     -8.22      0.00
    5   13    5     -3.94      0.00
    5   13    6     -4.84      0.00
    5   13    7     -5.04      0.00
    5   13    8     10.26      0.00
    5   13    9     -2.79      0.00
    5   13   10      4.57      0.00
    5   13   11      0.04      0.00
    5   13   12     -4.50      0.00
    5   13   13      1.56      0.00
    5   13   14     -5.59      0.00
    5   13   15      0.11      0.00
    5   13   16      3.08      0.00
    5   13   17      0.64      0.00
    5   13   18     -2.65      0.00
    5   13   19     -4.01      0.00
    5   13   20      9.28      0.00
    5   13   21     -9.48      0.00
    5   13   22      2.81      0.00
    5   13   23     -7.36      0.00
    5   13   24     -5.64      0.00
    5   13   25      5.06      0.00
    5   13   26      0.79      0.00
    5   13   27     10.49      0.00
    5   15    1      0.40      0.00
    5   15    2     -4.26      0.00
    5   15    3     11.69      0.00
    5   15    4      5.93      0.00
    5   15    5      3.29      0.00
    5   15    6      7.03      0.00
    5   15    7      8.85      0.00
    5   15    8     -5.46      0.00
    5   15    9     -6.89      0.00
    5   15   10     -5.48      0.00
    5   15   11      0.15      0.00
    5   15   12      3.35      0.00
    5   15   13     -2.40      0.00
    5   15   14     -1.62      0.00
    5   15   15     -3.06      0.00
    5   15   16     -4.86      0.00
    5   15   17     -1.20      0.00
    5   15   18      1.73      0.00
    5   15   19      6.69      0.00
    5   15   20     -4.72      0.00
    5   15   21      5.20      0.00
    5   15   22     -5.60      0.00
    5   15   23     -7.66      0.00
    5   15   24      9.78      0.00
    5   15   25     -3.14      0.00
    5   17    1     -4.89      0.00
    5   17    2      1.53      0.00
    5   17    3     -5.51      0.00
    5   17    4     -3.57      0.00
    5   17    5     -4.89      0.00
    5   17    6     -0.63      0.00
    5   17    7     -0.81      0.00
    5   17    8      0.87      0.00
    5   17    9      0.02      0.00
    5   17   10     -1.26      0.00
    5   17   11      2.60      0.00
    5   17   12     -8.11      0.00
    5   17   13      3.43      0.00
    5   17   14      1.44      0.00
    5   17   15     -0.24      0.00
    5   17   16      0.22      0.00
    5   17   17      2.39      0.00
    5   17   18     -0.49      0.00
    5   17   19     -1.19      0.00
    5   17   20     -4.22      0.00
    5   17   21    -10.50      0.00
    5   17   22      4.81      0.00
    5   17   23     -1.06      0.00
    5   17   24     -3.76      0.00
    5   19    1      3.76      0.00
    5   19    2     -2.47      0.00
    5   19    3     -2.16      0.00
    5   19    4      3.87      0.00
    5   19    5     11.69      0.00
    5   19    6     -6.05      0.00
    5   19    7      6.97      0.00
    5   19    8      1.27      0.00
    5   19    9     -0.41      0.00
    5   19   10     -2.62      0.00
    5   19   11     -1.46      0.00
    5   19   12      3.44      0.00
    5   19   13     -0.56      0.00
    5   19   14     -6.11      0.00
    5   19   15     -7.92      0.00
    5   19   16     -7.97      0.00
    5   19   17      2.31      0.00
    5   19   18      3.14      0.00
    5   19   19      5.76      0.00
    5   19   20     -4.97      0.00
    5   19   21      5.15      0.00
    5   19   22      0.21      0.00
    5   21    1     -1.39      0.00
    5   21    2     -3.03      0.00
    5   21    3     -2.84      0.00
    5   21    4      4.61      0.00
    5   21    5    -10.32      0.00
    5   21    6      2.32      0.00
    5   21    7      2.37      0.00
    5   21    8     -8.91      0.00
    5   21    9      0.33      0.00
    5   21   10     -1.23      0.00
    5   21   11      3.60      0.00
    5   21   12      3.29      0.00
    5   21   13      0.47      0.00
    5   21   14     -1.45      0.00
    5   21   15     -2.24      0.00
    5   21   16      0.62      0.00
    5   21   17     -5.13      0.00
    5   21   18     -1.03      0.00
    5   21   19     -4.99      0.00
    5   23    1     -0.37      0.00
    5   23    2      5.17      0.00
    5   23    3      3.53      0.00
    5   23    4     -6.92      0.00
    5   23    5      7.26      0.00
    5   23    6     -6.41      0.00
    5   23    7     -4.85      0.00
    5   23    8      0.91      0.00
    5   23    9     -2.69      0.00
    5   23   10      0.15      0.00
    5   23   11     -1.36      0.00
    5   23   12      0.86      0.00
    5   23   13      0.52      0.00
    5   23   14      0.43      0.00
    5   23   15      7.02      0.00
    5   23   16      3.14      0.00
    5   25    1     -2.25      0.00
    5   25    2      1.86      0.00
    5   25    3      0.08      0.00
    5   25    4     -1.76      0.00
    5   25    5     -0.97      0.00
    5   25    6     -2.23      0.00
    5   25    7      0.31      0.00
    5   25    8     -6.16      0.00
    5   25    9      4.21      0.00
    5   25   10     -2.85      0.00
    5   25   11      4.09      0.00
    5   27    1      2.21      0.00
    5   27    2     -5.79      0.00
    6    0    0     30.26      0.00
    6    0    2      8.46      0.00
    6    0    4    -12.87      0.00
    6    0    6    -29.88      0.00
    6    0    8     22.43      0.00
    6    0   10    -10.61      0.00
    6    0   12      8.40      0.00
    6    0   14     10.17      0.00
    6    0   16      1.31      0.00
    6    0   18     -3.35      0.00
    6    0   20      5.04      0.00
    6    0   22     -1.76      0.00
    6    0   24      4.34      0.00
    6    0   26     -4.75      0.00
    6    0   28     -5.52      0.00
    6    0   30     -1.41      0.00
    6    2    0    -33.67      0.00
    6    2    1      0.50      0.00
    6    2    2    -18.33      0.00
    6    2    3     26.64      0.00
    6    2    4     13.75      0.00
    6    2    5    -20.15      0.00
    6    2    6     24.28      0.00
    6    2    7      1.66      0.00
    6    2    8     -2.82      0.00
    6    2    9    -10.96      0.00
    6    2   10      3.61      0.00
    6    2   11     -1.42      0.00
    6    2   12     -4.75      0.00
    6    2   13      0.53      0.00
    6    2   14     -5.16      0.00
    6    2   15     -0.81      0.00
    6    2   16      1.93      0.00
    6    2   17      6.34      0.00
    6    2   18      2.69      0.00
    6    2   19      2.32      0.00
    6    2   20     -4.17      0.00
    6    2   21     -1.22      0.00
    6    2   22     -0.69      0.00
    6    2   23      0.84      0.00
    6    2   24      3.29      0.00
    6    2   25     -4.21      0.00
    6    2   26      0.05      0.00
    6    2   27      5.12      0.00
    6    2   28     -5.50      0.00
    6    2   29      9.46      0.00
    6    2   30     -6.62      0.00
    6    4    0     15.00      0.00
    6    4    1     -6.14      0.00
    6    4    2     13.92      0.00
    6    4    3    -33.14      0.00
    6    4    4    -10.00      0.00
    6    4    5      5.67      0.00
    6    4    6     -8.16      0.00
    6    4    7     13.96      0.00
    6    4    8     -3.89      0.00
    6    4    9     -8.19      0.00
    6    4   10      7.10      0.00
    6    4   11      0.11      0.00
    6    4   12     -0.65      0.00
    6    4   13      2.09      0.00
    6    4   14      2.07      0.00
    6    4   15     -3.97      0.00
    6    4   16     -0.74      0.00
    6    4   17     -2.39      0.00
    6    4   18     -2.28      0.00
    6    4   19     -1.91      0.00
    6    4   20      2.01      0.00
    6    4   21      2.37      0.00
    6    4   22     -0.43      0.00
    6    4   23     -2.48      0.00
    6    4   24     -4.44      0.00
    6    4   25      2.50      0.00
    6    4   26      0.19      0.00
    6    4   27      3.63      0.00
    6    4   28      7.54      0.00
    6    4   29    -10.67      0.00
    6    4   30     -2.33      0.00
    6    6    0      7.72      0.00
    6    6    1    -10.00      0.00
    6    6    2     -4.34      0.00
    6    6    3     23.48      0.00
    6    6    4     10.70      0.00
    6    6    5      6.34      0.00
    6    6    6      5.29      0.00
    6    6    7    -26.30      0.00
    6    6    8     -7.65      0.00
    6    6    9      8.50      0.00
    6    6   10     -7.15      0.00
    6    6   11     -3.97      0.00
    6    6   12      0.65      0.00
    6    6   13      3.98      0.00
    6    6   14     -2.27      0.00
    6    6   15      1.72      0.00
    6    6   16      4.67      0.00
    6    6   17      0.50      0.00
    6    6   18      0.38      0.00
    6    6   19     -1.68      0.00
    6    6   20      5.41      0.00
    6    6   21     -5.71      0.00
    6    6   22      2.83      0.00
    6    6   23      4.57      0.00
    6    6   24     -4.36      0.00
    6    6   25      8.85      0.00
    6    6   26      1.35      0.00
    6    6   27     -2.23      0.00
    6    6   28     -9.38      0.00
    6    6   29      5.40      0.00
    6    8    0    -19.89      0.00
    6    8    1     14.62      0.00
    6    8    2      2.99      0.00
    6    8    3    -19.61      0.00
    6    8    4      3.11      0.00
    6    8    5      9.74      0.00
    6    8    6     -9.99      0.00
    6    8    7     -0.60      0.00
    6    8    8      6.25      0.00
    6    8    9     -1.64      0.00
    6    8   10      5.58      0.00
    6    8   11      6.66      0.00
    6    8   12      2.49      0.00
    6    8   13     -8.51      0.00
    6    8   14     -1.75      0.00
    6    8   15      0.25      0.00
    6    8   16     -6.21      0.00
    6    8   17     -3.15      0.00
    6    8   18     -0.90      0.00
    6    8   19      4.51      0.00
    6    8   20     -6.51      0.00
    6    8   21      4.09      0.00
    6    8   22     -1.11      0.00
    6    8   23     -4.78      0.00
    6    8   24      0.99      0.00
    6    8   25      1.84      0.00
    6    8   26      4.87      0.00
    6    8   27     -6.86      0.00
    6    8   28      4.68      0.00
    6   10    0      8.13      0.00
    6   10    1    -18.48      0.00
    6   10    2      3.69      0.00
    6   10    3     11.84      0.00
    6   10    4     -9.00      0.00
    6   10    5    -13.61      0.00
    6   10    6      1.86      0.00
    6   10    7      3.05      0.00
    6   10    8     -5.36      0.00
    6   10    9     -1.83      0.00
    6   10   10      1.40      0.00
    6   10   11      6.03      0.00
    6   10   12     -2.10      0.00
    6   10   13      3.26      0.00
    6   10   14      2.10      0.00
    6   10   15      2.56      0.00
    6   10   16      7.57      0.00
    6   10   17      3.11      0.00
    6   10   18     -1.19      0.00
    6   10   19      1.64      0.00
    6   10   20     -3.00      0.00
    6   10   21     -7.84      0.00
    6   10   22      7.32      0.00
    6   10   23     -2.61      0.00
    6   10   24      3.48      0.00
    6   10   25     -1.37      0.00
    6   10   26     -3.28      0.00
    6   10   27      6.82      0.00
    6   10   28    -13.83      0.00
    6   12    0     -0.18      0.00
    6   12    1      4.72      0.00
    6   12    2     -5.11      0.00
    6   12    3      3.05      0.00
    6   12    4      9.42      0.00
    6   12    5      3.29      0.00
    6   12    6     -1.24      0.00
    6   12    7    -14.96      0.00
    6   12    8      4.66      0.00
    6   12    9      1.65      0.00
    6   12   10     -3.28      0.00
    6   12   11      0.29      0.00
    6   12   12     -4.09      0.00
    6   12   13     -1.71      0.00
    6   12   14     -0.41      0.00
    6   12   15     -8.58      0.00
    6   12   16     -3.38      0.00
    6   12   17     -2.21      0.00
    6   12   18      0.86      0.00
    6   12   19     -4.12      0.00
    6   12   20      6.33      0.00
    6   12   21      7.33      0.00
    6   12   22    -10.99      0.00
    6   12   23     13.01      0.00
    6   12   24     -0.05      0.00
    6   12   25      9.97      0.00
    6   12   26     -5.39      0.00
    6   12   27     -4.30      0.00
    6   14    0      2.66      0.00
    6   14    1     -2.59      0.00
    6   14    2     -5.40      0.00
    6   14    3     -4.24      0.00
    6   14    4      3.52      0.00
    6   14    5     -8.13      0.00
    6   14    6     -2.24      0.00
    6   14    7      5.61      0.00
    6   14    8      4.36      0.00
    6   14    9     -3.04      0.00
    6   14   10      1.48      0.00
    6   14   11      0.67      0.00
    6   14   12      0.31      0.00
    6   14   13      5.25      0.00
    6   14   14     -0.69      0.00
    6   14   15     -0.97      0.00
    6   14   16     -1.66      0.00
    6   14   17     -4.34      0.00
    6   14   18      5.48      0.00
    6   14   19      5.35      0.00
    6   14   20      2.33      0.00
    6   14   21     -6.37      0.00
    6   14   22      4.49      0.00
    6   14   23     -9.44      0.00
    6   14   24      0.71      0.00
    6   14   25     11.81      0.00
    6   16    0     -3.93      0.00
    6   16    1     -1.14      0.00
    6   16    2      6.36      0.00
    6   16    3      8.48      0.00
    6   16    4     -0.35      0.00
    6   16    5      4.70      0.00
    6   16    6      1.46      0.00
    6   16    7     -2.33      0.00
    6   16    8     -6.65      0.00
    6   16    9     -1.25      0.00
    6   16   10     -4.88      0.00
    6   16   11      1.54      0.00
    6   16   12     -3.21      0.00
    6   16   13     -5.71      0.00
    6   16   14      1.24      0.00
    6   16   15      3.66      0.00
    6   16   16      0.49      0.00
    6   16   17      4.29      0.00
    6   16   18      0.69      0.00
    6   16   19     -1.58      0.00
    6   16   20     -4.20      0.00
    6   16   21    -12.70      0.00
    6   16   22     -7.36      0.00
    6   16   23      6.41      0.00
    6   16   24      0.38      0.00
    6   18    0     -7.08      0.00
    6   18    1      0.53      0.00
    6   18    2      0.51      0.00
    6   18    3     -1.15      0.00
    6   18    4     -3.37      0.00
    6   18    5      5.73      0.00
    6   18    6     -1.16      0.00
    6   18    7     -2.76      0.00
    6   18    8     -4.20      0.00
    6   18    9      1.87      0.00
    6   18   10     -0.57      0.00
    6   18   11     -1.78      0.00
    6   18   12     -0.83      0.00
    6   18   13      8.52      0.00
    6   18   14     -1.15      0.00
    6   18   15      1.32      0.00
    6   18   16     -1.52      0.00
    6   18   17      1.10      0.00
    6   18   18     -0.96      0.00
    6   18   19      5.91      0.00
    6   18   20     -5.94      0.00
    6   18   21      9.01      0.00
    6   18   22      5.92      0.00
    6   20    0      2.27      0.00
    6   20    1     -1.21      0.00
    6   20    2      1.42      0.00
    6   20    3      2.13      0.00
    6   20    4      0.63      0.00
    6   20    5      0.38      0.00
    6   20    6     -5.93      0.00
    6   20    7      8.03      0.00
    6   20    8     -0.06      0.00
    6   20    9      2.02      0.00
    6   20   10     -3.61      0.00
    6   20   11      4.11      0.00
    6   20   12     -4.02      0.00
    6   20   13     -5.59      0.00
    6   20   14     -6.59      0.00
    6   20   15     -2.85      0.00
    6   20   16      2.73      0.00
    6   20   17      7.03      0.00
    6   20   18     -3.85      0.00
    6   20   19     -4.84      0.00
    6   20   20     -0.11      0.00
    6   22    0     -1.25      0.00
    6   22    1     -2.50      0.00
    6   22    2    -10.42      0.00
    6   22    3      8.74      0.00
    6   22    4    -10.94      0.00
    6   22    5     -1.68      0.00
    6   22    6      2.11      0.00
    6   22    7     -4.07      0.00
    6   22    8     -2.25      0.00
    6   22    9      0.82      0.00
    6   22   10     10.79      0.00
    6   22   11      0.93      0.00
    6   22   12     -2.88      0.00
    6   22   13     -1.26      0.00
    6   22   14     -5.92      0.00
    6   22   15     -1.62      0.00
    6   22   16      3.30      0.00
    6   22   17     -0.03      0.00
    6   24    0     -1.47      0.00
    6   24    1     -7.32      0.00
    6   24    2     -1.01      0.00
    6   24    3     -7.49      0.00
    6   24    4     -2.96      0.00
    6   24    5     -2.65      0.00
    6   24    6    -10.64      0.00
    6   24    7      0.28      0.00
    6   24    8     -4.62      0.00
    6   24    9      0.98      0.00
    6   24   10     -5.18      0.00
    6   24   11      1.45      0.00
    6   24   12      0.59      0.00
    6   24   13     -2.10      0.00
    6   26    0      2.82      0.00
    6   26    1      3.13      0.00
    6   26    2     -3.56      0.00
    6   26    3     -1.85      0.00
    6   26    4     -6.40      0.00
    6   26    5     -2.74      0.00
    6   26    6      6.17      0.00
    7    1    1    -21.76      0.00
    7    1    2      3.53      0.00
    7    1    3    -12.80      0.00
    7    1    4     17.25      0.00
    7    1    5     17.20      0.00
    7    1    6     -3.13      0.00
    7    1    7     19.98      0.00
    7    1    8      9.63      0.00
    7    1    9      0.02      0.00
    7    1   10     -4.92      0.00
    7    1   11      8.87      0.00
    7    1   12      0.37      0.00
    7    1   13     -8.60      0.00
    7    1   14      2.05      0.00
    7    1   15     -6.59      0.00
    7    1   16     -2.05      0.00
    7    1   17     -4.09      0.00
    7    1   18      0.75      0.00
    7    1   19      6.83      0.00
    7    1   20      0.87      0.00
    7    1   21     -5.60      0.00
    7    1   22      0.57      0.00
    7    1   23     -4.86      0.00
    7    1   24     -0.15      0.00
    7    1   25     -0.88      0.00
    7    1   26    -10.28      0.00
    7    1   27      7.26      0.00
    7    1   28     -3.58      0.00
    7    1   29      3.32      0.00
    7    3    1     22.13      0.00
    7    3    2      0.52      0.00
    7    3    3      9.57      0.00
    7    3    4    -21.36      0.00
    7    3    5    -11.73      0.00
    7    3    6      5.48      0.00
    7    3    7     -9.65      0.00
    7    3    8     -8.02      0.00
    7    3    9    -17.97      0.00
    7    3   10     -2.37      0.00
    7    3   11      4.19      0.00
    7    3   12      3.45      0.00
    7    3   13      7.30      0.00
    7    3   14      1.83      0.00
    7    3   15      4.93      0.00
    7    3   16     -0.43      0.00
    7    3   17      4.06      0.00
    7    3   18      3.15      0.00
    7    3   19     -4.37      0.00
    7    3   20     -3.13      0.00
    7    3   21      1.20      0.00
    7    3   22      3.53      0.00
    7    3   23      5.35      0.00
    7    3   24     -5.29      0.00
    7    3   25     -5.53      0.00
    7    3   26      7.25      0.00
    7    3   27     -5.05      0.00
    7    3   28      2.96      0.00
    7    3   29     -9.28      0.00
    7    5    1    -10.13      0.00
    7    5    2      8.60      0.00
    7    5    3    -12.93      0.00
    7    5    4     13.25      0.00
    7    5    5     -3.31      0.00
    7    5    6      4.76      0.00
    7    5    7     -5.12      0.00
    7    5    8    -12.34      0.00
    7    5    9     12.04      0.00
    7    5   10      9.48      0.00
    7    5   11     -0.75      0.00
    7    5   12     -3.73      0.00
    7    5   13      0.79      0.00
    7    5   14     -0.30      0.00
    7    5   15     -0.27      0.00
    7    5   16      4.55      0.00
    7    5   17      0.33      0.00
    7    5   18     -0.74      0.00
    7    5   19     -1.04      0.00
    7    5   20      0.80      0.00
    7    5   21      4.59      0.00
    7    5   22     -2.49      0.00
    7    5   23      9.77      0.00
    7    5   24      4.38      0.00
    7    5   25      8.49      0.00
    7    5   26      7.60      0.00
    7    5   27      2.79      0.00
    7    5   28     -7.26      0.00
    7    5   29     -4.43      0.00
    7    7    1     -1.97      0.00
    7    7    2     -1.68      0.00
    7    7    3     13.72      0.00
    7    7    4    -19.76      0.00
    7    7    5     10.97      0.00
    7    7    6     -2.94      0.00
    7    7    7      2.58      0.00
    7    7    8     12.04      0.00
    7    7    9     -1.67      0.00
    7    7   10     -2.28      0.00
    7    7   11      1.42      0.00
    7    7   12      6.78      0.00
    7    7   13     -1.14      0.00
    7    7   14     -7.44      0.00
    7    7   15      1.80      0.00
    7    7   16      2.34      0.00
    7    7   17      2.18      0.00
    7    7   18     -6.12      0.00
    7    7   19      2.29      0.00
    7    7   20      1.07      0.00
    7    7   21     -3.25      0.00
    7    7   22      4.12      0.00
    7    7   23     -3.16      0.00
    7    7   24     -5.83      0.00
    7    7   25      2.42      0.00
    7    7   26     -6.46      0.00
    7    7   27      1.93      0.00
    7    7   28      3.63      0.00
    7    9    1      9.29      0.00
    7    9    2     -7.09      0.00
    7    9    3      1.05      0.00
    7    9    4     16.66      0.00
    7    9    5    -13.63      0.00
    7    9    6     -9.46      0.00
    7    9    7      4.25      0.00
    7    9    8     -3.64      0.00
    7    9    9      5.86      0.00
    7    9   10     -3.51      0.00
    7    9   11     -2.06      0.00
    7    9   12     -4.15      0.00
    7    9   13     -1.62      0.00
    7    9   14      8.46      0.00
    7    9   15      4.02      0.00
    7    9   16      2.05      0.00
    7    9   17      4.36      0.00
    7    9   18      0.69      0.00
    7    9   19     -1.77      0.00
    7    9   20      7.03      0.00
    7    9   21     -1.17      0.00
    7    9   22     -6.24      0.00
    7    9   23     -0.55      0.00
    7    9   24      1.59      0.00
    7    9   25      2.64      0.00
    7    9   26     -2.95      0.00
    7    9   27     -8.09      0.00
    7   11    1     -3.23      0.00
    7   11    2      3.31      0.00
    7   11    3    -12.32      0.00
    7   11    4     -3.49      0.00
    7   11    5      7.98      0.00
    7   11    6      8.35      0.00
    7   11    7      0.33      0.00
    7   11    8      6.13      0.00
    7   11    9      6.46      0.00
    7   11   10      4.42      0.00
    7   11   11      3.03      0.00
    7   11   12     -4.19      0.00
    7   11   13     -2.97      0.00
    7   11   14     -3.02      0.00
    7   11   15      2.65      0.00
    7   11   16     -6.55      0.00
    7   11   17     -4.98      0.00
    7   11   18     -2.70      0.00
    7   11   19     -4.94      0.00
    7   11   20    -11.96      0.00
    7   11   21      2.42      0.00
    7   11   22     -1.46      0.00
    7   11   23     -6.73      0.00
    7   11   24      5.09      0.00
    7   11   25     -3.01      0.00
    7   11   26      1.56      0.00
    7   11   27    -11.14      0.00
    7   13    1      7.34      0.00
    7   13    2      0.28      0.00
    7   13    3      3.74      0.00
    7   13    4      3.90      0.00
    7   13    5     -1.16      0.00
    7   13    6     -8.19      0.00
    7   13    7      4.91      0.00
    7   13    8     -2.95      0.00
    7   13    9      1.39      0.00
    7   13   10     -7.79      0.00
    7   13   11      1.29      0.00
    7   13   12      2.91      0.00
    7   13   13      0.64      0.00
    7   13   14      5.58      0.00
    7   13   15      0.20      0.00
    7   13   16      0.48      0.00
    7   13   17      1.00      0.00
    7   13   18      2.02      0.00
    7   13   19     16.15      0.00
    7   13   20      7.70      0.00
    7   13   21      6.15      0.00
    7   13   22      1.39      0.00
    7   13   23     16.91      0.00
    7   13   24     -7.64      0.00
    7   13   25      3.92      0.00
    7   15    1     -8.91      0.00
    7   15    2     -0.55      0.00
    7   15    3      2.13      0.00
    7   15    4     -2.93      0.00
    7   15    5     -6.43      0.00
    7   15    6      7.62      0.00
    7   15    7      4.89      0.00
    7   15    8      3.81      0.00
    7   15    9     -1.08      0.00
    7   15   10      2.80      0.00
    7   15   11      2.80      0.00
    7   15   12      1.58      0.00
    7   15   13      1.79      0.00
    7   15   14     -3.01      0.00
    7   15   15     -0.81      0.00
    7   15   16      1.52      0.00
    7   15   17      3.58      0.00
    7   15   18     -1.84      0.00
    7   15   19     -0.44      0.00
    7   15   20     -4.74      0.00
    7   15   21     -7.97      0.00
    7   15   22     -5.32      0.00
    7   15   23     -1.68      0.00
    7   15   24      4.75      0.00
    7   17    1      1.75      0.00
    7   17    2      3.55      0.00
    7   17    3      0.64      0.00
    7   17    4     -3.43      0.00
    7   17    5     -4.31      0.00
    7   17    6     -3.20      0.00
    7   17    7     -5.65      0.00
    7   17    8     -6.38      0.00
    7   17    9     -3.41      0.00
    7   17   10      0.01      0.00
    7   17   11     -3.22      0.00
    7   17   12      0.33      0.00
    7   17   13     -0.92      0.00
    7   17   14      5.32      0.00
    7   17   15     -6.01      0.00
    7   17   16      2.23      0.00
    7   17   17      2.50      0.00
    7   17   18     -2.20      0.00
    7   17   19      2.39      0.00
    7   17   20     -5.26      0.00
    7   17   21      0.87      0.00
    7   17   22      8.73      0.00
    7   19    1      4.72      0.00
    7   19    2     -1.69      0.00
    7   19    3      2.79      0.00
    7   19    4      0.52      0.00
    7   19    5      0.72      0.00
    7   19    6     -0.94      0.00
    7   19    7     -0.64      0.00
    7   19    8      7.33      0.00
    7   19    9     -0.55      0.00
    7   19   10      1.71      0.00
    7   19   11      2.12      0.00
    7   19   12      8.67      0.00
    7   19   13      4.04      0.00
    7   19   14      3.19      0.00
    7   19   15      5.05      0.00
    7   19   16     -0.75      0.00
    7   19   17      5.08      0.00
    7   19   18      6.26      0.00
    7   19   19     -6.98      0.00
    7   19   20      1.58      0.00
    7   21    1      6.05      0.00
    7   21    2     -4.24      0.00
    7   21    3      1.27      0.00
    7   21    4      0.24      0.00
    7   21    5     -4.52      0.00
    7   21    6      4.06      0.00
    7   21    7      3.26      0.00
    7   21    8      1.77      0.00
    7   21    9      0.14      0.00
    7   21   10     -1.85      0.00
    7   21   11      6.40      0.00
    7   21   12     -2.91      0.00
    7   21   13      1.61      0.00
    7   21   14      1.24      0.00
    7   21   15     -1.16      0.00
    7   21   16      4.46      0.00
    7   21   17     -4.13      0.00
    7   23    1     -0.71      0.00
    7   23    2     -0.51      0.00
    7   23    3      3.39      0.00
    7   23    4     -0.13      0.00
    7   23    5      5.29      0.00
    7   23    6      6.37      0.00
    7   23    7      3.99      0.00
    7   23    8     -0.45      0.00
    7   23    9      4.57      0.00
    7   23   10     -0.55      0.00
    7   23   11     -8.35      0.00
    7   23   12     -1.52      0.00
    7   23   13     -4.95      0.00
    7   23   14     -2.18      0.00
    7   25    1      4.72      0.00
    7   25    2     -1.38      0.00
    7   25    3      0.50      0.00
    7   25    4     -0.91      0.00
    7   25    5     -2.18      0.00
    7   25    6      0.05      0.00
    7   25    7      2.93      0.00
    7   25    8     10.48      0.00
    8    0    0     21.47      0.00
    8    0    2     -8.67      0.00
    8    0    4    -19.23      0.00
    8    0    6     12.86      0.00
    8    0    8      8.40      0.00
    8    0   10     -2.83      0.00
    8    0   12     16.49      0.00
    8    0   14     -5.68      0.00
    8    0   16      0.69      0.00
    8    0   18     -1.93      0.00
    8    0   20      6.14      0.00
    8    0   22     -4.49      0.00
    8    0   24     -0.40      0.00
    8    0   26     -6.45      0.00
    8    0   28     12.10      0.00
    8    2    0    -13.14      0.00
    8    2    1     -2.24      0.00
    8    2    2     18.33      0.00
    8    2    3     -5.76      0.00
    8    2    4     10.15      0.00
    8    2    5    -11.82      0.00
    8    2    6    -13.27      0.00
    8    2    7     14.40      0.00
    8    2    8     -1.55      0.00
    8    2    9     -3.52      0.00
    8    2   10    -10.00      0.00
    8    2   11      7.63      0.00
    8    2   12     -9.80      0.00
    8    2   13      2.95      0.00
    8    2   14      2.09      0.00
    8    2   15     -1.69      0.00
    8    2   16      0.17      0.00
    8    2   17     -1.12      0.00
    8    2   18      4.31      0.00
    8    2   19      1.56      0.00
    8    2   20     -2.93      0.00
    8    2   21      0.94      0.00
    8    2   22      1.65      0.00
    8    2   23      0.86      0.00
    8    2   24      1.04      0.00
    8    2   25     -6.77      0.00
    8    2   26      5.06      0.00
    8    2   27      3.10      0.00
    8    2   28      3.49      0.00
    8    4    0     18.36      0.00
    8    4    1     -7.17      0.00
    8    4    2    -15.14      0.00
    8    4    3     12.04      0.00
    8    4    4     -1.77      0.00
    8    4    5     10.86      0.00
    8    4    6     10.31      0.00
    8    4    7     -4.66      0.00
    8    4    8     -8.03      0.00
    8    4    9     -0.24      0.00
    8    4   10     13.44      0.00
    8    4   11      6.66      0.00
    8    4   12      0.26      0.00
    8    4   13     -1.64      0.00
    8    4   14     -1.07      0.00
    8    4   15     -4.45      0.00
    8    4   16     -2.06      0.00
    8    4   17      4.81      0.00
    8    4   18     -4.88      0.00
    8    4   19     -4.73      0.00
    8    4   20      0.05      0.00
    8    4   21      0.43      0.00
    8    4   22      4.11      0.00
    8    4   23     -1.26      0.00
    8    4   24     -3.69      0.00
    8    4   25      4.10      0.00
    8    4   26      0.11      0.00
    8    4   27      0.75      0.00
    8    4   28     -4.42      0.00
    8    6    0    -11.70      0.00
    8    6    1     18.13      0.00
    8    6    2     -2.92      0.00
    8    6    3    -10.50      0.00
    8    6    4     -0.15      0.00
    8    6    5     -9.42      0.00
    8    6    6     -4.78      0.00
    8    6    7     -2.09      0.00
    8    6    8      5.74      0.00
    8    6    9      6.38      0.00
    8    6   10     -1.14      0.00
    8    6   11     -2.76      0.00
    8    6   12      2.99      0.00
    8    6   13      3.62      0.00
    8    6   14      0.52      0.00
    8    6   15     -1.53      0.00
    8    6   16     -2.26      0.00
    8    6   17      0.39      0.00
    8    6   18     -4.15      0.00
    8    6   19     -3.61      0.00
    8    6   20     -1.06      0.00
    8    6   21      4.82      0.00
    8    6   22     -1.06      0.00
    8    6   23     -0.70      0.00
    8    6   24      0.99      0.00
    8    6   25     -2.61      0.00
    8    6   26      6.44      0.00
    8    6   27    -17.70      0.00
    8    6   28     -1.87      0.00
    8    8    0      4.99      0.00
    8    8    1     -8.29      0.00
    8    8    2      6.65      0.00
    8    8    3     -0.47      0.00
    8    8    4      0.66      0.00
    8    8    5     20.09      0.00
    8    8    6     -1.33      0.00
    8    8    7      1.29      0.00
    8    8    8     -4.78      0.00
    8    8    9     -1.32      0.00
    8    8   10     -4.29      0.00
    8    8   11      0.80      0.00
    8    8   12     -3.18      0.00
    8    8   13     -3.86      0.00
    8    8   14     -3.55      0.00
    8    8   15      4.43      0.00
    8    8   16      1.92      0.00
    8    8   17     -5.74      0.00
    8    8   18     -2.36      0.00
    8    8   19     -1.72      0.00
    8    8   20      4.68      0.00
    8    8   21     10.30      0.00
    8    8   22     -1.47      0.00
    8    8   23      1.39      0.00
    8    8   24     -2.40      0.00
    8    8   25      2.39      0.00
    8    8   26      0.59      0.00
    8    8   27      6.98      0.00
    8   10    0     -0.16      0.00
    8   10    1      4.93      0.00
    8   10    2      4.68      0.00
    8   10    3      5.55      0.00
    8   10    4     -3.14      0.00
    8   10    5     -4.83      0.00
    8   10    6      6.78      0.00
    8   10    7     -1.18      0.00
    8   10    8      3.65      0.00
    8   10    9     -0.38      0.00
    8   10   10      0.61      0.00
    8   10   11      1.55      0.00
    8   10   12      0.46      0.00
    8   10   13      2.27      0.00
    8   10   14     -0.60      0.00
    8   10   15      3.04      0.00
    8   10   16      1.94      0.00
    8   10   17     -5.04      0.00
    8   10   18      2.07      0.00
    8   10   19      2.88      0.00
    8   10   20      4.68      0.00
    8   10   21    -14.71      0.00
    8   10   22      6.21      0.00
    8   10   23     -6.89      0.00
    8   10   24      0.88      0.00
    8   10   25     -3.73      0.00
    8   10   26     -4.51      0.00
    8   12    0     -7.93      0.00
    8   12    1     -4.80      0.00
    8   12    2     -4.09      0.00
    8   12    3      0.01      0.00
    8   12    4      7.68      0.00
    8   12    5      8.16      0.00
    8   12    6     -8.36      0.00
    8   12    7      7.34      0.00
    8   12    8      0.63      0.00
    8   12    9     -1.36      0.00
    8   12   10      2.51      0.00
    8   12   11     -6.75      0.00
    8   12   12      4.82      0.00
    8   12   13      2.30      0.00
    8   12   14      1.29      0.00
    8   12   15      5.64      0.00
    8   12   16     -1.10      0.00
    8   12   17      4.74      0.00
    8   12   18     -2.43      0.00
    8   12   19      3.44      0.00
    8   12   20      1.49      0.00
    8   12   21      3.69      0.00
    8   12   22     -5.33      0.00
    8   12   23      6.99      0.00
    8   12   24     10.92      0.00
    8   12   25     -8.62      0.00
    8   14    0      9.52      0.00
    8   14    1     -1.75      0.00
    8   14    2     -5.03      0.00
    8   14    3      2.81      0.00
    8   14    4      0.35      0.00
    8   14    5     -5.94      0.00
    8   14    6      0.49      0.00
    8   14    7     -2.17      0.00
    8   14    8     -2.81      0.00
    8   14    9      0.10      0.00
    8   14   10     -3.12      0.00
    8   14   11      2.60      0.00
    8   14   12     -1.79      0.00
    8   14   13     -2.76      0.00
    8   14   14      4.14      0.00
    8   14   15     -8.17      0.00
    8   14   16     -5.45      0.00
    8   14   17      8.10      0.00
    8   14   18     -0.08      0.00
    8   14   19     -3.67      0.00
    8   14   20      1.13      0.00
    8   14   21     -7.66      0.00
    8   14   22      1.74      0.00
    8   14   23     -5.11      0.00
    8   14   24      1.93      0.00
    8   16    0     -1.11      0.00
    8   16    1      1.80      0.00
    8   16    2     -0.23      0.00
    8   16    3     -1.03      0.00
    8   16    4      1.20      0.00
    8   16    5      4.13      0.00
    8   16    6      2.43      0.00
    8   16    7      3.22      0.00
    8   16    8     -3.19      0.00
    8   16    9     -2.39      0.00
    8   16   10      3.45      0.00
    8   16   11      1.75      0.00
    8   16   12      0.83      0.00
    8   16   13     -2.08      0.00
    8   16   14     -0.93      0.00
    8   16   15      2.61      0.00
    8   16   16     -5.31      0.00
    8   16   17     -2.94      0.00
    8   16   18      4.08      0.00
    8   16   19      2.80      0.00
    8   16   20     -1.08      0.00
    8   16   21      1.02      0.00
    8   16   22      7.72      0.00
    8   18    0     -0.23      0.00
    8   18    1     -0.59      0.00
    8   18    2      2.68      0.00
    8   18    3     -6.64      0.00
    8   18    4      3.37      0.00
    8   18    5     -3.90      0.00
    8   18    6      6.66      0.00
    8   18    7     -3.21      0.00
    8   18    8      4.67      0.00
    8   18    9      5.62      0.00
    8   18   10      3.53      0.00
    8   18   11     -3.58      0.00
    8   18   12     -2.36      0.00
    8   18   13     -1.83      0.00
    8   18   14     -5.47      0.00
    8   18   15     -0.84      0.00
    8   18   16      2.15      0.00
    8   18   17      1.92      0.00
    8   18   18      4.53      0.00
    8   18   19     -3.32      0.00
    8   18   20      0.92      0.00
    8   20    0      0.49      0.00
    8   20    1      7.76      0.00
    8   20    2      3.62      0.00
    8   20    3      2.96      0.00
    8   20    4      7.39      0.00
    8   20    5      1.17      0.00
    8   20    6      1.53      0.00
    8   20    7      5.33      0.00
    8   20    8     -2.85      0.00
    8   20    9     -1.71      0.00
    8   20   10      1.30      0.00
    8   20   11     -0.57      0.00
    8   20   12      8.73      0.00
    8   20   13     -9.31      0.00
    8   20   14      4.21      0.00
    8   20   15     -9.82      0.00
    8   20   16      3.28      0.00
    8   20   17     -3.21      0.00
    8   20   18     -7.33      0.00
    8   22    0      5.29      0.00
    8   22    1      0.44      0.00
    8   22    2      2.90      0.00
    8   22    3     -7.76      0.00
    8   22    4      5.61      0.00
    8   22    5     -2.69      0.00
    8   22    6      6.03      0.00
    8   22    7      2.96      0.00
    8   22    8     -0.32      0.00
    8   22    9     -2.09      0.00
    8   22   10     -0.43      0.00
    8   22   11      5.04      0.00
    8   22   12     -5.03      0.00
    8   22   13      0.74      0.00
    8   22   14     -0.44      0.00
    8   24    0     -0.39      0.00
    8   24    1      8.24      0.00
    8   24    2      1.93      0.00
    8   24    3      9.65      0.00
    8   24    4      3.82      0.00
    8   24    5      6.74      0.00
    8   24    6      9.13      0.00
    8   24    7     -8.85      0.00
    8   24    8      7.58      0.00
    8   24    9     -0.48      0.00
    8   24   10      2.06      0.00
    9    1    1     -2.92      0.00
    9    1    2     -1.96      0.00
    9    1    3      4.77      0.00
    9    1    4     -4.21      0.00
    9    1    5      8.90      0.00
    9    1    6     -5.72      0.00
    9    1    7    -11.39      0.00
    9    1    8      1.26      0.00
    9    1    9     -1.40      0.00
    9    1   10     -8.04      0.00
    9    1   11      7.86      0.00
    9    1   12      3.50      0.00
    9    1   13    -10.26      0.00
    9    1   14      2.22      0.00
    9    1   15      7.19      0.00
    9    1   16     -3.69      0.00
    9    1   17      0.86      0.00
    9    1   18     -0.89      0.00
    9    1   19     -5.44      0.00
    9    1   20     -1.78      0.00
    9    1   21      0.83      0.00
    9    1   22     -0.71      0.00
    9    1   23      3.27      0.00
    9    1   24     -0.12      0.00
    9    1   25     -6.40      0.00
    9    1   26     -0.77      0.00
    9    1   27      2.64      0.00
    9    1   28     -2.23      0.00
    9    3    1     10.09      0.00
    9    3    2     -5.90      0.00
    9    3    3    -13.60      0.00
    9    3    4      9.95      0.00
    9    3    5     -0.73      0.00
    9    3    6     11.36      0.00
    9    3    7     17.91      0.00
    9    3    8     -4.45      0.00
    9    3    9     -1.70      0.00
    9    3   10      1.94      0.00
    9    3   11      5.48      0.00
    9    3   12     -4.24      0.00
    9    3   13     -1.01      0.00
    9    3   14     -2.83      0.00
    9    3   15      1.30      0.00
    9    3   16     -1.88      0.00
    9    3   17      0.79      0.00
    9    3   18      2.35      0.00
    9    3   19     -0.33      0.00
    9    3   20     -2.15      0.00
    9    3   21     -5.22      0.00
    9    3   22     -1.14      0.00
    9    3   23      6.15      0.00
    9    3   24     -3.18      0.00
    9    3   25      0.33      0.00
    9    3   26      6.57      0.00
    9    3   27      3.69      0.00
    9    3   28     -2.39      0.00
    9    5    1     -9.21      0.00
    9    5    2     14.30      0.00
    9    5    3     13.26      0.00
    9    5    4    -12.09      0.00
    9    5    5      8.84      0.00
    9    5    6     -6.46      0.00
    9    5    7     -9.19      0.00
    9    5    8     -1.29      0.00
    9    5    9      2.10      0.00
    9    5   10      2.72      0.00
    9    5   11     -7.11      0.00
    9    5   12      0.53      0.00
    9    5   13      0.54      0.00
    9    5   14      0.04      0.00
    9    5   15     -7.25      0.00
    9    5   16     -2.02      0.00
    9    5   17      4.53      0.00
    9    5   18     -0.73      0.00
    9    5   19     -0.76      0.00
    9    5   20      1.87      0.00
    9    5   21      4.41      0.00
    9    5   22      4.07      0.00
    9    5   23    -12.08      0.00
    9    5   24     -1.27      0.00
    9    5   25      2.49      0.00
    9    5   26     -0.98      0.00
    9    5   27      5.15      0.00
    9    7    1      1.00      0.00
    9    7    2    -14.13      0.00
    9    7    3     -0.10      0.00
    9    7    4      3.60      0.00
    9    7    5    -11.14      0.00
    9    7    6      5.48      0.00
    9    7    7      4.91      0.00
    9    7    8     -0.90      0.00
    9    7    9      3.84      0.00
    9    7   10     -3.53      0.00
    9    7   11     -0.29      0.00
    9    7   12     -2.64      0.00
    9    7   13     -3.35      0.00
    9    7   14     -6.87      0.00
    9    7   15     -1.48      0.00
    9    7   16      4.29      0.00
    9    7   17     -2.09      0.00
    9    7   18     -1.94      0.00
    9    7   19      0.07      0.00
    9    7   20      1.35      0.00
    9    7   21      4.50      0.00
    9    7   22     -3.58      0.00
    9    7   23      0.69      0.00
    9    7   24      2.68      0.00
    9    7   25     -2.70      0.00
    9    7   26     -2.87      0.00
    9    7   27    -10.11      0.00
    9    9    1     -4.77      0.00
    9    9    2      8.02      0.00
    9    9    3     -0.76      0.00
    9    9    4      0.08      0.00
    9    9    5      4.90      0.00
    9    9    6     -6.63      0.00
    9    9    7     -6.99      0.00
    9    9    8     -2.60      0.00
    9    9    9      1.70      0.00
    9    9   10      2.68      0.00
    9    9   11      6.68      0.00
    9    9   12     -3.22      0.00
    9    9   13      5.55      0.00
    9    9   14     -2.07      0.00
    9    9   15      3.78      0.00
    9    9   16     -0.62      0.00
    9    9   17     -3.27      0.00
    9    9   18      1.73      0.00
    9    9   19      3.81      0.00
    9    9   20     14.11      0.00
    9    9   21     -4.92      0.00
    9    9   22     -1.38      0.00
    9    9   23      1.95      0.00
    9    9   24      3.14      0.00
    9    9   25      9.25      0.00
    9    9   26      3.31      0.00
    9   11    1      5.99      0.00
    9   11    2     -4.80      0.00
    9   11    3     -1.68      0.00
    9   11    4      0.25      0.00
    9   11    5     -1.41      0.00
    9   11    6     -2.39      0.00
    9   11    7     -5.41      0.00
    9   11    8      4.76      0.00
    9   11    9     -8.82      0.00
    9   11   10     -3.52      0.00
    9   11   11     -3.69      0.00
    9   11   12     -0.21      0.00
    9   11   13     -0.52      0.00
    9   11   14      3.60      0.00
    9   11   15      2.62      0.00
    9   11   16     -2.09      0.00
    9   11   17      2.90      0.00
    9   11   18     -0.50      0.00
    9   11   19      3.63      0.00
    9   11   20      0.10      0.00
    9   11   21     -1.02      0.00
    9   11   22     -3.26      0.00
    9   11   23    -13.88      0.00
    9   11   24     -1.45      0.00
    9   11   25     -4.34      0.00
    9   13    1      6.69      0.00
    9   13    2      2.97      0.00
    9   13    3     -0.19      0.00
    9   13    4     -0.23      0.00
    9   13    5     -2.32      0.00
    9   13    6     -0.16      0.00
    9   13    7      4.36      0.00
    9   13    8     -0.65      0.00
    9   13    9      0.38      0.00
    9   13   10      3.65      0.00
    9   13   11     -2.35      0.00
    9   13   12      0.48      0.00
    9   13   13     -6.96      0.00
    9   13   14      0.87      0.00
    9   13   15      5.67      0.00
    9   13   16     -1.08      0.00
    9   13   17     -6.14      0.00
    9   13   18      7.29      0.00
    9   13   19     -9.09      0.00
    9   13   20     -0.32      0.00
    9   13   21     -9.28      0.00
    9   13   22      2.65      0.00
    9   13   23      4.57      0.00
    9   13   24     -6.33      0.00
    9   15    1     -0.96      0.00
    9   15    2      2.87      0.00
    9   15    3      1.71      0.00
    9   15    4     -4.79      0.00
    9   15    5     -1.78      0.00
    9   15    6     -3.88      0.00
    9   15    7     -2.79      0.00
    9   15    8     -0.56      0.00
    9   15    9     -7.48      0.00
    9   15   10     -1.26      0.00
    9   15   11     -2.92      0.00
    9   15   12      1.24      0.00
    9   15   13     -2.65      0.00
    9   15   14      0.01      0.00
    9   15   15     -3.39      0.00
    9   15   16      7.47      0.00
    9   15   17     -3.49      0.00
    9   15   18     -0.55      0.00
    9   15   19      5.11      0.00
    9   15   20     -0.96      0.00
    9   15   21      2.94      0.00
    9   15   22      7.88      0.00
    9   17    1     -4.71      0.00
    9   17    2      1.09      0.00
    9   17    3      1.81      0.00
    9   17    4      6.79      0.00
    9   17    5      4.56      0.00
    9   17    6     -3.22      0.00
    9   17    7      4.26      0.00
    9   17    8     -4.38      0.00
    9   17    9      4.75      0.00
    9   17   10      0.76      0.00
    9   17   11      1.26      0.00
    9   17   12     -3.72      0.00
    9   17   13      3.53      0.00
    9   17   14     -3.63      0.00
    9   17   15     -0.84      0.00
    9   17   16     -6.15      0.00
    9   17   17      3.17      0.00
    9   17   18      6.21      0.00
    9   17   19     -5.11      0.00
    9   17   20      5.52      0.00
    9   19    1     -1.54      0.00
    9   19    2      1.23      0.00
    9   19    3     -0.73      0.00
    9   19    4     -0.89      0.00
    9   19    5      5.53      0.00
    9   19    6     -5.66      0.00
    9   19    7      0.99      0.00
    9   19    8     -2.22      0.00
    9   19    9     -6.66      0.00
    9   19   10     -4.36      0.00
    9   19   11    -11.87      0.00
    9   19   12      1.38      0.00
    9   19   13     -6.94      0.00
    9   19   14     -0.04      0.00
    9   19   15      3.08      0.00
    9   19   16      3.72      0.00
    9   19   17      5.21      0.00
    9   19   18     -5.16      0.00
    9   21    1     -3.42      0.00
    9   21    2      7.03      0.00
    9   21    3     -1.89      0.00
    9   21    4      0.08      0.00
    9   21    5     -1.14      0.00
    9   21    6     -3.34      0.00
    9   21    7      0.09      0.00
    9   21    8     -2.45      0.00
    9   21    9      3.22      0.00
    9   21   10     -4.04      0.00
    9   21   11     -4.78      0.00
    9   21   12     -1.49      0.00
    9   21   13     -5.62      0.00
    9   21   14     -2.29      0.00
    9   21   15      4.24      0.00
    9   23    1     -1.37      0.00
    9   23    2     -6.88      0.00
    9   23    3     -1.61      0.00
    9   23    4      1.88      0.00
    9   23    5     -6.85      0.00
    9   23    6      4.42      0.00
    9   23    7     -4.00      0.00
    9   23    8     -6.54      0.00
    9   23    9     -3.52      0.00
    9   23   10      5.88      0.00
   10    0    0    -16.60      0.00
   10    0    2      5.19      0.00
   10    0    4      6.50      0.00
   10    0    6      2.02      0.00
   10    0    8    -11.00      0.00
   10    0   10     -6.64      0.00
   10    0   12      7.88      0.00
   10    0   14    -14.15      0.00
   10    0   16      2.31      0.00
   10    0   18      1.44      0.00
   10    0   20     -7.74      0.00
   10    0   22      0.83      0.00
   10    0   24     10.64      0.00
   10    0   26    -12.96      0.00
   10    2    0      7.67      0.00
   10    2    1      2.59      0.00
   10    2    2     -0.07      0.00
   10    2    3      1.70      0.00
   10    2    4     -6.92      0.00
   10    2    5      4.50      0.00
   10    2    6     -3.64      0.00
   10    2    7     -1.24      0.00
   10    2    8      7.38      0.00
   10    2    9     -8.58      0.00
   10    2   10      3.80      0.00
   10    2   11      1.78      0.00
   10    2   12      1.86      0.00
   10    2   13     -5.03      0.00
   10    2   14      4.16      0.00
   10    2   15     -2.93      0.00
   10    2   16     -4.00      0.00
   10    2   17      5.05      0.00
   10    2   18     -0.11      0.00
   10    2   19      0.16      0.00
   10    2   20      3.64      0.00
   10    2   21      2.93      0.00
   10    2   22     -4.30      0.00
   10    2   23     -3.09      0.00
   10    2   24     -4.17      0.00
   10    2   25     -3.29      0.00
   10    2   26      2.28      0.00
   10    2   27     -6.20      0.00
   10    4    0      6.27      0.00
   10    4    1     -3.94      0.00
   10    4    2     -8.68      0.00
   10    4    3      3.50      0.00
   10    4    4      8.08      0.00
   10    4    5     -4.11      0.00
   10    4    6      3.93      0.00
   10    4    7     -0.32      0.00
   10    4    8     -7.66      0.00
   10    4    9      3.04      0.00
   10    4   10     -1.02      0.00
   10    4   11     -0.06      0.00
   10    4   12     -4.30      0.00
   10    4   13      6.33      0.00
   10    4   14      7.73      0.00
   10    4   15      7.89      0.00
   10    4   16     -3.44      0.00
   10    4   17     -1.58      0.00
   10    4   18      3.21      0.00
   10    4   19     -1.75      0.00
   10    4   20     -1.88      0.00
   10    4   21      3.61      0.00
   10    4   22      5.28      0.00
   10    4   23      8.62      0.00
   10    4   24    -10.19      0.00
   10    4   25      3.15      0.00
   10    4   26      4.23      0.00
   10    6    0     -2.07      0.00
   10    6    1     -0.75      0.00
   10    6    2      1.86      0.00
   10    6    3     -8.14      0.00
   10    6    4     -1.48      0.00
   10    6    5      4.72      0.00
   10    6    6     -8.60      0.00
   10    6    7      2.03      0.00
   10    6    8      0.72      0.00
   10    6    9     -2.84      0.00
   10    6   10      2.99      0.00
   10    6   11      1.70      0.00
   10    6   12     -2.74      0.00
   10    6   13     -1.53      0.00
   10    6   14     -5.02      0.00
   10    6   15     -5.10      0.00
   10    6   16      9.18      0.00
   10    6   17      7.19      0.00
   10    6   18      0.34      0.00
   10    6   19     -1.07      0.00
   10    6   20      3.97      0.00
   10    6   21      0.65      0.00
   10    6   22      1.10      0.00
   10    6   23     -4.21      0.00
   10    6   24      5.67      0.00
   10    6   25      6.21      0.00
   10    6   26     -1.71      0.00
   10    8    0     -3.44      0.00
   10    8    1     -4.48      0.00
   10    8    2     -5.04      0.00
   10    8    3      5.49      0.00
   10    8    4     -7.18      0.00
   10    8    5     -4.76      0.00
   10    8    6      7.90      0.00
   10    8    7     -5.65      0.00
   10    8    8     -2.14      0.00
   10    8    9      0.79      0.00
   10    8   10     -6.77      0.00
   10    8   11      0.66      0.00
   10    8   12      4.05      0.00
   10    8   13      4.06      0.00
   10    8   14     -0.74      0.00
   10    8   15      4.25      0.00
   10    8   16      7.71      0.00
   10    8   17     -3.74      0.00
   10    8   18     -3.58      0.00
   10    8   19     -7.64      0.00
   10    8   20     -0.01      0.00
   10    8   21     -4.50      0.00
   10    8   22    -14.14      0.00
   10    8   23      1.77      0.00
   10    8   24     -2.66      0.00
   10    8   25      0.17      0.00
   10   10    0     -6.98      0.00
   10   10    1      1.56      0.00
   10   10    2      7.97      0.00
   10   10    3     -5.32      0.00
   10   10    4      2.85      0.00
   10   10    5      2.74      0.00
   10   10    6     -2.58      0.00
   10   10    7      5.42      0.00
   10   10    8      3.20      0.00
   10   10    9      1.72      0.00
   10   10   10     -2.01      0.00
   10   10   11     -2.11      0.00
   10   10   12     -2.71      0.00
   10   10   13     -2.69      0.00
   10   10   14     -3.38      0.00
   10   10   15      2.17      0.00
   10   10   16     -6.77      0.00
   10   10   17      1.63      0.00
   10   10   18      1.71      0.00
   10   10   19     -1.50      0.00
   10   10   20     -1.21      0.00
   10   10   21      1.09      0.00
   10   10   22      2.53      0.00
   10   10   23      9.77      0.00
   10   10   24      3.23      0.00
   10   12    0      5.77      0.00
   10   12    1      0.86      0.00
   10   12    2     -2.26      0.00
   10   12    3      2.80      0.00
   10   12    4     -4.17      0.00
   10   12    5     -4.00      0.00
   10   12    6     -0.39      0.00
   10   12    7     -6.04      0.00
   10   12    8      1.10      0.00
   10   12    9     -4.29      0.00
   10   12   10     -0.52      0.00
   10   12   11      3.37      0.00
   10   12   12      1.42      0.00
   10   12   13      1.85      0.00
   10   12   14      2.01      0.00
   10   12   15     -5.29      0.00
   10   12   16      6.11      0.00
   10   12   17     -3.67      0.00
   10   12   18      4.45      0.00
   10   12   19      4.86      0.00
   10   12   20     -0.61      0.00
   10   12   21    -10.62      0.00
   10   12   22    -11.28      0.00
   10   12   23      3.66      0.00
   10   14    0     -1.31      0.00
   10   14    1      0.33      0.00
   10   14    2     -3.35      0.00
   10   14    3     -2.28      0.00
   10   14    4      2.08      0.00
   10   14    5      2.06      0.00
   10   14    6      3.09      0.00
   10   14    7      0.98      0.00
   10   14    8     -0.54      0.00
   10   14    9      0.57      0.00
   10   14   10      0.72      0.00
   10   14   11     -2.41      0.00
   10   14   12      1.93      0.00
   10   14   13      6.72      0.00
   10   14   14      0.12      0.00
   10   14   15     10.99      0.00
   10   14   16     -7.38      0.00
   10   14   17      3.49      0.00
   10   14   18     -2.03      0.00
   10   14   19     -0.73      0.00
   10   14   20      3.52      0.00
   10   14   21     -4.13      0.00
   10   14   22      0.13      0.00
   10   16    0      7.20      0.00
   10   16    1     -1.77      0.00
   10   16    2     -4.93      0.00
   10   16    3     -3.85      0.00
   10   16    4     -6.73      0.00
   10   16    5      6.20      0.00
   10   16    6     -3.78      0.00
   10   16    7      0.28      0.00
   10   16    8     -2.23      0.00
   10   16    9      0.87      0.00
   10   16   10      0.54      0.00
   10   16   11      4.88      0.00
   10   16   12     -3.45      0.00
   10   16   13      3.83      0.00
   10   16   14      2.61      0.00
   10   16   15      1.64      0.00
   10   16   16     -0.42      0.00
   10   16   17     -4.34      0.00
   10   16   18      1.66      0.00
   10   16   19     -3.45      0.00
   10   16   20     -6.55      0.00
   10   18    0     -5.42      0.00
   10   18    1      3.73      0.00
   10   18    2     -1.65      0.00
   10   18    3      7.43      0.00
   10   18    4     -7.36      0.00
   10   18    5     -5.04      0.00
   10   18    6     -2.27      0.00
   10   18    7     -8.55      0.00
   10   18    8      0.41      0.00
   10   18    9     -7.84      0.00
   10   18   10      7.08      0.00
   10   18   11     -3.41      0.00
   10   18   12      5.62      0.00
   10   18   13      5.24      0.00
   10   18   14      2.02      0.00
   10   18   15     -1.81      0.00
   10   18   16      0.64      0.00
   10   18   17      8.90      0.00
   10   18   18      0.96      0.00
   10   20    0      4.01      0.00
   10   20    1     -9.12      0.00
   10   20    2     -2.76      0.00
   10   20    3     -1.75      0.00
   10   20    4     -3.69      0.00
   10   20    5     -1.88      0.00
   10   20    6     -8.75      0.00
   10   20    7     -2.06      0.00
   10   20    8     -0.30      0.00
   10   20    9     -0.69      0.00
   10   20   10      1.29      0.00
   10   20   11      3.87      0.00
   10   20   12     -2.27      0.00
   10   20   13      7.99      0.00
   10   20   14     -3.46      0.00
   10   20   15     10.61      0.00
   10   22    0     -6.54      0.00
   10   22    1      8.05      0.00
   10   22    2     -0.45      0.00
   10   22    3      1.66      0.00
   10   22    4      1.47      0.00
   10   22    5      3.44      0.00
   10   22    6     -2.06      0.00
   10   22    7      4.94      0.00
   10   22    8      1.16      0.00
   10   22    9    -10.53      0.00
   10   22   10     -0.51      0.00
   10   22   11     -2.27      0.00
   10   24    0      0.13      0.00
   10   24    1     -6.01      0.00
   10   24    2     -1.55      0.00
   11    1    1     12.54      0.00
   11    1    2      0.62      0.00
   11    1    3      2.14      0.00
   11    1    4      1.67      0.00
   11    1    5     -5.36      0.00
   11    1    6      3.78      0.00
   11    1    7     -0.74      0.00
   11    1    8      4.23      0.00
   11    1    9     -0.28      0.00
   11    1   10      1.13      0.00
   11    1   11      0.17      0.00
   11    1   12      4.52      0.00
   11    1   13     -6.22      0.00
   11    1   14     -1.05      0.00
   11    1   15      4.04      0.00
   11    1   16     -0.68      0.00
   11    1   17     -3.72      0.00
   11    1   18      2.64      0.00
   11    1   19     -1.81      0.00
   11    1   20     -0.87      0.00
   11    1   21      3.03      0.00
   11    1   22      4.77      0.00
   11    1   23     -1.71      0.00
   11    1   24     -2.18      0.00
   11    1   25    -15.84      0.00
   11    1   26      4.32      0.00
   11    3    1     -1.24      0.00
   11    3    2      0.29      0.00
   11    3    3      0.30      0.00
   11    3    4     -3.89      0.00
   11    3    5      5.13      0.00
   11    3    6     -6.74      0.00
   11    3    7     -3.15      0.00
   11    3    8     -4.75      0.00
   11    3    9     -3.31      0.00
   11    3   10      0.14      0.00
   11    3   11     -1.31      0.00
   11    3   12     -2.46      0.00
   11    3   13     -5.03      0.00
   11    3   14      1.07      0.00
   11    3   15      3.30      0.00
   11    3   16      4.20      0.00
   11    3   17     -4.29      0.00
   11    3   18      0.36      0.00
   11    3   19      1.08      0.00
   11    3   20     -2.31      0.00
   11    3   21     -2.20      0.00
   11    3   22     -8.52      0.00
   11    3   23      2.22      0.00
   11    3   24      2.75      0.00
   11    3   25    -12.04      0.00
   11    3   26      4.59      0.00
   11    5    1     -1.83      0.00
   11    5    2     -5.66      0.00
   11    5    3      0.05      0.00
   11    5    4      2.93      0.00
   11    5    5     -4.25      0.00
   11    5    6      1.43      0.00
   11    5    7     -1.48      0.00
   11    5    8      0.67      0.00
   11    5    9      3.54      0.00
   11    5   10     -1.56      0.00
   11    5   11      8.33      0.00
   11    5   12      4.88      0.00
   11    5   13     10.72      0.00
   11    5   14      4.61      0.00
   11    5   15     -9.65      0.00
   11    5   16     -8.00      0.00
   11    5   17      6.15      0.00
   11    5   18      1.07      0.00
   11    5   19     -7.40      0.00
   11    5   20      6.64      0.00
   11    5   21      5.44      0.00
   11    5   22      0.19      0.00
   11    5   23     -3.82      0.00
   11    5   24     -2.79      0.00
   11    5   25      7.39      0.00
   11    7    1     -4.51      0.00
   11    7    2      1.50      0.00
   11    7    3      5.60      0.00
   11    7    4      6.14      0.00
   11    7    5     -4.56      0.00
   11    7    6     -1.59      0.00
   11    7    7      2.52      0.00
   11    7    8     -3.75      0.00
   11    7    9      1.22      0.00
   11    7   10      3.28      0.00
   11    7   11     -3.98      0.00
   11    7   12     -0.77      0.00
   11    7   13      4.18      0.00
   11    7   14      3.47      0.00
   11    7   15     -2.82      0.00
   11    7   16      6.61      0.00
   11    7   17     -3.82      0.00
   11    7   18     -4.97      0.00
   11    7   19      0.81      0.00
   11    7   20     -8.65      0.00
   11    7   21      4.70      0.00
   11    7   22     -0.12      0.00
   11    7   23     -6.89      0.00
   11    7   24      5.20      0.00
   11    7   25    -10.64      0.00
   11    9    1      0.03      0.00
   11    9    2      0.99      0.00
   11    9    3      3.38      0.00
   11    9    4     -5.77      0.00
   11    9    5      4.42      0.00
   11    9    6      2.27      0.00
   11    9    7     -6.57      0.00
   11    9    8      5.67      0.00
   11    9    9     -1.29      0.00
   11    9   10     -1.70      0.00
   11    9   11      0.32      0.00
   11    9   12      0.59      0.00
   11    9   13     -8.35      0.00
   11    9   14     -0.56      0.00
   11    9   15      0.24      0.00
   11    9   16     -0.12      0.00
   11    9   17    -13.34      0.00
   11    9   18      1.24      0.00
   11    9   19     -2.10      0.00
   11    9   20     -2.30      0.00
   11    9   21      2.22      0.00
   11    9   22     -5.21      0.00
   11    9   23      5.88      0.00
   11    9   24      4.75      0.00
   11   11    1      4.74      0.00
   11   11    2      1.95      0.00
   11   11    3      1.67      0.00
   11   11    4      4.32      0.00
   11   11    5     -3.12      0.00
   11   11    6      1.09      0.00
   11   11    7      1.95      0.00
   11   11    8     -7.36      0.00
   11   11    9     -0.75      0.00
   11   11   10      3.31      0.00
   11   11   11      1.34      0.00
   11   11   12      1.68      0.00
   11   11   13     -4.08      0.00
   11   11   14      2.81      0.00
   11   11   15     -1.87      0.00
   11   11   16      2.18      0.00
   11   11   17     -1.68      0.00
   11   11   18     -6.61      0.00
   11   11   19     -0.93      0.00
   11   11   20      3.05      0.00
   11   11   21     11.14      0.00
   11   11   22     -1.51      0.00
   11   11   23     13.81      0.00
   11   13    1     -1.03      0.00
   11   13    2     -1.29      0.00
   11   13    3     -5.07      0.00
   11   13    4     -4.37      0.00
   11   13    5      4.20      0.00
   11   13    6      1.01      0.00
   11   13    7     -0.73      0.00
   11   13    8     -1.07      0.00
   11   13    9     -0.64      0.00
   11   13   10      3.22      0.00
   11   13   11      7.18      0.00
   11   13   12     -2.22      0.00
   11   13   13     10.48      0.00
   11   13   14    -10.46      0.00
   11   13   15      3.65      0.00
   11   13   16      7.95      0.00
   11   13   17    -12.21      0.00
   11   13   18      3.54      0.00
   11   13   19     -9.40      0.00
   11   13   20     -3.17      0.00
   11   13   21     -5.63      0.00
   11   15    1      2.10      0.00
   11   15    2     -0.31      0.00
   11   15    3      6.20      0.00
   11   15    4      3.09      0.00
   11   15    5      0.29      0.00
   11   15    6      4.53      0.00
   11   15    7      5.43      0.00
   11   15    8      3.06      0.00
   11   15    9      5.45      0.00
   11   15   10      1.37      0.00
   11   15   11      7.31      0.00
   11   15   12      0.37      0.00
   11   15   13     -3.92      0.00
   11   15   14      4.53      0.00
   11   15   15     -0.92      0.00
   11   15   16     -8.17      0.00
   11   15   17      7.97      0.00
   11   15   18      2.37      0.00
   11   15   19      1.99      0.00
   11   15   20     -9.72      0.00
   11   17    1     -3.76      0.00
   11   17    2     -2.50      0.00
   11   17    3     -4.72      0.00
   11   17    4      4.22      0.00
   11   17    5     -6.36      0.00
   11   17    6     -1.73      0.00
   11   17    7     -8.89      0.00
   11   17    8      1.85      0.00
   11   17    9     -0.17      0.00
   11   17   10     -1.20      0.00
   11   17   11      1.62      0.00
   11   17   12     -3.56      0.00
   11   17   13      5.20      0.00
   11   17   14     -5.48      0.00
   11   17   15      5.45      0.00
   11   17   16     -2.14      0.00
   11   17   17     -5.17      0.00
   11   19    1      2.59      0.00
   11   19    2     -2.30      0.00
   11   19    3     -0.57      0.00
   11   19    4     -2.56      0.00
   11   19    5      0.56      0.00
   11   19    6      4.48      0.00
   11   19    7     -4.82      0.00
   11   19    8      3.68      0.00
   11   19    9      6.73      0.00
   11   19   10      2.01      0.00
   11   19   11      8.52      0.00
   11   19   12      1.63      0.00
   11   19   13     -0.05      0.00
   11   19   14     -4.83      0.00
   11   19   15     -3.63      0.00
   11   21    1     -3.82      0.00
   11   21    2      0.34      0.00
   11   21    3     -2.30      0.00
   11   21    4     -1.48      0.00
   11   21    5      0.88      0.00
   11   21    6      1.42      0.00
   11   21    7     -0.17      0.00
   11   21    8     11.30      0.00
   11   21    9      0.04      0.00
   11   21   10     -0.64      0.00
   11   21   11      3.14      0.00
   11   23    1      3.24      0.00
   11   23    2      4.81      0.00
   12    0    0     -4.82      0.00
   12    0    2      1.60      0.00
   12    0    4     -2.16      0.00
   12    0    6      2.48      0.00
   12    0    8      3.94      0.00
   12    0   10      4.09      0.00
   12    0   12      4.42      0.00
   12    0   14     -1.64      0.00
   12    0   16     10.05      0.00
   12    0   18     -2.72      0.00
   12    0   20      9.70      0.00
   12    0   22     -4.39      0.00
   12    0   24     15.51      0.00
   12    2    0      8.01      0.00
   12    2    1      2.46      0.00
   12    2    2     -3.42      0.00
   12    2    3      2.44      0.00
   12    2    4      2.35      0.00
   12    2    5      1.85      0.00
   12    2    6      0.54      0.00
   12    2    7      5.57      0.00
   12    2    8     -4.12      0.00
   12    2    9      6.24      0.00
   12    2   10     -0.83      0.00
   12    2   11      6.88      0.00
   12    2   12     -1.90      0.00
   12    2   13      1.34      0.00
   12    2   14     -4.32      0.00
   12    2   15     -1.21      0.00
   12    2   16     -6.56      0.00
   12    2   17     -5.41      0.00
   12    2   18      0.57      0.00
   12    2   19     -1.91      0.00
   12    2   20     -4.54      0.00
   12    2   21      5.92      0.00
   12    2   22      1.41      0.00
   12    2   23    -12.53      0.00
   12    2   24     -0.49      0.00
   12    4    0     -3.42      0.00
   12    4    1      6.31      0.00
   12    4    2      1.40      0.00
   12    4    3     -7.02      0.00
   12    4    4      0.20      0.00
   12    4    5      0.39      0.00
   12    4    6     -7.76      0.00
   12    4    7     -4.93      0.00
   12    4    8      1.17      0.00
   12    4    9     -5.79      0.00
   12    4   10     -0.75      0.00
   12    4   11     -3.61      0.00
   12    4   12      0.02      0.00
   12    4   13     -4.96      0.00
   12    4   14      4.54      0.00
   12    4   15      1.96      0.00
   12    4   16    -11.24      0.00
   12    4   17     -1.32      0.00
   12    4   18      3.44      0.00
   12    4   19     -4.52      0.00
   12    4   20     -2.37      0.00
   12    4   21     -0.23      0.00
   12    4   22      1.52      0.00
   12    4   23      2.91      0.00
   12    4   24     -4.81      0.00
   12    6    0      3.05      0.00
   12    6    1     -4.52      0.00
   12    6    2     -5.19      0.00
   12    6    3      7.53      0.00
   12    6    4      4.82      0.00
   12    6    5     -1.13      0.00
   12    6    6      3.18      0.00
   12    6    7      3.25      0.00
   12    6    8      0.75      0.00
   12    6    9      3.76      0.00
   12    6   10      3.69      0.00
   12    6   11      6.58      0.00
   12    6   12      0.09      0.00
   12    6   13     -3.01      0.00
   12    6   14     -0.66      0.00
   12    6   15     -7.54      0.00
   12    6   16     -1.94      0.00
   12    6   17      8.96      0.00
   12    6   18     -4.80      0.00
   12    6   19     12.46      0.00
   12    6   20      2.18      0.00
   12    6   21     -9.49      0.00
   12    6   22      3.70      0.00
   12    6   23     -7.18      0.00
   12    6   24      5.70      0.00
   12    8    0     -3.46      0.00
   12    8    1      3.59      0.00
   12    8    2      1.69      0.00
   12    8    3      1.88      0.00
   12    8    4     -4.47      0.00
   12    8    5     -6.31      0.00
   12    8    6      0.77      0.00
   12    8    7      0.89      0.00
   12    8    8      2.54      0.00
   12    8    9      5.78      0.00
   12    8   10      1.64      0.00
   12    8   11     -2.57      0.00
   12    8   12      9.45      0.00
   12    8   13     -7.14      0.00
   12    8   14     -7.43      0.00
   12    8   15     -9.39      0.00
   12    8   16      9.05      0.00
   12    8   17     -5.94      0.00
   12    8   18     -1.69      0.00
   12    8   19      3.86      0.00
   12    8   20      5.02      0.00
   12    8   21     10.66      0.00
   12    8   22      2.20      0.00
   12    8   23     -6.74      0.00
   12   10    0      0.01      0.00
   12   10    1     -1.52      0.00
   12   10    2      3.47      0.00
   12   10    3     -0.89      0.00
   12   10    4     -3.72      0.00
   12   10    5     -3.11      0.00
   12   10    6     -1.54      0.00
   12   10    7      4.35      0.00
   12   10    8      1.52      0.00
   12   10    9     -7.80      0.00
   12   10   10      0.21      0.00
   12   10   11      2.51      0.00
   12   10   12      0.18      0.00
   12   10   13      1.11      0.00
   12   10   14      0.63      0.00
   12   10   15     -2.13      0.00
   12   10   16     -6.11      0.00
   12   10   17      6.39      0.00
   12   10   18     -5.99      0.00
   12   10   19     -1.17      0.00
   12   10   20     -1.36      0.00
   12   10   21     -0.05      0.00
   12   10   22     -2.12      0.00
   12   12    0     -0.19      0.00
   12   12    1      4.35      0.00
   12   12    2      2.15      0.00
   12   12    3     -0.17      0.00
   12   12    4      1.40      0.00
   12   12    5     -1.31      0.00
   12   12    6      4.34      0.00
   12   12    7     -0.76      0.00
   12   12    8      2.56      0.00
   12   12    9      5.30      0.00
   12   12   10     -5.17      0.00
   12   12   11     -0.90      0.00
   12   12   12     -4.90      0.00
   12   12   13      2.83      0.00
   12   12   14     12.52      0.00
   12   12   15     -9.23      0.00
   12   12   16      8.88      0.00
   12   12   17     -6.28      0.00
   12   12   18      5.00      0.00
   12   12   19      7.27      0.00
   12   12   20      1.36      0.00
   12   12   21      5.92      0.00
   12   14    0     -0.06      0.00
   12   14    1     -2.50      0.00
   12   14    2     -4.06      0.00
   12   14    3     -1.07      0.00
   12   14    4     -2.16      0.00
   12   14    5      2.67      0.00
   12   14    6     -4.91      0.00
   12   14    7     -3.72      0.00
   12   14    8      0.68      0.00
   12   14    9      1.27      0.00
   12   14   10      3.73      0.00
   12   14   11     -1.92      0.00
   12   14   12      3.75      0.00
   12   14   13    -11.32      0.00
   12   14   14     -3.15      0.00
   12   14   15      4.84      0.00
   12   14   16     -6.70      0.00
   12   14   17    -10.08      0.00
   12   14   18     -3.92      0.00
   12   14   19      9.54      0.00
   12   16    0      3.23      0.00
   12   16    1      1.61      0.00
   12   16    2      5.96      0.00
   12   16    3      0.53      0.00
   12   16    4      3.96      0.00
   12   16    5     -0.13      0.00
   12   16    6      5.40      0.00
   12   16    7     -0.99      0.00
   12   16    8     -4.74      0.00
   12   16    9      0.77      0.00
   12   16   10     -0.25      0.00
   12   16   11     -4.61      0.00
   12   16   12    -10.29      0.00
   12   16   13      3.96      0.00
   12   16   14     -0.97      0.00
   12   16   15    -10.94      0.00
   12   16   16     14.45      0.00
   12   16   17     -5.04      0.00
   12   18    0      0.91      0.00
   12   18    1     -5.13      0.00
   12   18    2      3.50      0.00
   12   18    3     -4.50      0.00
   12   18    4      0.81      0.00
   12   18    5     -0.75      0.00
   12   18    6      5.48      0.00
   12   18    7      7.02      0.00
   12   18    8      0.87      0.00
   12   18    9      6.66      0.00
   12   18   10      0.03      0.00
   12   18   11     -3.29      0.00
   12   18   12      0.50      0.00
   12   18   13     -2.36      0.00
   12   18   14      3.05      0.00
   12   20    0      2.74      0.00
   12   20    1      1.49      0.00
   12   20    2     -1.55      0.00
   12   20    3      2.06      0.00
   12   20    4     -1.02      0.00
   12   20    5      0.49      0.00
   12   20    6     -4.05      0.00
   12   20    7     -5.95      0.00
   12   20    8      1.89      0.00
   12   20    9      5.67      0.00
   12   20   10     -5.58      0.00
   12   22    0     -4.32      0.00
   12   22    1     -4.89      0.00
   12   22    2     -1.42      0.00
   13    1    1     -5.67      0.00
   13    1    2     -2.93      0.00
   13    1    3     -2.37      0.00
   13    1    4      0.16      0.00
   13    1    5      7.36      0.00
   13    1    6     -2.42      0.00
   13    1    7      8.21      0.00
   13    1    8     -0.04      0.00
   13    1    9      3.61      0.00
   13    1   10      0.59      0.00
   13    1   11      6.50      0.00
   13    1   12      1.34      0.00
   13    1   13      7.05      0.00
   13    1   14     -2.32      0.00
   13    1   15      5.88      0.00
   13    1   16      2.31      0.00
   13    1   17     -9.70      0.00
   13    1   18      4.40      0.00
   13    1   19      6.93      0.00
   13    1   20     -2.61      0.00
   13    1   21    -10.32      0.00
   13    1   22      6.31      0.00
   13    1   23      9.63      0.00
   13    3    1     -3.98      0.00
   13    3    2      3.22      0.00
   13    3    3      0.09      0.00
   13    3    4     -0.09      0.00
   13    3    5      0.20      0.00
   13    3    6      5.18      0.00
   13    3    7     -2.77      0.00
   13    3    8      2.10      0.00
   13    3    9      8.38      0.00
   13    3   10     -1.09      0.00
   13    3   11      0.75      0.00
   13    3   12      0.07      0.00
   13    3   13     -4.66      0.00
   13    3   14     -6.33      0.00
   13    3   15      5.63      0.00
   13    3   16      0.51      0.00
   13    3   17     -1.64      0.00
   13    3   18     12.20      0.00
   13    3   19      5.83      0.00
   13    3   20      2.79      0.00
   13    3   21      1.22      0.00
   13    3   22     -9.15      0.00
   13    3   23      4.06      0.00
   13    5    1      3.81      0.00
   13    5    2     -7.45      0.00
   13    5    3     -2.22      0.00
   13    5    4      7.16      0.00
   13    5    5     -1.36      0.00
   13    5    6     -0.77      0.00
   13    5    7      4.41      0.00
   13    5    8      0.32      0.00
   13    5    9     -0.86      0.00
   13    5   10     -2.17      0.00
   13    5   11     -8.58      0.00
   13    5   12      0.05      0.00
   13    5   13     -5.76      0.00
   13    5   14     -2.44      0.00
   13    5   15     -5.47      0.00
   13    5   16     -7.15      0.00
   13    5   17      7.15      0.00
   13    5   18     -2.77      0.00
   13    5   19     -6.75      0.00
   13    5   20     11.78      0.00
   13    5   21     -2.36      0.00
   13    5   22     -0.90      0.00
   13    5   23     -3.58      0.00
   13    7    1     -4.88      0.00
   13    7    2      3.78      0.00
   13    7    3      8.27      0.00
   13    7    4      0.79      0.00
   13    7    5     -3.71      0.00
   13    7    6     -0.70      0.00
   13    7    7      1.75      0.00
   13    7    8      4.26      0.00
   13    7    9     -1.27      0.00
   13    7   10      6.54      0.00
   13    7   11      0.61      0.00
   13    7   12      1.38      0.00
   13    7   13      2.64      0.00
   13    7   14      1.00      0.00
   13    7   15     -1.84      0.00
   13    7   16      6.80      0.00
   13    7   17     14.91      0.00
   13    7   18      7.61      0.00
   13    7   19      4.31      0.00
   13    7   20    -10.76      0.00
   13    7   21      1.75      0.00
   13    7   22      4.91      0.00
   13    9    1      2.13      0.00
   13    9    2      0.14      0.00
   13    9    3      2.56      0.00
   13    9    4      1.36      0.00
   13    9    5      3.32      0.00
   13    9    6      3.13      0.00
   13    9    7      4.29      0.00
   13    9    8      0.33      0.00
   13    9    9      5.30      0.00
   13    9   10     -3.36      0.00
   13    9   11     -1.71      0.00
   13    9   12     -3.78      0.00
   13    9   13      0.37      0.00
   13    9   14     -3.78      0.00
   13    9   15     14.07      0.00
   13    9   16     -5.61      0.00
   13    9   17     -0.67      0.00
   13    9   18      4.31      0.00
   13    9   19     -4.09      0.00
   13    9   20      5.43      0.00
   13    9   21     -5.78      0.00
   13   11    1     -8.10      0.00
   13   11    2     -1.99      0.00
   13   11    3     -6.00      0.00
   13   11    4     -3.36      0.00
   13   11    5      1.14      0.00
   13   11    6      7.48      0.00
   13   11    7      3.58      0.00
   13   11    8     -5.68      0.00
   13   11    9      2.04      0.00
   13   11   10      3.56      0.00
   13   11   11     -0.72      0.00
   13   11   12      5.47      0.00
   13   11   13    -11.27      0.00
   13   11   14      4.07      0.00
   13   11   15      3.58      0.00
   13   11   16      3.37      0.00
   13   11   17      4.51      0.00
   13   11   18     -1.09      0.00
   13   11   19     10.48      0.00
   13   11   20      3.92      0.00
   13   13    1      6.01      0.00
   13   13    2      0.51      0.00
   13   13    3     -0.99      0.00
   13   13    4     -0.76      0.00
   13   13    5     -1.86      0.00
   13   13    6      5.51      0.00
   13   13    7     -4.58      0.00
   13   13    8     -1.70      0.00
   13   13    9     -6.86      0.00
   13   13   10      1.21      0.00
   13   13   11      4.35      0.00
   13   13   12      5.33      0.00
   13   13   13      7.49      0.00
   13   13   14     -7.47      0.00
   13   13   15      0.97      0.00
   13   13   16      0.44      0.00
   13   13   17      9.23      0.00
   13   13   18    -10.60      0.00
   13   15    1     -5.10      0.00
   13   15    2      0.81      0.00
   13   15    3      2.63      0.00
   13   15    4      0.94      0.00
   13   15    5      0.07      0.00
   13   15    6     -3.01      0.00
   13   15    7      4.31      0.00
   13   15    8     -5.97      0.00
   13   15    9     -3.65      0.00
   13   15   10     -3.67      0.00
   13   15   11      1.78      0.00
   13   15   12     -4.26      0.00
   13   15   13     -6.10      0.00
   13   15   14     12.19      0.00
   13   15   15    -13.07      0.00
   13   15   16     -3.30      0.00
   13   17    1      3.57      0.00
   13   17    2     -0.50      0.00
   13   17    3      2.91      0.00
   13   17    4     -3.66      0.00
   13   17    5      2.30      0.00
   13   17    6      4.09      0.00
   13   17    7     -2.06      0.00
   13   17    8      3.76      0.00
   13   17    9      2.20      0.00
   13   17   10      4.95      0.00
   13   17   11     -7.19      0.00
   13   17   12      6.26      0.00
   13   17   13      0.12      0.00
   13   19    1     -0.10      0.00
   13   19    2     -3.53      0.00
   13   19    3      0.20      0.00
   13   19    4      0.56      0.00
   13   19    5      4.91      0.00
   13   19    6      2.56      0.00
   13   19    7     -1.75      0.00
   13   19    8     -5.18      0.00
   13   19    9      2.14      0.00
   14    0    0      0.51      0.00
   14    0    2     -5.70      0.00
   14    0    4     -2.10      0.00
   14    0    6     -5.69      0.00
   14    0    8      3.33      0.00
   14    0   10      1.98      0.00
   14    0   12     -5.44      0.00
   14    0   14     -0.54      0.00
   14    0   16     20.76      0.00
   14    0   18    -18.64      0.00
   14    0   20      1.14      0.00
   14    0   22    -12.58      0.00
   14    2    0     -2.52      0.00
   14    2    1     -5.44      0.00
   14    2    2      0.34      0.00
   14    2    3      2.71      0.00
   14    2    4      8.30      0.00
   14    2    5     -0.60      0.00
   14    2    6      2.64      0.00
   14    2    7      2.95      0.00
   14    2    8     -8.10      0.00
   14    2    9     -3.77      0.00
   14    2   10      5.00      0.00
   14    2   11    -16.55      0.00
   14    2   12      1.19      0.00
   14    2   13     -1.53      0.00
   14    2   14     -5.26      0.00
   14    2   15     -4.44      0.00
   14    2   16      4.61      0.00
   14    2   17      3.18      0.00
   14    2   18      5.66      0.00
   14    2   19      4.05      0.00
   14    2   20    -10.05      0.00
   14    2   21     11.01      0.00
   14    4    0      2.82      0.00
   14    4    1      2.55      0.00
   14    4    2      3.27      0.00
   14    4    3      2.01      0.00
   14    4    4      2.63      0.00
   14    4    5      5.58      0.00
   14    4    6     -0.24      0.00
   14    4    7      3.89      0.00
   14    4    8      7.55      0.00
   14    4    9      0.85      0.00
   14    4   10      4.27      0.00
   14    4   11      2.56      0.00
   14    4   12      2.69      0.00
   14    4   13     -3.45      0.00
   14    4   14      5.42      0.00
   14    4   15      6.52      0.00
   14    4   16      4.67      0.00
   14    4   17     -0.68      0.00
   14    4   18     12.33      0.00
   14    4   19    -10.32      0.00
   14    4   20     -5.88      0.00
   14    4   21     -8.32      0.00
   14    6    0      6.72      0.00
   14    6    1     -1.35      0.00
   14    6    2     -0.65      0.00
   14    6    3      1.09      0.00
   14    6    4      6.62      0.00
   14    6    5     -3.60      0.00
   14    6    6     -2.89      0.00
   14    6    7     -5.29      0.00
   14    6    8     -1.96      0.00
   14    6    9     -7.52      0.00
   14    6   10     -3.77      0.00
   14    6   11     -2.35      0.00
   14    6   12      2.05      0.00
   14    6   13      2.28      0.00
   14    6   14      3.12      0.00
   14    6   15     -3.69      0.00
   14    6   16     -2.27      0.00
   14    6   17      1.62      0.00
   14    6   18      0.32      0.00
   14    6   19      7.82      0.00
   14    6   20     -0.45      0.00
   14    6   21     -5.13      0.00
   14    8    0     -2.96      0.00
   14    8    1      0.08      0.00
   14    8    2      3.45      0.00
   14    8    3      1.75      0.00
   14    8    4      2.41      0.00
   14    8    5     -3.36      0.00
   14    8    6      2.87      0.00
   14    8    7      8.37      0.00
   14    8    8     -5.47      0.00
   14    8    9     -4.53      0.00
   14    8   10      2.86      0.00
   14    8   11      1.13      0.00
   14    8   12     -6.61      0.00
   14    8   13      4.62      0.00
   14    8   14     -4.01      0.00
   14    8   15      8.56      0.00
   14    8   16     21.91      0.00
   14    8   17     -6.28      0.00
   14    8   18     -3.92      0.00
   14    8   19     -9.31      0.00
   14    8   20     -5.77      0.00
   14   10    0      6.66      0.00
   14   10    1      1.30      0.00
   14   10    2     -0.29      0.00
   14   10    3      1.19      0.00
   14   10    4     -7.00      0.00
   14   10    5     -8.41      0.00
   14   10    6     -0.52      0.00
   14   10    7     -2.77      0.00
   14   10    8      0.82      0.00
   14   10    9     -5.41      0.00
   14   10   10      2.45      0.00
   14   10   11     -6.44      0.00
   14   10   12      6.41      0.00
   14   10   13      5.70      0.00
   14   10   14     -6.60      0.00
   14   10   15     -1.85      0.00
   14   10   16     -3.82      0.00
   14   10   17      3.69      0.00
   14   10   18     -1.83      0.00
   14   12    0     -8.20      0.00
   14   12    1     -6.14      0.00
   14   12    2      4.03      0.00
   14   12    3      3.67      0.00
   14   12    4      7.79      0.00
   14   12    5      4.83      0.00
   14   12    6      1.56      0.00
   14   12    7     -0.42      0.00
   14   12    8     -1.00      0.00
   14   12    9      3.87      0.00
   14   12   10     -3.65      0.00
   14   12   11      8.61      0.00
   14   12   12     -5.38      0.00
   14   12   13      4.06      0.00
   14   12   14      2.27      0.00
   14   12   15     -0.98      0.00
   14   12   16     -9.15      0.00
   14   12   17      2.61      0.00
   14   14    0      3.45      0.00
   14   14    1      3.24      0.00
   14   14    2     -2.66      0.00
   14   14    3      4.81      0.00
   14   14    4      2.78      0.00
   14   14    5      3.71      0.00
   14   14    6     -1.62      0.00
   14   14    7      7.74      0.00
   14   14    8     -2.02      0.00
   14   14    9      2.93      0.00
   14   14   10     10.64      0.00
   14   14   11     -2.52      0.00
   14   14   12      0.46      0.00
   14   14   13     -4.67      0.00
   14   14   14     -3.49      0.00
   14   14   15      7.91      0.00
   14   16    0     -2.12      0.00
   14   16    1     -0.12      0.00
   14   16    2      2.47      0.00
   14   16    3     -1.57      0.00
   14   16    4     -0.14      0.00
   14   16    5     -6.20      0.00
   14   16    6      0.17      0.00
   14   16    7     -7.69      0.00
   14   16    8     -6.37      0.00
   14   16    9      2.10      0.00
   14   16   10      6.46      0.00
   14   16   11      0.79      0.00
   14   16   12     -2.44      0.00
   14   18    0     -1.10      0.00
   14   18    1      4.44      0.00
   14   18    2     -1.15      0.00
   14   18    3      1.01      0.00
   14   18    4     -1.12      0.00
   14   18    5      2.55      0.00
   14   18    6      2.81      0.00
   14   18    7      0.79      0.00
   14   18    8     -3.35      0.00
   15    1    1      5.62      0.00
   15    1    2      0.62      0.00
   15    1    3     13.88      0.00
   15    1    4      2.09      0.00
   15    1    5     -3.63      0.00
   15    1    6    -11.28      0.00
   15    1    7      6.08      0.00
   15    1    8      3.86      0.00
   15    1    9     -6.99      0.00
   15    1   10      5.81      0.00
   15    1   11     -5.21      0.00
   15    1   12    -18.35      0.00
   15    1   13      5.42      0.00
   15    1   14      4.77      0.00
   15    1   15      2.68      0.00
   15    1   16     -4.86      0.00
   15    1   17     -9.00      0.00
   15    1   18    -13.56      0.00
   15    1   19     10.25      0.00
   15    1   20     -5.47      0.00
   15    3    1      5.12      0.00
   15    3    2     -0.98      0.00
   15    3    3      0.81      0.00
   15    3    4     -1.51      0.00
   15    3    5     -5.74      0.00
   15    3    6      1.91      0.00
   15    3    7    -10.03      0.00
   15    3    8     -2.67      0.00
   15    3    9     -3.15      0.00
   15    3   10     -7.85      0.00
   15    3   11     -3.86      0.00
   15    3   12      9.68      0.00
   15    3   13      0.64      0.00
   15    3   14     -2.40      0.00
   15    3   15     10.58      0.00
   15    3   16      8.00      0.00
   15    3   17     -3.85      0.00
   15    3   18     -4.21      0.00
   15    3   19     -0.12      0.00
   15    5    1     -1.37      0.00
   15    5    2      0.29      0.00
   15    5    3     -0.54      0.00
   15    5    4      0.59      0.00
   15    5    5      3.78      0.00
   15    5    6     -7.11      0.00
   15    5    7     -4.26      0.00
   15    5    8      3.96      0.00
   15    5    9     -5.19      0.00
   15    5   10      1.61      0.00
   15    5   11      2.06      0.00
   15    5   12     -4.86      0.00
   15    5   13      5.67      0.00
   15    5   14      5.20      0.00
   15    5   15      1.86      0.00
   15    5   16     -5.98      0.00
   15    5   17      1.78      0.00
   15    5   18     -7.80      0.00
   15    5   19    -12.05      0.00
   15    7    1     -4.86      0.00
   15    7    2     -3.29      0.00
   15    7    3      0.56      0.00
   15    7    4      0.04      0.00
   15    7    5     -9.66      0.00
   15    7    6     -6.32      0.00
   15    7    7      7.13      0.00
   15    7    8      1.73      0.00
   15    7    9     -1.93      0.00
   15    7   10      1.38      0.00
   15    7   11      5.52      0.00
   15    7   12     -3.63      0.00
   15    7   13    -11.89      0.00
   15    7   14     -4.61      0.00
   15    7   15    -15.61      0.00
   15    7   16      3.03      0.00
   15    7   17      8.73      0.00
   15    7   18     -4.72      0.00
   15    9    1      2.51      0.00
   15    9    2     -3.12      0.00
   15    9    3     -4.18      0.00
   15    9    4     -1.04      0.00
   15    9    5     -7.11      0.00
   15    9    6     -0.12      0.00
   15    9    7     -9.50      0.00
   15    9    8     -2.05      0.00
   15    9    9     -4.34      0.00
   15    9   10      5.66      0.00
   15    9   11      1.18      0.00
   15    9   12     -3.44      0.00
   15    9   13      7.44      0.00
   15    9   14      8.08      0.00
   15    9   15      1.98      0.00
   15    9   16     -4.48      0.00
   15    9   17     -9.30      0.00
   15   11    1     -3.68      0.00
   15   11    2      0.63      0.00
   15   11    3     -2.44      0.00
   15   11    4      0.86      0.00
   15   11    5      1.13      0.00
   15   11    6      0.18      0.00
   15   11    7      5.21      0.00
   15   11    8     -5.89      0.00
   15   11    9      1.55      0.00
   15   11   10     -9.25      0.00
   15   11   11      0.51      0.00
   15   11   12     -1.59      0.00
   15   11   13    -13.56      0.00
   15   11   14      0.07      0.00
   15   11   15     -4.30      0.00
   15   13    1      5.04      0.00
   15   13    2      2.89      0.00
   15   13    3      0.57      0.00
   15   13    4      1.33      0.00
   15   13    5      3.35      0.00
   15   13    6     -6.55      0.00
   15   13    7     -4.25      0.00
   15   13    8      7.19      0.00
   15   13    9     -9.59      0.00
   15   13   10      8.63      0.00
   15   13   11      7.79      0.00
   15   13   12     -8.59      0.00
   15   13   13      4.06      0.00
   15   15    1      0.97      0.00
   15   15    2      2.65      0.00
   15   15    3      4.99      0.00
   15   15    4     -5.37      0.00
   15   15    5     -2.26      0.00
   15   15    6      4.49      0.00
   15   15    7      5.33      0.00
   15   15    8     -2.11      0.00
   15   15    9      2.88      0.00
   15   15   10      0.85      0.00
   15   17    1     -0.41      0.00
   15   17    2      1.05      0.00
   15   17    3     -5.79      0.00
   15   17    4     -1.90      0.00
   15   17    5     -2.75      0.00
   15   17    6     -4.11      0.00
   16    0    0    -12.77      0.00
   16    0    2     -7.77      0.00
   16    0    4     19.50      0.00
   16    0    6     -5.07      0.00
   16    0    8      1.74      0.00
   16    0   10    -13.45      0.00
   16    0   12     -6.82      0.00
   16    0   14     13.48      0.00
   16    0   16     -0.22      0.00
   16    0   18     -5.95      0.00
   16    2    0      4.19      0.00
   16    2    1      4.03      0.00
   16    2    2      4.44      0.00
   16    2    3     -6.71      0.00
   16    2    4    -16.83      0.00
   16    2    5    -11.71      0.00
   16    2    6     -6.39      0.00
   16    2    7      9.44      0.00
   16    2    8      4.91      0.00
   16    2    9     11.03      0.00
   16    2   10     -1.06      0.00
   16    2   11     -7.23      0.00
   16    2   12     -0.55      0.00
   16    2   13     22.68      0.00
   16    2   14     -3.75      0.00
   16    2   15     -7.70      0.00
   16    2   16     -4.91      0.00
   16    2   17     -7.40      0.00
   16    4    0     -2.36      0.00
   16    4    1     -2.53      0.00
   16    4    2     -7.47      0.00
   16    4    3     -4.69      0.00
   16    4    4      1.67      0.00
   16    4    5     -4.60      0.00
   16    4    6      6.20      0.00
   16    4    7     -5.94      0.00
   16    4    8     -1.93      0.00
   16    4    9     -1.06      0.00
   16    4   10    -15.42      0.00
   16    4   11     13.78      0.00
   16    4   12     -0.96      0.00
   16    4   13     -2.33      0.00
   16    4   14      3.99      0.00
   16    4   15      7.85      0.00
   16    4   16     -5.96      0.00
   16    4   17     -8.52      0.00
   16    6    0     -6.02      0.00
   16    6    1      2.67      0.00
   16    6    2      0.42      0.00
   16    6    3      1.78      0.00
   16    6    4      5.12      0.00
   16    6    5      0.77      0.00
   16    6    6    -10.79      0.00
   16    6    7      0.08      0.00
   16    6    8      2.24      0.00
   16    6    9     -0.38      0.00
   16    6   10      3.24      0.00
   16    6   11     -4.80      0.00
   16    6   12      4.30      0.00
   16    6   13     -2.27      0.00
   16    6   14     -5.41      0.00
   16    6   15     -5.82      0.00
   16    6   16    -10.68      0.00
   16    8    0     -5.09      0.00
   16    8    1      3.77      0.00
   16    8    2      0.14      0.00
   16    8    3      2.11      0.00
   16    8    4     -8.64      0.00
   16    8    5      1.57      0.00
   16    8    6      5.91      0.00
   16    8    7      4.56      0.00
   16    8    8      5.98      0.00
   16    8    9      2.28      0.00
   16    8   10    -11.47      0.00
   16    8   11      6.95      0.00
   16    8   12     -9.84      0.00
   16    8   13     -4.41      0.00
   16    8   14      0.17      0.00
   16    8   15     14.93      0.00
   16   10    0     -3.14      0.00
   16   10    1    -11.63      0.00
   16   10    2      3.06      0.00
   16   10    3     -0.23      0.00
   16   10    4     -0.69      0.00
   16   10    5      8.50      0.00
   16   10    6     -3.56      0.00
   16   10    7      6.80      0.00
   16   10    8     -1.72      0.00
   16   10    9      7.92      0.00
   16   10   10      7.12      0.00
   16   10   11     -7.97      0.00
   16   10   12      4.79      0.00
   16   10   13     -4.76      0.00
   16   10   14     -1.12      0.00
   16   12    0      0.32      0.00
   16   12    1      3.63      0.00
   16   12    2     -0.89      0.00
   16   12    3      0.27      0.00
   16   12    4     -5.33      0.00
   16   12    5     -4.69      0.00
   16   12    6      3.85      0.00
   16   12    7    -12.57      0.00
   16   12    8     -3.39      0.00
   16   12    9     -4.43      0.00
   16   12   10    -13.84      0.00
   16   12   11      7.22      0.00
   16   14    0     -0.84      0.00
   16   14    1     -1.31      0.00
   16   14    2     -1.47      0.00
   16   14    3      4.71      0.00
   16   14    4     -1.26      0.00
   16   14    5    -11.83      0.00
   16   14    6     -6.19      0.00
   16   14    7      3.90      0.00
   16   14    8      0.58      0.00
   17    1    2     -0.61      0.00
   17    1    3     11.94      0.00
   17    1    4     -2.11      0.00
   17    1    5    -13.61      0.00
   17    1    6     -2.86      0.00
   17    1    7    -13.14      0.00
   17    1    8      1.91      0.00
   17    1    9     -5.95      0.00
   17    1   10      5.58      0.00
   17    1   11      6.27      0.00
   17    1   12      1.59      0.00
   17    1   13     10.57      0.00
   17    1   14     10.65      0.00
   17    1   15    -11.67      0.00
   17    3    2      7.74      0.00
   17    3    3    -15.39      0.00
   17    3    4      6.34      0.00
   17    3    5      6.24      0.00
   17    3    6      4.37      0.00
   17    3    7     23.40      0.00
   17    3    8     -3.00      0.00
   17    3    9      2.65      0.00
   17    3   10     -6.05      0.00
   17    3   11    -11.61      0.00
   17    3   12     13.49      0.00
   17    3   13    -10.11      0.00
   17    3   14     -9.23      0.00
   17    3   15    -10.15      0.00
   17    5    2     -2.74      0.00
   17    5    3      3.98      0.00
   17    5    4     -1.71      0.00
   17    5    5      4.17      0.00
   17    5    6      5.57      0.00
   17    5    7     -4.31      0.00
   17    5    8     -0.33      0.00
   17    5    9      0.69      0.00
   17    5   10      6.56      0.00
   17    5   11      9.11      0.00
   17    5   12      7.79      0.00
   17    5   13      9.59      0.00
   17    5   14      0.79      0.00
   17    7    2      7.85      0.00
   17    7    3      8.69      0.00
   17    7    4     -3.00      0.00
   17    7    5    -14.65      0.00
   17    7    6      3.35      0.00
   17    7    7     -1.29      0.00
   17    7    8     -3.83      0.00
   17    7    9      8.72      0.00
   17    7   10     -6.26      0.00
   17    7   11      0.41      0.00
   17    7   12      2.47      0.00
   17    7   13     -4.32      0.00
   17    9    3      3.70      0.00
   17    9    4      1.72      0.00
   17    9    5      9.34      0.00
   17    9    6      2.10      0.00
   17    9    7      8.90      0.00
   17    9    8     -2.06      0.00
   17    9    9     -9.87      0.00
   17    9   10      1.28      0.00
   17    9   11      3.69      0.00
   17   11    1      7.03      0.00
   17   11    2      1.57      0.00
   17   11    3      3.39      0.00
   17   11    4      2.26      0.00
   17   11    5     -4.72      0.00
   17   11    6      1.33      0.00
   17   11    7      5.39      0.00
   17   11    8     -1.00      0.00
   17   11    9      9.46      0.00
   17   13    1      0.24      0.00
   17   13    2     -7.84      0.00
   17   13    3     -3.26      0.00
   17   13    4     -1.03      0.00
   18    0    4     10.02      0.00
   18    0    6      3.23      0.00
   18    0    8      3.58      0.00
   18    0   10     -3.77      0.00
   18    0   12     -6.22      0.00
   18    2    4     -3.24      0.00
   18    2    5     13.39      0.00
   18    2    6     -4.28      0.00
   18    2    7      1.81      0.00
   18    2    8     10.11      0.00
   18    2    9     -9.68      0.00
   18    2   10     12.64      0.00
   18    2   11     -8.83      0.00
   18    4    5    -14.82      0.00
   18    4    6      1.11      0.00
   18    4    7      1.45      0.00
   18    4    8     -6.14      0.00
   18    4    9     -9.89      0.00
   18    4   10      2.36      0.00
   18    4   11     -4.20      0.00
   18    6    5      5.25      0.00
   18    6    6     -1.58      0.00
   18    6    7      8.57      0.00
   18    6    8      0.69      0.00
   18    6    9     15.81      0.00
   18    8    5      2.74      0.00
   18    8    6     -4.43      0.00
   18    8    7      1.75      0.00
   18    0    0     10.26      0.00
   18    2    0      3.66      0.00
   18    4    0      0.03      0.00
   18    6    0      2.06      0.00
   18    8    0      2.26      0.00
    1    1    1   -315.91      0.00
   17    1    1     -3.97      0.00
   18    2    1     -4.92      0.00
    1    3    1    -10.03      0.00
   17    3    1     -4.26      0.00
   18    4    1      6.10      0.00
   17    5    1     -2.74      0.00
   18    6    1     -4.45      0.00
   17    7    1      0.87      0.00
   18    8    1      1.42      0.00
   17    9    1      0.32      0.00
   18    0    2     -7.57      0.00
   18    2    2      8.46      0.00
    0    4    2     74.56      0.00
   18    4    2     -6.15      0.00
   18    6    2     -0.79      0.00
   18    8    2      3.26      0.00
   17    9    2     -5.04      0.00
   18    2    3      8.32      0.00
   18    4    3     -1.50      0.00
   18    6    3      1.19      0.00
   18    8    3    -11.77      0.00
    2    0    4     72.71      0.00
    4    0    4     79.79      0.00
   18    4    4      4.18      0.00
   18    6    4      4.81      0.00
   18    8    4     -4.56      0.00
    1    1    5    -27.50      0.00
    0    0    6    -51.16      0.00
    0    0    0      0.00      0.00
# SQUEEZE RESULTS (Version =  30715)
# Note: Data are Listed for all Voids in the P1 Unit Cell
# i.e. Centre of Gravity, Solvent Accessible Volume,
# Recovered number of Electrons in the Void and
# Details about the Squeezed Material
loop_
  _platon_squeeze_void_nr
  _platon_squeeze_void_average_x
  _platon_squeeze_void_average_y
  _platon_squeeze_void_average_z
  _platon_squeeze_void_volume
  _platon_squeeze_void_count_electrons
  _platon_squeeze_void_content
   1  0.028  0.093  0.232      3551       831 ' '
   2  0.000  0.250  0.750        13         0 ' '
   3  0.000  0.750  0.250        13         0 ' '
   4  0.500  0.250  0.250        13         0 ' '
   5  0.500  0.750  0.750        13         0 ' '
# Missing Reflections Below sin(th)/lambda = 0.25
loop_
  _platon_missing_refln_index_h
  _platon_missing_refln_index_k
  _platon_missing_refln_index_l
  _platon_missing_refln_theta
    1    1    1     1.902
    1    3    1     3.334
    0    4    2     4.231
    2    0    4     4.411
    4    0    4     6.561
    1    1    5     4.589
    0    0    6     5.115
_platon_squeeze_void_probe_radius                  1.20
_platon_squeeze_details
)
TITL InSBA_0m in Ccca
CELL   14.5653   21.0484   23.9140     90.00     90.00     90.00
SPGR Ccca
# Solvent Accessible Volume =    3658.5
# Electrons Found in S.A.V. =     828.0
# Note: Atoms in Void as Cxxx and Qxxx all others
C101 0.888 0.269 0.317 !       3.12 eA-3
C102 1.000 0.156 0.246 !       2.96 eA-3
C103 0.142 0.202 0.350 !       2.90 eA-3
C104 0.846 0.282 0.405 !       2.79 eA-3
C105 0.958 0.110 0.283 !       2.53 eA-3
C106 0.798 0.312 0.453 !       2.10 eA-3
C107 1.000 0.253 0.430 !       1.83 eA-3
C108 1.000 0.406 0.246 !       1.64 eA-3
C109 0.967 0.112 0.227 !       1.60 eA-3
C110 0.862 0.204 0.427 !       1.52 eA-3
C111 0.969 0.250 0.102 !       1.40 eA-3
Q112 0.750 0.503 0.289 !       1.36 eA-3
C113 0.907 0.279 0.084 !       1.36 eA-3
C114 0.924 0.389 0.256 !       1.30 eA-3
Q115 0.810 0.500 0.328 !       1.20 eA-3
C116 0.250 0.497 0.359 !       1.14 eA-3
C117 0.936 0.311 0.290 !       1.11 eA-3
C118 0.768 0.015 0.402 !       1.08 eA-3
Q119 0.060 0.239 0.047 !       1.04 eA-3
Q120 0.492 0.219 0.118 !       1.02 eA-3
C121 0.969 0.137 0.334 !       1.00 eA-3
Q122 0.765 0.437 0.336 !       1.00 eA-3
C123 0.278 0.019 0.072 !       0.96 eA-3
C124 0.859 0.373 0.190 !       0.94 eA-3
C125 0.034 0.298 0.172 !       0.93 eA-3
Q126 0.845 0.421 0.312 !       0.92 eA-3
C127 0.999 0.267 0.140 !       0.92 eA-3
Q128 0.558 0.270 0.101 !       0.91 eA-3
C129 0.737 0.375 0.047 !       0.90 eA-3
C130 0.031 0.168 0.398 !       0.89 eA-3
Q131 0.220 0.438 0.188 !       0.88 eA-3
C132 0.760 0.092 0.429 !       0.87 eA-3
Q133 0.722 0.496 0.370 !       0.87 eA-3
Q134 0.222 0.996 0.370 !       0.87 eA-3
C135 0.702 0.099 0.415 !       0.87 eA-3
C136 0.750 0.502 0.031 !       0.87 eA-3
Q137 0.278 0.996 0.870 !       0.86 eA-3
C138 0.260 0.404 0.931 !       0.86 eA-3
C139 0.097 0.313 0.365 !       0.86 eA-3
C140 0.224 0.500 0.491 !       0.85 eA-3
C141 0.112 0.065 0.141 !       0.85 eA-3
C142 0.051 0.186 0.158 !       0.84 eA-3
C143 0.921 0.206 0.390 !       0.84 eA-3
C144 0.123 0.128 0.139 !       0.82 eA-3
C145 1.000 0.250 0.250 !       0.82 eA-3
C146 0.995 0.301 0.084 !       0.82 eA-3
Q147 0.891 0.408 0.493 !       0.81 eA-3
C148 0.061 0.268 0.365 !       0.81 eA-3
Q149 0.484 0.253 0.049 !       0.78 eA-3
C150 0.103 0.327 0.112 !       0.78 eA-3
Q151 0.549 0.239 0.429 !       0.76 eA-3
C152 0.156 0.037 0.111 !       0.76 eA-3
Q153 0.816 0.420 0.244 !       0.75 eA-3
Q154 0.280 0.093 0.360 !       0.74 eA-3
Q155 0.975 0.140 0.149 !       0.74 eA-3
C156 0.022 0.187 0.128 !       0.73 eA-3
C157 0.819 0.237 0.454 !       0.72 eA-3
Q158 0.638 0.030 0.365 !       0.72 eA-3
Q159 0.131 0.205 0.484 !       0.72 eA-3
C160 0.234 0.216 0.021 !       0.72 eA-3
Q161 0.707 0.216 0.061 !       0.72 eA-3
Q162 0.960 0.374 0.399 !       0.71 eA-3
C163 0.050 0.298 0.268 !       0.71 eA-3
C164 0.890 0.186 0.284 !       0.70 eA-3
C165 0.056 0.356 0.369 !       0.70 eA-3
Q166 0.701 0.048 0.142 !       0.70 eA-3
C167 1.007 0.373 0.376 !       0.69 eA-3
C168 0.109 0.344 0.182 !       0.69 eA-3
C169 0.780 0.145 0.422 !       0.69 eA-3
Q170 0.951 0.484 0.264 !       0.69 eA-3
C171 0.500 0.250 0.250 !       0.69 eA-3
C172 0.985 0.237 0.321 !       0.68 eA-3
Q173 0.984 0.471 0.048 !       0.68 eA-3
Q174 0.076 0.377 0.189 !       0.68 eA-3
Q175 0.341 0.485 0.484 !       0.68 eA-3
C176 0.887 0.329 0.482 !       0.67 eA-3
C177 0.796 0.308 0.116 !       0.67 eA-3
Q178 0.389 0.487 0.354 !       0.67 eA-3
Q179 0.735 0.468 0.397 !       0.67 eA-3
Q180 0.604 0.453 0.362 !       0.67 eA-3
C181 0.806 0.012 0.358 !       0.66 eA-3
Q182 0.533 0.218 0.344 !       0.66 eA-3
Q183 0.043 0.092 0.499 !       0.66 eA-3
Q184 0.268 0.108 0.317 !       0.66 eA-3
C185 0.323 0.033 0.093 !       0.66 eA-3
C186 0.828 0.065 0.363 !       0.66 eA-3
Q187 0.596 0.096 0.295 !       0.65 eA-3
C188 0.234 0.391 0.399 !       0.65 eA-3
C189 0.984 0.313 0.194 !       0.65 eA-3
Q190 0.106 0.435 0.408 !       0.65 eA-3
C191 0.173 0.408 0.408 !       0.65 eA-3
Q192 0.673 0.299 0.092 !       0.65 eA-3
C193 0.800 0.141 0.452 !       0.65 eA-3
Q194 0.269 0.173 0.362 !       0.65 eA-3
Q195 0.849 0.013 0.105 !       0.65 eA-3
Q196 0.592 0.080 0.470 !       0.65 eA-3
C197 0.885 0.283 0.446 !       0.65 eA-3
C198 0.701 0.050 0.403 !       0.64 eA-3
Q199 0.784 0.484 0.190 !       0.64 eA-3
)
;
_shelx_fab_checksum              42755
loop_
_space_group_symop_operation_xyz
'x, y, z'
'-x+1/2, -y, z'
'-x, y, -z+1/2'
'x+1/2, -y, -z+1/2'
'x+1/2, y+1/2, z'
'-x+1, -y+1/2, z'
'-x+1/2, y+1/2, -z+1/2'
'x+1, -y+1/2, -z+1/2'
'-x, -y, -z'
'x-1/2, y, -z'
'x, -y, z-1/2'
'-x-1/2, y, z-1/2'
'-x+1/2, -y+1/2, -z'
'x, y+1/2, -z'
'x+1/2, -y+1/2, z-1/2'
'-x, y+1/2, z-1/2'
loop_
_atom_site_label
_atom_site_type_symbol
_atom_site_fract_x
_atom_site_fract_y
_atom_site_fract_z
_atom_site_U_iso_or_equiv
_atom_site_adp_type
_atom_site_occupancy
_atom_site_site_symmetry_order
_atom_site_calc_flag
_atom_site_refinement_flags_posn
_atom_site_refinement_flags_adp
_atom_site_refinement_flags_occupancy
In1 In 0.2500 0.0000 0.32876(3) 0.0358(3) Uani 1 2 d S T P
S1 S 0.0000 -0.2500 0.08690(12) 0.0480(9) Uani 1 2 d S T P
O1 O 0.2474(4) -0.0960(3) 0.2817(2) 0.0516(16) Uani 1 1 d . . .
O2 O 0.1430(5) -0.0226(3) 0.2630(3) 0.0509(17) Uani 1 1 d . . .
O3 O -0.0677(5) -0.2159(4) 0.0570(2) 0.073(2) Uani 1 1 d . . .
O4 O 0.3739(4) -0.0470(3) 0.3746(2) 0.0496(16) Uani 1 1 d . . .
O5 O 0.3298(4) 0.0484(3) 0.3963(2) 0.0467(16) Uani 1 1 d . . .
C1 C 0.1767(6) -0.0756(5) 0.2549(3) 0.043(2) Uani 1 1 d . . .
C2 C 0.1356(6) -0.1195(4) 0.2111(3) 0.038(2) Uani 1 1 d . . .
C3 C 0.1739(6) -0.1783(5) 0.1994(3) 0.051(2) Uani 1 1 d . . .
H3B H 0.2282 -0.1909 0.2167 0.061 Uiso 1 1 calc R U .
C4 C 0.1302(7) -0.2180(6) 0.1618(4) 0.062(3) Uani 1 1 d . . .
H4A H 0.1525 -0.2588 0.1557 0.074 Uiso 1 1 calc R U .
C5 C 0.0543(5) -0.1975(4) 0.1336(3) 0.038(2) Uani 1 1 d . . .
C6 C 0.0151(5) -0.1396(4) 0.1449(3) 0.041(2) Uani 1 1 d . . .
H6A H -0.0374 -0.1265 0.1259 0.050 Uiso 1 1 calc R U .
C7 C 0.0547(6) -0.1010(5) 0.1848(3) 0.046(2) Uani 1 1 d . . .
H7A H 0.0272 -0.0625 0.1942 0.055 Uiso 1 1 calc R U .
C8 C 0.3784(6) 0.0028(5) 0.4054(3) 0.042(2) Uani 1 1 d . . .
C9 C 0.4423(6) 0.0016(5) 0.4538(3) 0.0411(19) Uani 1 1 d . . .
C10 C 0.4941(7) -0.0522(5) 0.4669(4) 0.053(2) Uani 1 1 d . . .
H10A H 0.4904 -0.0876 0.4438 0.064 Uiso 1 1 calc R U .
C11 C 0.4504(6) 0.0543(5) 0.4875(4) 0.051(2) Uani 1 1 d . . .
H11A H 0.4179 0.0911 0.4791 0.061 Uiso 1 1 calc R U .
loop_
_atom_site_aniso_label
_atom_site_aniso_U_11
_atom_site_aniso_U_22
_atom_site_aniso_U_33
_atom_site_aniso_U_23
_atom_site_aniso_U_13
_atom_site_aniso_U_12
In1 0.0304(4) 0.0483(5) 0.0286(4) 0.000 0.000 -0.0024(4)
S1 0.064(2) 0.049(2) 0.0303(14) 0.000 0.000 -0.0190(17)
O1 0.050(3) 0.061(4) 0.044(3) -0.009(3) -0.012(3) -0.004(3)
O2 0.060(4) 0.042(4) 0.051(4) -0.015(3) -0.005(3) 0.002(3)
O3 0.108(6) 0.075(6) 0.035(3) 0.005(3) -0.026(3) -0.029(5)
O4 0.052(4) 0.054(5) 0.042(3) -0.011(3) -0.014(3) 0.002(3)
O5 0.048(3) 0.050(5) 0.042(3) 0.006(3) -0.015(3) 0.002(3)
C1 0.050(5) 0.058(7) 0.023(3) 0.002(4) -0.006(4) -0.026(5)
C2 0.051(5) 0.039(6) 0.025(3) 0.007(3) 0.009(4) -0.007(4)
C3 0.045(5) 0.057(7) 0.049(5) -0.009(5) -0.006(4) 0.014(5)
C4 0.058(6) 0.069(8) 0.059(6) -0.025(5) 0.000(5) -0.002(6)
C5 0.034(4) 0.045(6) 0.035(4) -0.001(4) -0.002(3) -0.008(4)
C6 0.038(5) 0.052(6) 0.034(4) -0.002(4) -0.015(4) 0.003(4)
C7 0.036(5) 0.050(6) 0.051(5) -0.004(4) -0.002(4) 0.008(4)
C8 0.035(4) 0.056(6) 0.037(4) 0.002(5) -0.006(3) -0.014(5)
C9 0.043(5) 0.046(5) 0.035(4) 0.009(4) -0.006(3) -0.003(5)
C10 0.071(6) 0.041(6) 0.048(5) -0.004(4) -0.011(5) -0.003(5)
C11 0.057(6) 0.046(7) 0.050(5) -0.006(5) -0.021(5) 0.007(5)
loop_
_atom_type_symbol
_atom_type_description
_atom_type_scat_dispersion_real
_atom_type_scat_dispersion_imag
_atom_type_scat_source
C C 0.0033 0.0016 'International Tables Vol C Tables 4.2.6.8 and 6.1.1.4'
H H 0.0000 0.0000 'International Tables Vol C Tables 4.2.6.8 and 6.1.1.4'
O O 0.0106 0.0060 'International Tables Vol C Tables 4.2.6.8 and 6.1.1.4'
S S 0.1246 0.1234 'International Tables Vol C Tables 4.2.6.8 and 6.1.1.4'
In In -0.7276 1.3100 'International Tables Vol C Tables 4.2.6.8 and 6.1.1.4'
N N 0.0061 0.0033 'International Tables Vol C Tables 4.2.6.8 and 6.1.1.4'
loop_
_geom_angle_atom_site_label_1
_geom_angle_atom_site_label_2
_geom_angle_atom_site_label_3
_geom_angle
_geom_angle_site_symmetry_1
_geom_angle_site_symmetry_3
O5 In1 O5 87.5(3) . 2
O5 In1 O2 92.7(2) . 2
O5 In1 O2 162.8(2) 2 2
O5 In1 O2 162.8(2) . .
O5 In1 O2 92.7(2) 2 .
O2 In1 O2 92.1(3) 2 .
O5 In1 O1 86.8(2) . 2
O5 In1 O1 139.3(2) 2 2
O2 In1 O1 57.8(2) 2 2
O2 In1 O1 81.8(2) . 2
O5 In1 O1 139.3(2) . .
O5 In1 O1 86.8(2) 2 .
O2 In1 O1 81.8(2) 2 .
O2 In1 O1 57.8(2) . .
O1 In1 O1 121.8(3) 2 .
O5 In1 O4 56.7(2) . .
O5 In1 O4 82.5(2) 2 .
O2 In1 O4 83.3(2) 2 .
O2 In1 O4 140.3(2) . .
O1 In1 O4 125.9(2) 2 .
O1 In1 O4 82.6(2) . .
O5 In1 O4 82.5(2) . 2
O5 In1 O4 56.7(2) 2 2
O2 In1 O4 140.3(2) 2 2
O2 In1 O4 83.3(2) . 2
O1 In1 O4 82.6(2) 2 2
O1 In1 O4 125.9(2) . 2
O4 In1 O4 124.0(3) . 2
O3 S1 O3 119.3(6) 6_445 .
O3 S1 C5 108.4(4) 6_445 6_445
O3 S1 C5 109.1(4) . 6_445
O3 S1 C5 109.1(4) 6_445 .
O3 S1 C5 108.4(4) . .
C5 S1 C5 101.2(5) 6_445 .
C1 O1 In1 87.9(6) . .
C1 O2 In1 91.4(5) . .
C8 O4 In1 87.9(5) . .
C8 O5 In1 94.2(5) . .
O2 C1 O1 122.9(8) . .
O2 C1 C2 120.0(8) . .
O1 C1 C2 117.1(9) . .
C3 C2 C7 120.0(8) . .
C3 C2 C1 121.5(8) . .
C7 C2 C1 118.4(8) . .
C4 C3 C2 119.0(9) . .
C4 C3 H3B 120.5 . .
C2 C3 H3B 120.5 . .
C5 C4 C3 120.2(10) . .
C5 C4 H4A 119.9 . .
C3 C4 H4A 119.9 . .
C4 C5 C6 121.5(8) . .
C4 C5 S1 118.6(8) . .
C6 C5 S1 119.6(6) . .
C5 C6 C7 118.9(7) . .
C5 C6 H6A 120.5 . .
C7 C6 H6A 120.5 . .
C6 C7 C2 120.2(9) . .
C6 C7 H7A 119.9 . .
C2 C7 H7A 119.9 . .
O5 C8 O4 120.9(8) . .
O5 C8 C9 121.3(9) . .
O4 C8 C9 117.8(9) . .
C11 C9 C10 118.5(8) . .
C11 C9 C8 119.7(9) . .
C10 C9 C8 121.8(9) . .
C11 C10 C9 121.9(8) 9_656 .
C11 C10 H10A 119.1 9_656 .
C9 C10 H10A 119.1 . .
C10 C11 C9 119.6(9) 9_656 .
C10 C11 H11A 120.2 9_656 .
C9 C11 H11A 120.2 . .
loop_
_geom_bond_atom_site_label_1
_geom_bond_atom_site_label_2
_geom_bond_distance
_geom_bond_site_symmetry_2
In1 O5 2.236(6) .
In1 O5 2.236(6) 2
In1 O2 2.264(6) 2
In1 O2 2.264(6) .
In1 O1 2.313(7) 2
In1 O1 2.313(7) .
In1 O4 2.331(6) .
In1 O4 2.331(6) 2
S1 O3 1.413(7) 6_445
S1 O3 1.413(7) .
S1 C5 1.760(8) 6_445
S1 C5 1.760(8) .
O1 C1 1.285(10) .
O2 C1 1.233(11) .
O4 C8 1.284(11) .
O5 C8 1.212(11) .
C1 C2 1.520(11) .
C2 C3 1.387(12) .
C2 C7 1.391(11) .
C3 C4 1.383(13) .
C3 H3B 0.9300 .
C4 C5 1.364(12) .
C4 H4A 0.9300 .
C5 C6 1.373(12) .
C6 C7 1.380(11) .
C6 H6A 0.9300 .
C7 H7A 0.9300 .
C8 C9 1.486(11) .
C9 C11 1.375(12) .
C9 C10 1.396(12) .
C10 C11 1.359(11) 9_656
C10 H10A 0.9300 .
C11 C10 1.359(11) 9_656
C11 H11A 0.9300 .
