#------------------------------------------------------------------------------
#$Date: 2019-11-24 05:34:54 +0200 (Sun, 24 Nov 2019) $
#$Revision: 236841 $
#$URL: file:///home/coder/svn-repositories/cod/cif/7/70/21/7702192.cif $
#------------------------------------------------------------------------------
#
# This file is available in the Crystallography Open Database (COD),
# http://www.crystallography.net/
#
# All data on this site have been placed in the public domain by the
# contributors.
#
data_7702192
loop_
_publ_author_name
'Li, Yuan-Han'
'Wang, Sue-Lein'
'Su, Yu-Chia'
'Ko, Bao-Tsan'
'Tsai, Chen-Yen'
'Lin, Chia-Her'
_publ_section_title
;
 Microporous 2D indium metal-organic frameworks for selective
 CO<sub>2</sub> capture and their application in the catalytic
 CO<sub>2</sub>-cycloaddition of epoxides.
;
_journal_issue                   28
_journal_name_full
'Dalton transactions (Cambridge, England : 2003)'
_journal_page_first              9474
_journal_page_last               9481
_journal_paper_doi               10.1039/c8dt01405a
_journal_volume                  47
_journal_year                    2018
_chemical_formula_sum            'C22 H12 In N O10 S'
_chemical_formula_weight         597.21
_space_group_crystal_system      orthorhombic
_space_group_IT_number           68
_space_group_name_Hall           '-C 2a 2ac'
_space_group_name_H-M_alt        'C c c a :2'
_atom_sites_solution_hydrogens   geom
_audit_creation_method           SHELXL-2014/7
_audit_update_record
;
2018-06-07 deposited with the CCDC.
2018-06-13 downloaded from the CCDC.
;
_cell_angle_alpha                90
_cell_angle_beta                 90
_cell_angle_gamma                90
_cell_formula_units_Z            8
_cell_length_a                   15.0622(4)
_cell_length_b                   20.9202(6)
_cell_length_c                   23.4817(7)
_cell_measurement_reflns_used    4594
_cell_measurement_temperature    295(2)
_cell_measurement_theta_max      28.33
_cell_measurement_theta_min      1.73
_cell_volume                     7399.2(4)
_computing_cell_refinement       'SAINT V8.34A (Bruker AXS Inc., 2013)'
_computing_data_collection       'APEX2 (Bruker AXS, 2010)'
_computing_data_reduction        'SAINT V8.34A (Bruker AXS Inc., 2013)'
_computing_molecular_graphics    'SHELXTL (Sheldrick, 2008)'
_computing_publication_material  SHELXTL
_computing_structure_refinement  'SHELXL-2014/6 (Sheldrick, 2014)'
_computing_structure_solution    'SHELXS-97 (Sheldrick, 2008)'
_diffrn_ambient_temperature      295(2)
_diffrn_detector_area_resol_mean 8.3333
_diffrn_measured_fraction_theta_full 0.998
_diffrn_measured_fraction_theta_max 0.994
_diffrn_measurement_device_type  'Bruker APEX-II CCD'
_diffrn_measurement_method       '\f and \w scans'
_diffrn_radiation_type           MoK\a
_diffrn_radiation_wavelength     0.71073
_diffrn_reflns_av_R_equivalents  0.1124
_diffrn_reflns_av_unetI/netI     0.1027
_diffrn_reflns_Laue_measured_fraction_full 0.998
_diffrn_reflns_Laue_measured_fraction_max 0.994
_diffrn_reflns_limit_h_max       20
_diffrn_reflns_limit_h_min       -20
_diffrn_reflns_limit_k_max       27
_diffrn_reflns_limit_k_min       -27
_diffrn_reflns_limit_l_max       28
_diffrn_reflns_limit_l_min       -31
_diffrn_reflns_number            32876
_diffrn_reflns_point_group_measured_fraction_full 0.998
_diffrn_reflns_point_group_measured_fraction_max 0.994
_diffrn_reflns_theta_full        25.242
_diffrn_reflns_theta_max         28.333
_diffrn_reflns_theta_min         1.734
_exptl_absorpt_coefficient_mu    0.732
_exptl_absorpt_correction_T_max  0.909
_exptl_absorpt_correction_T_min  0.869
_exptl_absorpt_correction_type   multi-scan
_exptl_absorpt_process_details   'SADABS V2014/4 (Bruker AXS Inc.)'
_exptl_crystal_colour            pale-yellow
_exptl_crystal_density_diffrn    1.072
_exptl_crystal_density_meas      ?
_exptl_crystal_density_method    'not measured'
_exptl_crystal_description       LUMP
_exptl_crystal_F_000             2368
_exptl_crystal_size_max          0.200
_exptl_crystal_size_mid          0.160
_exptl_crystal_size_min          0.130
_refine_diff_density_max         0.544
_refine_diff_density_min         -0.419
_refine_diff_density_rms         0.077
_refine_ls_extinction_method     none
_refine_ls_goodness_of_fit_ref   0.962
_refine_ls_hydrogen_treatment    constr
_refine_ls_matrix_type           full
_refine_ls_number_parameters     164
_refine_ls_number_reflns         4594
_refine_ls_number_restraints     0
_refine_ls_restrained_S_all      0.962
_refine_ls_R_factor_all          0.1407
_refine_ls_R_factor_gt           0.0501
_refine_ls_shift/su_max          0.000
_refine_ls_shift/su_mean         0.000
_refine_ls_structure_factor_coef Fsqd
_refine_ls_weighting_details
'w=1/[\s^2^(Fo^2^)+(0.0607P)^2^] where P=(Fo^2^+2Fc^2^)/3'
_refine_ls_weighting_scheme      calc
_refine_ls_wR_factor_gt          0.1121
_refine_ls_wR_factor_ref         0.1449
_reflns_Friedel_coverage         0.000
_reflns_number_gt                2034
_reflns_number_total             4594
_reflns_threshold_expression     'I > 2\s(I)'
_cod_data_source_file            c8dt01405a2.cif
_cod_data_source_block           3
_cod_depositor_comments
;
The following automatic conversions were performed:

data item '_exptl_crystal_density_meas' value 'not measured' was
changed to '?' -- the value is perceived as not measured.

Automatic conversion script
Id: cif_fix_values 6909 2019-04-08 15:41:33Z antanas 
;
_cod_original_sg_symbol_Hall     '-C 2b 2bc'
_cod_original_sg_symbol_H-M      'C c c a'
_cod_database_code               7702192
_shelx_shelxl_version_number     2014/7
_shelx_space_group_comment
;
The symmetry employed for this shelxl refinement is uniquely defined
by the following loop, which should always be used as a source of
symmetry information in preference to the above space-group names.
They are only intended as comments.
;
_shelx_estimated_absorpt_t_min   0.867
_shelx_estimated_absorpt_t_max   0.911
_shelx_res_file
;

    in12_0m_sq.res created by SHELXL-2014/7


TITL In12_0m in Ccca
CELL 0.71073  15.0622  20.9202  23.4817  90.000  90.000  90.000
ZERR   8.00   0.0004   0.0006   0.0007   0.000   0.000   0.000
LATT  7
SYMM 0.5-X, -Y, Z
SYMM -X, Y, 0.5-Z
SYMM 0.5+X, -Y, 0.5-Z
SFAC C H O S IN N
UNIT 176 96 80 8 8 8
TEMP 22.000

ACTA

SIZE 0.20 0.16 0.13

L.S. 4    66
BOND $H
FMAP 2
PLAN 20

OMIT 2 0 0
OMIT 4 0 2
OMIT 2 0 2
OMIT 3 1 5
OMIT 4 0 4
OMIT 1 3 9
FREE IN1 C1
FREE IN1 C8

ABIN
WGHT    0.060700
FVAR       0.04763
IN1   5    0.250000    0.000000    0.330090    10.50000    0.04260    0.05669 =
         0.04017    0.00000    0.00000   -0.00203
S1    4    0.000000   -0.250000    0.085314    10.50000    0.08574    0.05261 =
         0.04520    0.00000    0.00000   -0.01871
O1    3    0.243934   -0.095844    0.281480    11.00000    0.05963    0.08505 =
         0.05986   -0.01091   -0.01230   -0.00721
O2    3    0.144754   -0.021861    0.263407    11.00000    0.07109    0.06189 =
         0.05710   -0.01128   -0.01051   -0.00191
O3    3   -0.066542   -0.214135    0.055040    11.00000    0.11410    0.06777 =
         0.05291    0.00798   -0.01983   -0.02206
O4    3    0.365321   -0.050916    0.377028    11.00000    0.06243    0.07534 =
         0.05099   -0.00630   -0.01569   -0.00080
O5    3    0.331391    0.047715    0.396821    11.00000    0.06394    0.05417 =
         0.06216    0.00407   -0.02113   -0.00113
C1    1    0.176699   -0.076029    0.254322    11.00000    0.05754    0.07342 =
         0.03732    0.00426    0.00283   -0.02131
C2    1    0.134764   -0.119549    0.211863    11.00000    0.05027    0.06465 =
         0.04627   -0.00271   -0.00029   -0.00599
C3    1    0.171592   -0.178217    0.198544    11.00000    0.05514    0.06940 =
         0.06952   -0.00661   -0.01835    0.00657
AFIX  43
H3B   2    0.223950   -0.190944    0.216210    11.00000   -1.20000
AFIX   0
C4    1    0.132344   -0.217468    0.160035    11.00000    0.08097    0.04564 =
         0.07379   -0.01366   -0.00002    0.00155
AFIX  43
H4A   2    0.157013   -0.257151    0.151775    11.00000   -1.20000
AFIX   0
C5    1    0.053412   -0.197379    0.132544    11.00000    0.05348    0.05115 =
         0.04269   -0.00094    0.00389   -0.00833
C6    1    0.016121   -0.139467    0.145549    11.00000    0.06193    0.06280 =
         0.03951   -0.00449   -0.01504   -0.00326
AFIX  43
H6A   2   -0.036297   -0.126847    0.127895    11.00000   -1.20000
AFIX   0
C7    1    0.055862   -0.100281    0.184403    11.00000    0.06747    0.05108 =
         0.06827   -0.00610    0.00161    0.00008
AFIX  43
H7A   2    0.030850   -0.060747    0.192806    11.00000   -1.20000
AFIX   0
C8    1    0.376498   -0.001592    0.406974    11.00000    0.05134    0.06293 =
         0.04046    0.00005   -0.00078   -0.01483
C9    1    0.440934   -0.001446    0.454718    11.00000    0.05083    0.06197 =
         0.03901    0.01101   -0.00866   -0.00367
C10   1    0.488217   -0.057029    0.469426    11.00000    0.06827    0.05962 =
         0.05451   -0.00662   -0.01108   -0.00231
C11   1    0.453705    0.054360    0.484307    11.00000    0.06773    0.05458 =
         0.04846   -0.00670   -0.01237    0.00066
AFIX  43
H11A  2    0.423177    0.090995    0.473361    11.00000   -1.20000
AFIX   0
N1    6    0.478495   -0.115918    0.443003    10.50000    0.12452    0.06108 =
         0.08276   -0.01519   -0.04793    0.00723
AFIX  93
H1A   2    0.507546   -0.148502    0.455305    10.50000   -1.20000
H1B   2    0.443416   -0.119843    0.414318    10.50000   -1.20000

AFIX   0
HKLF 4

REM  In12_0m in Ccca
REM R1 =  0.0501 for    2034 Fo > 4sig(Fo)  and  0.1407 for all    4594 data
REM    164 parameters refined using      0 restraints

END

WGHT      0.0608      0.0000

REM Highest difference peak  0.544,  deepest hole -0.419,  1-sigma level  0.077
Q1    1   0.2890  0.0010  0.3609  11.00000  0.05    0.54
Q2    1   0.1778  0.0214  0.3367  11.00000  0.05    0.45
Q3    1   0.2135  0.0158  0.3002  11.00000  0.05    0.34
Q4    1   0.1601 -0.1050  0.2487  11.00000  0.05    0.32
Q5    1  -0.0406 -0.2641  0.1096  11.00000  0.05    0.31
Q6    1   0.1854 -0.0881  0.2864  11.00000  0.05    0.31
Q7    1   0.2200 -0.2422  0.1422  11.00000  0.05    0.29
Q8    1   0.5000 -0.1427  0.2500  10.50000  0.05    0.28
Q9    1   0.3220  0.0000  0.3909  11.00000  0.05    0.27
Q10   1   0.2129 -0.1193  0.3300  11.00000  0.05    0.27
Q11   1   0.2492 -0.0647  0.3287  11.00000  0.05    0.26
Q12   1   0.4037 -0.0057  0.4689  11.00000  0.05    0.26
Q13   1   0.1847  0.0013  0.2733  11.00000  0.05    0.26
Q14   1   0.2537 -0.1017  0.3594  11.00000  0.05    0.26
Q15   1   0.0659 -0.0016  0.2498  11.00000  0.05    0.25
Q16   1   0.2742 -0.0466  0.3730  11.00000  0.05    0.25
Q17   1   0.4180  0.0171  0.4213  11.00000  0.05    0.25
Q18   1   0.0632 -0.0656  0.2578  11.00000  0.05    0.25
Q19   1   0.1047 -0.1057  0.1787  11.00000  0.05    0.24
Q20   1   0.4188 -0.0761  0.3976  11.00000  0.05    0.24
;
_shelx_res_checksum              85514
_shelx_fab_file
;
    4    0    0     25.61      0.00
    6    0    0     19.68      0.00
    8    0    0     19.74      0.00
   10    0    0     -9.33      0.00
   12    0    0      5.33      0.00
   14    0    0      7.38      0.00
   16    0    0      0.29      0.00
   18    0    0     -2.78      0.00
   20    0    0      0.21      0.00
    0    2    0   -218.97      0.00
    2    2    0     -4.74      0.00
    4    2    0    102.70      0.00
    6    2    0    -27.49      0.00
    8    2    0     -9.08      0.00
   10    2    0      3.15      0.00
   12    2    0      2.20      0.00
   14    2    0     -1.78      0.00
   16    2    0     -1.25      0.00
   18    2    0      4.56      0.00
   20    2    0     -2.32      0.00
    0    4    0    -10.32      0.00
    2    4    0    -59.97      0.00
    4    4    0    -67.27      0.00
    6    4    0      2.29      0.00
    8    4    0      1.66      0.00
   10    4    0     -0.64      0.00
   12    4    0     -2.21      0.00
   14    4    0      1.14      0.00
   16    4    0      2.50      0.00
   18    4    0     -5.04      0.00
    0    6    0    -16.44      0.00
    2    6    0    -32.64      0.00
    4    6    0     12.23      0.00
    6    6    0     -4.06      0.00
    8    6    0      1.12      0.00
   10    6    0     -2.37      0.00
   12    6    0      0.73      0.00
   14    6    0     -3.50      0.00
   16    6    0     -4.50      0.00
   18    6    0     -1.46      0.00
    0    8    0    -23.25      0.00
    2    8    0     46.36      0.00
    4    8    0     12.19      0.00
    6    8    0    -12.13      0.00
    8    8    0      0.99      0.00
   10    8    0      0.00      0.00
   12    8    0      2.41      0.00
   14    8    0      4.50      0.00
   16    8    0      5.12      0.00
   18    8    0      2.57      0.00
    0   10    0     41.30      0.00
    2   10    0     -3.61      0.00
    4   10    0    -15.83      0.00
    6   10    0      6.05      0.00
    8   10    0     -2.98      0.00
   10   10    0     -8.23      0.00
   12   10    0     -0.24      0.00
   14   10    0     11.08      0.00
   16   10    0     -2.41      0.00
   18   10    0      4.09      0.00
    0   12    0    -17.20      0.00
    2   12    0      7.56      0.00
    4   12    0     15.58      0.00
    6   12    0     -4.51      0.00
    8   12    0      1.37      0.00
   10   12    0      6.44      0.00
   12   12    0     -0.40      0.00
   14   12    0     -6.19      0.00
   16   12    0     -3.57      0.00
   18   12    0      2.03      0.00
    0   14    0     -1.88      0.00
    2   14    0     -7.56      0.00
    4   14    0     -9.41      0.00
    6   14    0      9.50      0.00
    8   14    0      2.37      0.00
   10   14    0     -7.61      0.00
   12   14    0     10.18      0.00
   14   14    0      2.18      0.00
   16   14    0     -4.09      0.00
    0   16    0     -6.19      0.00
    2   16    0     -2.43      0.00
    4   16    0     -1.73      0.00
    6   16    0     -7.36      0.00
    8   16    0      0.70      0.00
   10   16    0      0.98      0.00
   12   16    0     -4.10      0.00
   14   16    0     -4.17      0.00
   16   16    0      1.84      0.00
    0   18    0      1.44      0.00
    2   18    0      0.76      0.00
    4   18    0     -4.98      0.00
    6   18    0     -5.32      0.00
    8   18    0      8.94      0.00
   10   18    0      0.02      0.00
   12   18    0      7.73      0.00
   14   18    0     11.59      0.00
    0   20    0      0.18      0.00
    2   20    0     -2.71      0.00
    4   20    0     11.79      0.00
    6   20    0      4.41      0.00
    8   20    0      4.51      0.00
   10   20    0      9.84      0.00
   12   20    0     -4.93      0.00
    0   22    0      8.04      0.00
    2   22    0      0.17      0.00
    4   22    0     -1.84      0.00
    6   22    0     -3.09      0.00
    8   22    0     -0.07      0.00
   10   22    0     -1.26      0.00
   12   22    0     -2.71      0.00
    0   24    0     -9.57      0.00
    2   24    0      2.99      0.00
    4   24    0      5.54      0.00
    6   24    0     -9.37      0.00
    8   24    0     -0.77      0.00
   10   24    0     -9.38      0.00
    0   26    0      5.30      0.00
    2   26    0     -0.25      0.00
    4   26    0      4.23      0.00
    6   26    0     -3.51      0.00
    1    1    1   -288.33      0.00
    3    1    1     65.19      0.00
    5    1    1     -5.93      0.00
    7    1    1    -15.55      0.00
    9    1    1     -1.76      0.00
   11    1    1      1.84      0.00
   13    1    1     -3.23      0.00
   15    1    1     -3.35      0.00
   17    1    1     -0.76      0.00
   19    1    1      1.76      0.00
    2    2    1     -9.04      0.00
    4    2    1     -4.20      0.00
    6    2    1     -4.15      0.00
    8    2    1     -3.44      0.00
   10    2    1      5.73      0.00
   12    2    1     -0.20      0.00
   14    2    1     -2.94      0.00
   16    2    1      6.12      0.00
   18    2    1     -2.13      0.00
   20    2    1      1.27      0.00
    1    3    1    -26.88      0.00
    3    3    1    -87.11      0.00
    5    3    1    -35.91      0.00
    7    3    1      7.11      0.00
    9    3    1      6.37      0.00
   11    3    1     -3.79      0.00
   13    3    1     -1.97      0.00
   15    3    1      1.71      0.00
   17    3    1     -0.36      0.00
   19    3    1     -2.11      0.00
    2    4    1    -39.58      0.00
    4    4    1     18.98      0.00
    6    4    1     -8.93      0.00
    8    4    1     -1.53      0.00
   10    4    1     -2.77      0.00
   12    4    1      1.27      0.00
   14    4    1      5.00      0.00
   16    4    1     -7.99      0.00
   18    4    1      2.43      0.00
    1    5    1      8.41      0.00
    3    5    1     39.01      0.00
    5    5    1     10.47      0.00
    7    5    1     -1.25      0.00
    9    5    1     -4.24      0.00
   11    5    1     -1.42      0.00
   13    5    1      5.67      0.00
   15    5    1     -3.55      0.00
   17    5    1      0.06      0.00
   19    5    1      1.33      0.00
    2    6    1     28.44      0.00
    4    6    1     -8.24      0.00
    6    6    1     -1.09      0.00
    8    6    1      5.56      0.00
   10    6    1      3.94      0.00
   12    6    1     -7.56      0.00
   14    6    1      1.70      0.00
   16    6    1     -0.34      0.00
   18    6    1      2.85      0.00
    1    7    1     24.37      0.00
    3    7    1     27.65      0.00
    5    7    1     -7.64      0.00
    7    7    1     -2.28      0.00
    9    7    1      1.79      0.00
   11    7    1     -0.80      0.00
   13    7    1      5.22      0.00
   15    7    1      5.06      0.00
   17    7    1      1.39      0.00
   19    7    1     -0.79      0.00
    2    8    1    -10.16      0.00
    4    8    1      6.80      0.00
    6    8    1      4.27      0.00
    8    8    1     -5.71      0.00
   10    8    1     -6.86      0.00
   12    8    1      0.77      0.00
   14    8    1      4.66      0.00
   16    8    1      1.14      0.00
   18    8    1      2.22      0.00
    1    9    1      9.88      0.00
    3    9    1    -19.98      0.00
    5    9    1     -2.98      0.00
    7    9    1      5.23      0.00
    9    9    1     -3.45      0.00
   11    9    1      0.11      0.00
   13    9    1      4.85      0.00
   15    9    1     -2.86      0.00
   17    9    1      1.33      0.00
   19    9    1     -2.44      0.00
    2   10    1      5.49      0.00
    4   10    1     -3.96      0.00
    6   10    1     -6.49      0.00
    8   10    1      3.29      0.00
   10   10    1     -1.32      0.00
   12   10    1     -3.52      0.00
   14   10    1      1.50      0.00
   16   10    1     -3.22      0.00
   18   10    1      2.95      0.00
    1   11    1    -17.40      0.00
    3   11    1     10.60      0.00
    5   11    1      3.74      0.00
    7   11    1     -1.42      0.00
    9   11    1      6.41      0.00
   11   11    1      6.06      0.00
   13   11    1     -7.20      0.00
   15   11    1     -7.16      0.00
   17   11    1     -3.79      0.00
    2   12    1     -6.42      0.00
    4   12    1      3.01      0.00
    6   12    1      2.29      0.00
    8   12    1     -6.66      0.00
   10   12    1      5.29      0.00
   12   12    1     -4.21      0.00
   14   12    1      3.41      0.00
   16   12    1      2.03      0.00
   18   12    1     -3.06      0.00
    1   13    1     -4.56      0.00
    3   13    1    -14.97      0.00
    5   13    1     -3.80      0.00
    7   13    1      2.28      0.00
    9   13    1      2.72      0.00
   11   13    1     -3.88      0.00
   13   13    1      8.24      0.00
   15   13    1      3.26      0.00
   17   13    1     -4.45      0.00
    2   14    1      6.88      0.00
    4   14    1     -2.39      0.00
    6   14    1      1.66      0.00
    8   14    1     -1.96      0.00
   10   14    1      3.04      0.00
   12   14    1     -0.45      0.00
   14   14    1     -6.23      0.00
   16   14    1      3.91      0.00
    1   15    1      1.20      0.00
    3   15    1      1.24      0.00
    5   15    1     -5.08      0.00
    7   15    1     -6.62      0.00
    9   15    1      5.01      0.00
   11   15    1      0.29      0.00
   13   15    1     -7.37      0.00
   15   15    1      2.82      0.00
    2   16    1      1.95      0.00
    4   16    1     -5.37      0.00
    6   16    1     -3.70      0.00
    8   16    1      2.97      0.00
   10   16    1     -3.35      0.00
   12   16    1      2.07      0.00
   14   16    1      4.64      0.00
   16   16    1     -1.25      0.00
    1   17    1      5.36      0.00
    3   17    1     -2.53      0.00
    5   17    1     -0.64      0.00
    7   17    1      2.10      0.00
    9   17    1      1.70      0.00
   11   17    1      5.61      0.00
   13   17    1      4.63      0.00
   15   17    1      2.25      0.00
    2   18    1      3.67      0.00
    4   18    1     -1.63      0.00
    6   18    1      6.17      0.00
    8   18    1     -4.72      0.00
   10   18    1     -0.84      0.00
   12   18    1      3.09      0.00
   14   18    1      2.62      0.00
    1   19    1      0.16      0.00
    3   19    1      5.32      0.00
    5   19    1      8.59      0.00
    7   19    1      2.07      0.00
    9   19    1     -2.14      0.00
   11   19    1      2.66      0.00
   13   19    1    -12.12      0.00
    2   20    1      4.33      0.00
    4   20    1     -8.66      0.00
    6   20    1     -3.89      0.00
    8   20    1      5.17      0.00
   10   20    1     -4.75      0.00
   12   20    1     -1.07      0.00
    1   21    1      0.50      0.00
    3   21    1     -3.05      0.00
    5   21    1     -4.32      0.00
    7   21    1     -5.40      0.00
    9   21    1     -7.19      0.00
   11   21    1    -10.11      0.00
   13   21    1      8.82      0.00
    2   22    1     -8.20      0.00
    4   22    1      4.96      0.00
    6   22    1      4.78      0.00
    8   22    1     -2.86      0.00
   10   22    1      0.43      0.00
   12   22    1     -7.04      0.00
    1   23    1     -5.74      0.00
    3   23    1      5.54      0.00
    5   23    1      1.69      0.00
    7   23    1     -3.08      0.00
    9   23    1     -3.58      0.00
   11   23    1     -6.10      0.00
    2   24    1      2.80      0.00
    4   24    1     -4.22      0.00
    6   24    1     -0.27      0.00
    8   24    1     -2.98      0.00
   10   24    1      4.63      0.00
    1   25    1      0.46      0.00
    3   25    1     -1.87      0.00
    5   25    1     -2.55      0.00
    7   25    1      4.72      0.00
    2   26    1     -5.31      0.00
    4   26    1      2.23      0.00
    6   26    1     -1.47      0.00
    1   27    1     -4.86      0.00
    3   27    1     -3.14      0.00
    0    0    2     43.41      0.00
    2    0    2   -321.49      0.00
    6    0    2     -7.42      0.00
    8    0    2     -1.52      0.00
   10    0    2     -1.41      0.00
   12    0    2      2.27      0.00
   14    0    2     -1.07      0.00
   16    0    2     -3.16      0.00
   18    0    2     -1.73      0.00
   20    0    2      0.73      0.00
    1    1    2   -158.89      0.00
    3    1    2     43.28      0.00
    5    1    2    -23.43      0.00
    7    1    2      6.57      0.00
    9    1    2     -3.18      0.00
   11    1    2      4.27      0.00
   13    1    2     -1.11      0.00
   15    1    2     -1.89      0.00
   17    1    2      1.34      0.00
   19    1    2      0.52      0.00
    0    2    2    -10.82      0.00
    2    2    2     22.24      0.00
    4    2    2    -15.26      0.00
    6    2    2    -20.66      0.00
    8    2    2      8.66      0.00
   10    2    2      0.15      0.00
   12    2    2     -4.50      0.00
   14    2    2     -2.23      0.00
   16    2    2      5.75      0.00
   18    2    2     -0.18      0.00
   20    2    2     -5.05      0.00
    1    3    2    -66.40      0.00
    3    3    2     27.52      0.00
    5    3    2     -7.03      0.00
    7    3    2     -0.60      0.00
    9    3    2     -1.86      0.00
   11    3    2     -1.27      0.00
   13    3    2      4.26      0.00
   15    3    2     -3.44      0.00
   17    3    2     -1.63      0.00
   19    3    2     -2.21      0.00
    0    4    2     72.92      0.00
    2    4    2     75.92      0.00
    4    4    2     27.14      0.00
    6    4    2     17.10      0.00
    8    4    2    -11.74      0.00
   10    4    2     -2.57      0.00
   12    4    2      6.12      0.00
   14    4    2      5.15      0.00
   16    4    2     -2.94      0.00
   18    4    2      1.30      0.00
    1    5    2     65.57      0.00
    3    5    2     11.08      0.00
    5    5    2     -8.47      0.00
    7    5    2      3.36      0.00
    9    5    2      5.50      0.00
   11    5    2      0.55      0.00
   13    5    2     -5.08      0.00
   15    5    2      0.64      0.00
   17    5    2     -0.75      0.00
   19    5    2      6.79      0.00
    0    6    2     23.74      0.00
    2    6    2     -1.69      0.00
    4    6    2      2.30      0.00
    6    6    2     -5.39      0.00
    8    6    2      6.02      0.00
   10    6    2      2.13      0.00
   12    6    2     -0.30      0.00
   14    6    2     -1.01      0.00
   16    6    2      2.86      0.00
   18    6    2     -3.40      0.00
    1    7    2    -20.23      0.00
    3    7    2    -19.83      0.00
    5    7    2      9.37      0.00
    7    7    2      1.11      0.00
    9    7    2     -6.41      0.00
   11    7    2     -2.07      0.00
   13    7    2      3.64      0.00
   15    7    2     -2.10      0.00
   17    7    2      1.81      0.00
   19    7    2      0.93      0.00
    0    8    2    -30.64      0.00
    2    8    2     -1.56      0.00
    4    8    2    -12.14      0.00
    6    8    2      1.63      0.00
    8    8    2      3.90      0.00
   10    8    2     -1.30      0.00
   12    8    2      2.27      0.00
   14    8    2     -6.77      0.00
   16    8    2     -1.63      0.00
   18    8    2     -0.18      0.00
    1    9    2      9.88      0.00
    3    9    2      3.74      0.00
    5    9    2    -18.63      0.00
    7    9    2      1.62      0.00
    9    9    2      4.66      0.00
   11    9    2     -1.18      0.00
   13    9    2     -2.78      0.00
   15    9    2     -3.14      0.00
   17    9    2      2.05      0.00
   19    9    2     -4.65      0.00
    0   10    2     -5.79      0.00
    2   10    2    -10.23      0.00
    4   10    2      2.94      0.00
    6   10    2      2.81      0.00
    8   10    2      0.37      0.00
   10   10    2      2.97      0.00
   12   10    2     -0.55      0.00
   14   10    2     -2.66      0.00
   16   10    2     -2.97      0.00
   18   10    2     -1.42      0.00
    1   11    2     -6.40      0.00
    3   11    2     -5.13      0.00
    5   11    2      8.73      0.00
    7   11    2     -0.75      0.00
    9   11    2     -1.02      0.00
   11   11    2      5.28      0.00
   13   11    2      1.26      0.00
   15   11    2     -0.96      0.00
   17   11    2     -0.88      0.00
    0   12    2     -3.57      0.00
    2   12    2      1.54      0.00
    4   12    2     -6.18      0.00
    6   12    2     -4.93      0.00
    8   12    2      2.10      0.00
   10   12    2     -3.74      0.00
   12   12    2     -1.38      0.00
   14   12    2      6.60      0.00
   16   12    2     -0.43      0.00
   18   12    2      2.04      0.00
    1   13    2      2.64      0.00
    3   13    2      4.33      0.00
    5   13    2     -2.86      0.00
    7   13    2      0.93      0.00
    9   13    2      1.29      0.00
   11   13    2      2.32      0.00
   13   13    2     -2.55      0.00
   15   13    2     -2.53      0.00
   17   13    2      1.00      0.00
    0   14    2      6.16      0.00
    2   14    2      7.76      0.00
    4   14    2     -3.02      0.00
    6   14    2     -1.10      0.00
    8   14    2     -1.46      0.00
   10   14    2     -2.53      0.00
   12   14    2      2.07      0.00
   14   14    2     -1.75      0.00
   16   14    2      3.36      0.00
    1   15    2      1.06      0.00
    3   15    2     -4.06      0.00
    5   15    2     -4.04      0.00
    7   15    2     -2.64      0.00
    9   15    2      0.31      0.00
   11   15    2      1.21      0.00
   13   15    2      0.85      0.00
   15   15    2      4.81      0.00
    0   16    2      6.67      0.00
    2   16    2      3.27      0.00
    4   16    2      5.08      0.00
    6   16    2      1.11      0.00
    8   16    2      2.83      0.00
   10   16    2     -3.71      0.00
   12   16    2     -0.80      0.00
   14   16    2      0.44      0.00
   16   16    2     -2.41      0.00
    1   17    2     -0.12      0.00
    3   17    2      0.51      0.00
    5   17    2      7.25      0.00
    7   17    2     -0.23      0.00
    9   17    2     -3.15      0.00
   11   17    2     -0.09      0.00
   13   17    2      3.58      0.00
   15   17    2     -2.51      0.00
    0   18    2     -6.28      0.00
    2   18    2      0.12      0.00
    4   18    2      6.53      0.00
    6   18    2     -0.11      0.00
    8   18    2      0.23      0.00
   10   18    2     -4.04      0.00
   12   18    2     -1.09      0.00
   14   18    2      1.12      0.00
    1   19    2     -2.11      0.00
    3   19    2      1.33      0.00
    5   19    2     -7.87      0.00
    7   19    2     -0.58      0.00
    9   19    2     -0.76      0.00
   11   19    2     -1.06      0.00
   13   19    2     -6.06      0.00
    0   20    2     -1.88      0.00
    2   20    2     -5.42      0.00
    4   20    2     -0.12      0.00
    6   20    2     -4.10      0.00
    8   20    2     -8.39      0.00
   10   20    2     -4.44      0.00
   12   20    2     -4.71      0.00
    1   21    2     -1.68      0.00
    3   21    2     -0.96      0.00
    5   21    2      8.33      0.00
    7   21    2      2.32      0.00
    9   21    2      1.37      0.00
   11   21    2     -3.75      0.00
   13   21    2     -1.26      0.00
    0   22    2      4.53      0.00
    2   22    2     -4.92      0.00
    4   22    2      4.20      0.00
    6   22    2      2.44      0.00
    8   22    2      0.72      0.00
   10   22    2      7.07      0.00
   12   22    2      2.43      0.00
    1   23    2      3.65      0.00
    3   23    2      4.20      0.00
    5   23    2     -6.92      0.00
    7   23    2      0.10      0.00
    9   23    2     -2.02      0.00
   11   23    2      7.16      0.00
    0   24    2     -2.20      0.00
    2   24    2      2.26      0.00
    4   24    2     -6.95      0.00
    6   24    2     -4.61      0.00
    8   24    2      5.51      0.00
   10   24    2      5.21      0.00
    1   25    2      1.99      0.00
    3   25    2     -2.77      0.00
    5   25    2      1.49      0.00
    7   25    2     11.66      0.00
    0   26    2     -0.69      0.00
    2   26    2     -3.27      0.00
    4   26    2      5.05      0.00
    6   26    2     -1.33      0.00
    1   27    2      1.14      0.00
    3   27    2      5.04      0.00
    1    1    3     11.06      0.00
    3    1    3    125.90      0.00
    5    1    3    -39.21      0.00
    7    1    3      2.93      0.00
    9    1    3      3.60      0.00
   11    1    3      1.38      0.00
   13    1    3     -3.94      0.00
   15    1    3      2.31      0.00
   17    1    3      3.55      0.00
   19    1    3     -1.98      0.00
    2    2    3     41.94      0.00
    4    2    3     -8.51      0.00
    6    2    3     12.76      0.00
    8    2    3     -3.31      0.00
   10    2    3      1.57      0.00
   12    2    3      1.05      0.00
   14    2    3     -3.78      0.00
   16    2    3      3.41      0.00
   18    2    3     -1.84      0.00
    1    3    3    103.92      0.00
    3    3    3     18.36      0.00
    5    3    3     27.31      0.00
    7    3    3      6.13      0.00
    9    3    3     -4.30      0.00
   11    3    3      2.64      0.00
   13    3    3      6.75      0.00
   15    3    3     -3.07      0.00
   17    3    3     -0.86      0.00
   19    3    3      0.48      0.00
    2    4    3     67.93      0.00
    4    4    3     -6.46      0.00
    6    4    3     -8.22      0.00
    8    4    3      9.15      0.00
   10    4    3     -0.43      0.00
   12    4    3     -1.62      0.00
   14    4    3      1.72      0.00
   16    4    3     -4.96      0.00
   18    4    3      4.93      0.00
    1    5    3    -48.82      0.00
    3    5    3    -14.93      0.00
    5    5    3    -11.45      0.00
    7    5    3     -1.86      0.00
    9    5    3     10.57      0.00
   11    5    3     -4.14      0.00
   13    5    3     -0.09      0.00
   15    5    3     -6.96      0.00
   17    5    3      0.70      0.00
   19    5    3      2.26      0.00
    2    6    3    -49.49      0.00
    4    6    3    -15.74      0.00
    6    6    3     17.50      0.00
    8    6    3     -2.96      0.00
   10    6    3     -5.14      0.00
   12    6    3      4.65      0.00
   14    6    3     -4.04      0.00
   16    6    3     -0.52      0.00
   18    6    3      3.19      0.00
    1    7    3    -24.30      0.00
    3    7    3      4.01      0.00
    5    7    3    -11.50      0.00
    7    7    3      3.74      0.00
    9    7    3     -2.18      0.00
   11    7    3      0.80      0.00
   13    7    3      1.90      0.00
   15    7    3     -1.06      0.00
   17    7    3      2.89      0.00
   19    7    3     -4.34      0.00
    2    8    3     28.32      0.00
    4    8    3     -9.90      0.00
    6    8    3     -7.47      0.00
    8    8    3      2.43      0.00
   10    8    3      3.92      0.00
   12    8    3     -2.06      0.00
   14    8    3     -1.47      0.00
   16    8    3      4.24      0.00
   18    8    3     -5.63      0.00
    1    9    3     10.65      0.00
    3    9    3    -11.61      0.00
    5    9    3      2.14      0.00
    7    9    3     -0.02      0.00
    9    9    3     -5.77      0.00
   11    9    3      0.43      0.00
   13    9    3      5.44      0.00
   15    9    3     -3.72      0.00
   17    9    3      1.42      0.00
    2   10    3    -12.36      0.00
    4   10    3      8.95      0.00
    6   10    3     11.49      0.00
    8   10    3     -0.01      0.00
   10   10    3      2.95      0.00
   12   10    3      2.99      0.00
   14   10    3      3.18      0.00
   16   10    3     -7.14      0.00
   18   10    3      2.63      0.00
    1   11    3     -1.64      0.00
    3   11    3     10.53      0.00
    5   11    3     -4.56      0.00
    7   11    3     -6.89      0.00
    9   11    3      1.10      0.00
   11   11    3     -1.20      0.00
   13   11    3      1.56      0.00
   15   11    3      4.84      0.00
   17   11    3      1.38      0.00
    2   12    3      5.56      0.00
    4   12    3      2.06      0.00
    6   12    3     -2.47      0.00
    8   12    3      0.30      0.00
   10   12    3     -0.53      0.00
   12   12    3     -2.29      0.00
   14   12    3     -2.23      0.00
   16   12    3      4.91      0.00
   18   12    3     -1.02      0.00
    1   13    3     10.87      0.00
    3   13    3     -2.44      0.00
    5   13    3      3.42      0.00
    7   13    3     -0.70      0.00
    9   13    3      2.06      0.00
   11   13    3     -7.23      0.00
   13   13    3      6.25      0.00
   15   13    3     -0.99      0.00
   17   13    3     -1.86      0.00
    2   14    3      1.56      0.00
    4   14    3     -5.31      0.00
    6   14    3     -1.72      0.00
    8   14    3      2.88      0.00
   10   14    3     -1.16      0.00
   12   14    3      0.57      0.00
   14   14    3      1.72      0.00
   16   14    3      3.04      0.00
    1   15    3      1.22      0.00
    3   15    3      0.83      0.00
    5   15    3      5.91      0.00
    7   15    3     -0.35      0.00
    9   15    3      1.60      0.00
   11   15    3     -1.81      0.00
   13   15    3     -3.66      0.00
   15   15    3      0.59      0.00
    2   16    3     -1.79      0.00
    4   16    3      4.79      0.00
    6   16    3      3.12      0.00
    8   16    3      4.44      0.00
   10   16    3     -5.31      0.00
   12   16    3     -2.75      0.00
   14   16    3      4.30      0.00
   16   16    3    -14.20      0.00
    1   17    3     -4.14      0.00
    3   17    3     -6.04      0.00
    5   17    3      0.29      0.00
    7   17    3     -0.50      0.00
    9   17    3     -3.63      0.00
   11   17    3      7.04      0.00
   13   17    3      5.63      0.00
   15   17    3     -4.64      0.00
    2   18    3      5.26      0.00
    4   18    3     -6.26      0.00
    6   18    3      0.27      0.00
    8   18    3     -1.43      0.00
   10   18    3      7.33      0.00
   12   18    3    -10.05      0.00
   14   18    3      1.26      0.00
    1   19    3     -1.88      0.00
    3   19    3     -4.32      0.00
    5   19    3     -0.43      0.00
    7   19    3     -1.99      0.00
    9   19    3     -5.49      0.00
   11   19    3      3.91      0.00
   13   19    3     -4.27      0.00
    2   20    3      2.85      0.00
    4   20    3      1.76      0.00
    6   20    3      4.77      0.00
    8   20    3      5.89      0.00
   10   20    3     -1.83      0.00
   12   20    3      1.16      0.00
    1   21    3      5.66      0.00
    3   21    3     -4.37      0.00
    5   21    3      1.11      0.00
    7   21    3      4.62      0.00
    9   21    3      2.51      0.00
   11   21    3      5.47      0.00
   13   21    3      8.99      0.00
    2   22    3      3.97      0.00
    4   22    3      0.88      0.00
    6   22    3     -3.21      0.00
    8   22    3     -2.77      0.00
   10   22    3      1.52      0.00
   12   22    3     12.31      0.00
    1   23    3     -5.38      0.00
    3   23    3      5.99      0.00
    5   23    3     -7.27      0.00
    7   23    3     -1.16      0.00
    9   23    3      5.50      0.00
   11   23    3     -7.13      0.00
    2   24    3      2.52      0.00
    4   24    3     -7.01      0.00
    6   24    3     14.27      0.00
    8   24    3      1.15      0.00
   10   24    3     -3.50      0.00
    1   25    3     -1.91      0.00
    3   25    3      2.34      0.00
    5   25    3      8.83      0.00
    7   25    3      1.87      0.00
    2   26    3     -0.56      0.00
    4   26    3      1.98      0.00
    6   26    3    -12.82      0.00
    1   27    3      2.68      0.00
    3   27    3     -0.76      0.00
    0    0    4     -0.87      0.00
    2    0    4     88.61      0.00
    4    0    4     23.19      0.00
    6    0    4      2.14      0.00
    8    0    4      2.89      0.00
   10    0    4      1.58      0.00
   12    0    4     -0.28      0.00
   14    0    4     -6.21      0.00
   16    0    4      3.84      0.00
   18    0    4      4.18      0.00
    1    1    4    -86.73      0.00
    3    1    4     56.76      0.00
    5    1    4    -14.32      0.00
    7    1    4     24.08      0.00
    9    1    4     -5.20      0.00
   11    1    4      3.04      0.00
   13    1    4     -1.73      0.00
   15    1    4     -1.31      0.00
   17    1    4      1.75      0.00
   19    1    4     -1.48      0.00
    0    2    4     -6.82      0.00
    2    2    4     37.29      0.00
    4    2    4     -8.18      0.00
    6    2    4     16.15      0.00
    8    2    4      4.10      0.00
   10    2    4     -2.53      0.00
   12    2    4      2.41      0.00
   14    2    4     -0.21      0.00
   16    2    4     -0.65      0.00
   18    2    4     -3.08      0.00
    1    3    4     12.51      0.00
    3    3    4     36.86      0.00
    5    3    4    -24.12      0.00
    7    3    4     -8.01      0.00
    9    3    4      5.12      0.00
   11    3    4     -3.47      0.00
   13    3    4      4.72      0.00
   15    3    4     -0.69      0.00
   17    3    4     -0.75      0.00
   19    3    4     -3.16      0.00
    0    4    4    -95.79      0.00
    2    4    4    -38.13      0.00
    4    4    4    -23.64      0.00
    6    4    4     -4.95      0.00
    8    4    4     -4.45      0.00
   10    4    4      5.47      0.00
   12    4    4     -4.73      0.00
   14    4    4     -2.22      0.00
   16    4    4     -2.85      0.00
   18    4    4      7.77      0.00
    1    5    4    -28.61      0.00
    3    5    4    -66.19      0.00
    5    5    4     19.54      0.00
    7    5    4      4.53      0.00
    9    5    4     -6.56      0.00
   11    5    4      4.76      0.00
   13    5    4     -1.64      0.00
   15    5    4     -1.89      0.00
   17    5    4      0.61      0.00
   19    5    4      0.94      0.00
    0    6    4     -1.63      0.00
    2    6    4     -3.95      0.00
    4    6    4     -3.69      0.00
    6    6    4      4.47      0.00
    8    6    4     -1.73      0.00
   10    6    4     -5.34      0.00
   12    6    4      1.50      0.00
   14    6    4     -0.61      0.00
   16    6    4      9.13      0.00
   18    6    4     -3.66      0.00
    1    7    4     31.53      0.00
    3    7    4     25.33      0.00
    5    7    4     -7.08      0.00
    7    7    4     -8.42      0.00
    9    7    4      7.30      0.00
   11    7    4      0.62      0.00
   13    7    4     -1.79      0.00
   15    7    4      6.39      0.00
   17    7    4     -1.39      0.00
   19    7    4     -5.75      0.00
    0    8    4     26.16      0.00
    2    8    4      7.58      0.00
    4    8    4     -5.38      0.00
    6    8    4      5.78      0.00
    8    8    4     -0.05      0.00
   10    8    4     -7.64      0.00
   12    8    4      3.53      0.00
   14    8    4      1.95      0.00
   16    8    4      0.30      0.00
   18    8    4      2.47      0.00
    1    9    4    -12.90      0.00
    3    9    4     -1.36      0.00
    5    9    4     12.32      0.00
    7    9    4     10.27      0.00
    9    9    4     -3.57      0.00
   11    9    4      0.35      0.00
   13    9    4      2.49      0.00
   15    9    4     -4.38      0.00
   17    9    4      0.14      0.00
    0   10    4     -7.44      0.00
    2   10    4      0.99      0.00
    4   10    4     11.00      0.00
    6   10    4     -2.72      0.00
    8   10    4     -3.01      0.00
   10   10    4      1.77      0.00
   12   10    4     -2.20      0.00
   14   10    4     -2.29      0.00
   16   10    4      3.49      0.00
   18   10    4      0.34      0.00
    1   11    4      8.86      0.00
    3   11    4      2.33      0.00
    5   11    4     -3.33      0.00
    7   11    4     -6.12      0.00
    9   11    4     -1.89      0.00
   11   11    4      0.25      0.00
   13   11    4     -4.52      0.00
   15   11    4      6.99      0.00
   17   11    4      2.53      0.00
    0   12    4      5.96      0.00
    2   12    4      2.77      0.00
    4   12    4     -7.72      0.00
    6   12    4      7.42      0.00
    8   12    4      6.73      0.00
   10   12    4     -2.72      0.00
   12   12    4     -1.70      0.00
   14   12    4      4.08      0.00
   16   12    4     -2.34      0.00
    1   13    4     -0.57      0.00
    3   13    4     -4.02      0.00
    5   13    4     -2.87      0.00
    7   13    4      4.25      0.00
    9   13    4     -1.39      0.00
   11   13    4      0.89      0.00
   13   13    4      0.84      0.00
   15   13    4     -3.01      0.00
   17   13    4      0.97      0.00
    0   14    4     -6.50      0.00
    2   14    4      0.89      0.00
    4   14    4      1.78      0.00
    6   14    4      0.49      0.00
    8   14    4      1.81      0.00
   10   14    4      0.80      0.00
   12   14    4     -3.45      0.00
   14   14    4     -0.03      0.00
   16   14    4     -3.15      0.00
    1   15    4     -2.93      0.00
    3   15    4      0.14      0.00
    5   15    4      6.12      0.00
    7   15    4     -0.09      0.00
    9   15    4      2.60      0.00
   11   15    4     -4.90      0.00
   13   15    4      1.55      0.00
   15   15    4     -6.63      0.00
    0   16    4     -3.65      0.00
    2   16    4     -6.47      0.00
    4   16    4     -5.49      0.00
    6   16    4     -8.11      0.00
    8   16    4      3.48      0.00
   10   16    4      2.36      0.00
   12   16    4      5.50      0.00
   14   16    4      6.75      0.00
   16   16    4     -2.24      0.00
    1   17    4      6.24      0.00
    3   17    4      0.94      0.00
    5   17    4     -4.87      0.00
    7   17    4      2.20      0.00
    9   17    4      1.48      0.00
   11   17    4      3.71      0.00
   13   17    4     -0.39      0.00
   15   17    4      1.65      0.00
    0   18    4      1.01      0.00
    2   18    4      3.63      0.00
    4   18    4      3.95      0.00
    6   18    4     -3.59      0.00
    8   18    4      1.66      0.00
   10   18    4     -0.21      0.00
   12   18    4     -3.12      0.00
   14   18    4     -3.05      0.00
    1   19    4     -3.59      0.00
    3   19    4      4.53      0.00
    5   19    4      5.87      0.00
    7   19    4     -5.55      0.00
    9   19    4      0.41      0.00
   11   19    4      2.62      0.00
   13   19    4      5.46      0.00
    0   20    4      2.20      0.00
    2   20    4      1.87      0.00
    4   20    4     -1.75      0.00
    6   20    4      0.14      0.00
    8   20    4      1.18      0.00
   10   20    4      2.87      0.00
   12   20    4     -4.72      0.00
    1   21    4     -1.48      0.00
    3   21    4      2.77      0.00
    5   21    4      0.28      0.00
    7   21    4     -7.44      0.00
    9   21    4      5.29      0.00
   11   21    4      4.12      0.00
    0   22    4      1.11      0.00
    2   22    4     -3.61      0.00
    4   22    4     10.93      0.00
    6   22    4     -3.42      0.00
    8   22    4      2.77      0.00
   10   22    4      0.53      0.00
   12   22    4     -9.52      0.00
    1   23    4     -3.86      0.00
    3   23    4     -4.33      0.00
    5   23    4      0.57      0.00
    7   23    4      4.86      0.00
    9   23    4     -3.25      0.00
   11   23    4     -6.35      0.00
    0   24    4     -1.10      0.00
    2   24    4      3.02      0.00
    4   24    4     -3.08      0.00
    6   24    4     12.05      0.00
    8   24    4     -8.64      0.00
    1   25    4      3.06      0.00
    3   25    4     -2.16      0.00
    5   25    4    -11.55      0.00
    7   25    4     -2.50      0.00
    0   26    4      6.33      0.00
    2   26    4      1.20      0.00
    4   26    4     -2.81      0.00
    6   26    4     -1.99      0.00
    1   27    4      0.62      0.00
    3   27    4      2.08      0.00
    1    1    5    -23.43      0.00
    3    1    5     -1.77      0.00
    5    1    5    -26.88      0.00
    7    1    5     12.51      0.00
    9    1    5     -3.17      0.00
   11    1    5     -1.15      0.00
   13    1    5     -1.83      0.00
   15    1    5      5.54      0.00
   17    1    5     -4.77      0.00
   19    1    5     -5.14      0.00
    2    2    5     45.08      0.00
    4    2    5    -27.84      0.00
    6    2    5     -7.03      0.00
    8    2    5    -11.62      0.00
   10    2    5      3.68      0.00
   12    2    5     -0.91      0.00
   14    2    5     -3.37      0.00
   16    2    5      4.11      0.00
   18    2    5     -3.75      0.00
    1    3    5    -15.54      0.00
    3    3    5    -60.63      0.00
    5    3    5      7.16      0.00
    7    3    5    -12.72      0.00
    9    3    5     -2.54      0.00
   11    3    5      5.83      0.00
   13    3    5     -2.26      0.00
   15    3    5     -3.30      0.00
   17    3    5      6.55      0.00
   19    3    5      6.06      0.00
    2    4    5    -45.50      0.00
    4    4    5    -19.66      0.00
    6    4    5     16.13      0.00
    8    4    5      1.95      0.00
   10    4    5     -3.38      0.00
   12    4    5      1.81      0.00
   14    4    5     -2.15      0.00
   16    4    5      1.42      0.00
   18    4    5      1.26      0.00
    1    5    5     22.49      0.00
    3    5    5      1.72      0.00
    5    5    5     16.05      0.00
    7    5    5     -3.29      0.00
    9    5    5     -0.80      0.00
   11    5    5     -7.46      0.00
   13    5    5      2.64      0.00
   15    5    5      4.20      0.00
   17    5    5      4.86      0.00
   19    5    5     -3.94      0.00
    2    6    5     43.58      0.00
    4    6    5     12.01      0.00
    6    6    5     -3.05      0.00
    8    6    5      1.33      0.00
   10    6    5      3.95      0.00
   12    6    5      0.27      0.00
   14    6    5     -1.42      0.00
   16    6    5      2.39      0.00
   18    6    5     -0.08      0.00
    1    7    5     16.23      0.00
    3    7    5      9.54      0.00
    5    7    5     -1.95      0.00
    7    7    5      6.61      0.00
    9    7    5     -3.68      0.00
   11    7    5     -0.76      0.00
   13    7    5      1.55      0.00
   15    7    5     -0.15      0.00
   17    7    5     -0.48      0.00
   19    7    5     -1.34      0.00
    2    8    5     -7.47      0.00
    4    8    5     -7.95      0.00
    6    8    5     12.24      0.00
    8    8    5      3.45      0.00
   10    8    5     -4.38      0.00
   12    8    5      0.05      0.00
   14    8    5     -5.02      0.00
   16    8    5      2.17      0.00
   18    8    5     -1.11      0.00
    1    9    5     -7.36      0.00
    3    9    5      0.46      0.00
    5    9    5      9.00      0.00
    7    9    5     -6.67      0.00
    9    9    5     -0.47      0.00
   11    9    5      4.98      0.00
   13    9    5     -1.61      0.00
   15    9    5     -2.49      0.00
   17    9    5      1.66      0.00
    2   10    5      0.35      0.00
    4   10    5     -5.06      0.00
    6   10    5     -8.60      0.00
    8   10    5     -3.86      0.00
   10   10    5      4.35      0.00
   12   10    5     -2.39      0.00
   14   10    5      4.15      0.00
   16   10    5     -1.68      0.00
   18   10    5      0.44      0.00
    1   11    5      1.59      0.00
    3   11    5     -1.51      0.00
    5   11    5     -1.09      0.00
    7   11    5      5.41      0.00
    9   11    5      6.72      0.00
   11   11    5     -5.11      0.00
   13   11    5     -0.39      0.00
   15   11    5      3.23      0.00
   17   11    5     -5.73      0.00
    2   12    5     -5.18      0.00
    4   12    5     -2.46      0.00
    6   12    5      2.40      0.00
    8   12    5      6.28      0.00
   10   12    5     -3.67      0.00
   12   12    5      4.98      0.00
   14   12    5     -8.16      0.00
   16   12    5      1.02      0.00
    1   13    5     -2.99      0.00
    3   13    5      1.86      0.00
    5   13    5     -0.49      0.00
    7   13    5     -2.57      0.00
    9   13    5     -2.54      0.00
   11   13    5     -0.13      0.00
   13   13    5      3.60      0.00
   15   13    5     -1.00      0.00
   17   13    5      2.55      0.00
    2   14    5     -4.40      0.00
    4   14    5      6.82      0.00
    6   14    5     -4.12      0.00
    8   14    5      3.51      0.00
   10   14    5     -0.52      0.00
   12   14    5      0.53      0.00
   14   14    5     -3.95      0.00
   16   14    5     -5.34      0.00
    1   15    5      0.55      0.00
    3   15    5     -6.58      0.00
    5   15    5     -4.45      0.00
    7   15    5     -0.18      0.00
    9   15    5      1.18      0.00
   11   15    5      0.66      0.00
   13   15    5     -0.20      0.00
   15   15    5      0.75      0.00
    2   16    5      2.71      0.00
    4   16    5     -3.72      0.00
    6   16    5     -1.11      0.00
    8   16    5      4.61      0.00
   10   16    5      1.53      0.00
   12   16    5      7.73      0.00
   14   16    5      0.43      0.00
   16   16    5      6.26      0.00
    1   17    5      5.65      0.00
    3   17    5      5.26      0.00
    5   17    5      4.75      0.00
    7   17    5      4.96      0.00
    9   17    5     -2.20      0.00
   11   17    5     -2.67      0.00
   13   17    5      0.08      0.00
   15   17    5    -12.62      0.00
    2   18    5     -2.43      0.00
    4   18    5      4.83      0.00
    6   18    5      0.20      0.00
    8   18    5    -13.96      0.00
   10   18    5     10.10      0.00
   12   18    5    -10.45      0.00
   14   18    5      4.72      0.00
    1   19    5      0.06      0.00
    3   19    5     -1.65      0.00
    5   19    5      1.80      0.00
    7   19    5     -0.48      0.00
    9   19    5      1.34      0.00
   11   19    5    -11.42      0.00
   13   19    5      2.83      0.00
    2   20    5     -1.16      0.00
    4   20    5     -6.15      0.00
    6   20    5     -0.38      0.00
    8   20    5      2.52      0.00
   10   20    5     10.68      0.00
   12   20    5     -5.56      0.00
    1   21    5      4.05      0.00
    3   21    5     -3.64      0.00
    5   21    5     11.46      0.00
    7   21    5      4.85      0.00
    9   21    5     -3.16      0.00
   11   21    5     12.56      0.00
    2   22    5     -1.90      0.00
    4   22    5     -7.51      0.00
    6   22    5      3.94      0.00
    8   22    5     -5.31      0.00
   10   22    5    -16.23      0.00
    1   23    5     -1.76      0.00
    3   23    5     -2.16      0.00
    5   23    5     -4.53      0.00
    7   23    5      1.43      0.00
    9   23    5     -8.54      0.00
    2   24    5      7.96      0.00
    4   24    5     -9.24      0.00
    6   24    5     -1.36      0.00
    8   24    5      3.62      0.00
    1   25    5      4.67      0.00
    3   25    5     -3.74      0.00
    5   25    5      3.70      0.00
    7   25    5     -4.42      0.00
    2   26    5     -0.46      0.00
    4   26    5     16.12      0.00
    6   26    5     -0.40      0.00
    1   27    5     -3.18      0.00
    3   27    5     -2.69      0.00
    0    0    6    -69.34      0.00
    2    0    6     31.37      0.00
    4    0    6    -62.74      0.00
    6    0    6      4.53      0.00
    8    0    6      4.93      0.00
   10    0    6     -5.72      0.00
   12    0    6     -3.74      0.00
   14    0    6      0.17      0.00
   16    0    6      7.26      0.00
   18    0    6     -2.61      0.00
    1    1    6     -7.88      0.00
    3    1    6     11.03      0.00
    5    1    6    -17.95      0.00
    7    1    6      7.60      0.00
    9    1    6    -10.34      0.00
   11    1    6      0.49      0.00
   13    1    6     -3.72      0.00
   15    1    6     -1.27      0.00
   17    1    6      4.59      0.00
   19    1    6     -6.06      0.00
    0    2    6    -16.51      0.00
    2    2    6     10.51      0.00
    4    2    6    -13.97      0.00
    6    2    6     25.89      0.00
    8    2    6    -17.06      0.00
   10    2    6      0.29      0.00
   12    2    6      4.29      0.00
   14    2    6     -3.00      0.00
   16    2    6      1.79      0.00
   18    2    6      3.34      0.00
    1    3    6      5.16      0.00
    3    3    6    -20.81      0.00
    5    3    6     11.68      0.00
    7    3    6      3.67      0.00
    9    3    6     -0.17      0.00
   11    3    6     -1.55      0.00
   13    3    6      7.99      0.00
   15    3    6      1.18      0.00
   17    3    6      0.42      0.00
   19    3    6     -2.03      0.00
    0    4    6      5.13      0.00
    2    4    6     22.48      0.00
    4    4    6     13.53      0.00
    6    4    6     -0.52      0.00
    8    4    6      1.10      0.00
   10    4    6      0.22      0.00
   12    4    6     -2.72      0.00
   14    4    6      1.15      0.00
   16    4    6      2.96      0.00
   18    4    6     -6.18      0.00
    1    5    6     28.11      0.00
    3    5    6      9.80      0.00
    5    5    6     20.52      0.00
    7    5    6     -8.32      0.00
    9    5    6      3.68      0.00
   11    5    6      3.51      0.00
   13    5    6     -2.16      0.00
   15    5    6      1.14      0.00
   17    5    6      0.68      0.00
   19    5    6      0.04      0.00
    0    6    6      6.97      0.00
    2    6    6      0.49      0.00
    4    6    6      5.02      0.00
    6    6    6      0.79      0.00
    8    6    6      3.94      0.00
   10    6    6      1.78      0.00
   12    6    6     -0.37      0.00
   14    6    6     -0.77      0.00
   16    6    6     -0.29      0.00
   18    6    6     -3.68      0.00
    1    7    6     -5.60      0.00
    3    7    6     -7.39      0.00
    5    7    6     -4.01      0.00
    7    7    6     -0.61      0.00
    9    7    6     -2.46      0.00
   11    7    6     -0.28      0.00
   13    7    6     -1.75      0.00
   15    7    6      1.81      0.00
   17    7    6     -0.94      0.00
   19    7    6     -6.44      0.00
    0    8    6     -7.40      0.00
    2    8    6     -6.68      0.00
    4    8    6     -0.39      0.00
    6    8    6     -3.40      0.00
    8    8    6     -1.44      0.00
   10    8    6      3.58      0.00
   12    8    6      2.07      0.00
   14    8    6     -3.43      0.00
   16    8    6     -3.53      0.00
   18    8    6      1.88      0.00
    1    9    6     -7.58      0.00
    3    9    6     -4.27      0.00
    5    9    6     -3.04      0.00
    7    9    6     -6.67      0.00
    9    9    6     -0.11      0.00
   11    9    6      2.53      0.00
   13    9    6      6.46      0.00
   15    9    6     -0.09      0.00
   17    9    6     -1.67      0.00
    0   10    6     -0.46      0.00
    2   10    6      3.79      0.00
    4   10    6     -5.02      0.00
    6   10    6      2.04      0.00
    8   10    6      5.14      0.00
   10   10    6     -3.49      0.00
   12   10    6     -0.91      0.00
   14   10    6      3.47      0.00
   16   10    6      0.42      0.00
   18   10    6     -6.79      0.00
    1   11    6      4.67      0.00
    3   11    6     -1.07      0.00
    5   11    6      4.71      0.00
    7   11    6      3.90      0.00
    9   11    6     -2.51      0.00
   11   11    6      1.22      0.00
   13   11    6     -5.24      0.00
   15   11    6      2.83      0.00
   17   11    6      4.75      0.00
    0   12    6     -0.82      0.00
    2   12    6      0.89      0.00
    4   12    6     -4.07      0.00
    6   12    6     -0.30      0.00
    8   12    6     -3.87      0.00
   10   12    6     -2.55      0.00
   12   12    6      3.09      0.00
   14   12    6     -2.46      0.00
   16   12    6      2.26      0.00
    1   13    6     -2.96      0.00
    3   13    6     -0.54      0.00
    5   13    6      3.06      0.00
    7   13    6     -1.14      0.00
    9   13    6     -0.27      0.00
   11   13    6      0.45      0.00
   13   13    6      6.79      0.00
   15   13    6     -8.61      0.00
   17   13    6      0.34      0.00
    0   14    6      4.17      0.00
    2   14    6     -2.19      0.00
    4   14    6      0.33      0.00
    6   14    6     -3.23      0.00
    8   14    6      6.65      0.00
   10   14    6     -0.49      0.00
   12   14    6     -6.06      0.00
   14   14    6     -1.74      0.00
   16   14    6     -3.28      0.00
    1   15    6      1.78      0.00
    3   15    6     -2.26      0.00
    5   15    6     -1.71      0.00
    7   15    6      1.10      0.00
    9   15    6      1.80      0.00
   11   15    6     -2.93      0.00
   13   15    6     10.77      0.00
   15   15    6      2.13      0.00
    0   16    6      3.23      0.00
    2   16    6      3.15      0.00
    4   16    6      4.83      0.00
    6   16    6      2.88      0.00
    8   16    6      4.70      0.00
   10   16    6     -3.10      0.00
   12   16    6      1.55      0.00
   14   16    6     -0.84      0.00
   16   16    6     -9.82      0.00
    1   17    6      0.41      0.00
    3   17    6      2.04      0.00
    5   17    6     -6.82      0.00
    7   17    6      2.96      0.00
    9   17    6     -4.75      0.00
   11   17    6     -4.94      0.00
   13   17    6     -4.06      0.00
   15   17    6     -3.66      0.00
    0   18    6     -7.08      0.00
    2   18    6      1.36      0.00
    4   18    6      1.90      0.00
    6   18    6     -7.33      0.00
    8   18    6      1.93      0.00
   10   18    6     -0.95      0.00
   12   18    6     -1.95      0.00
   14   18    6      1.10      0.00
    1   19    6     -1.98      0.00
    3   19    6     -6.17      0.00
    5   19    6      0.47      0.00
    7   19    6     -2.78      0.00
    9   19    6      8.88      0.00
   11   19    6     -0.03      0.00
   13   19    6      0.24      0.00
    0   20    6      3.35      0.00
    2   20    6     -1.39      0.00
    4   20    6      1.23      0.00
    6   20    6      0.54      0.00
    8   20    6      2.48      0.00
   10   20    6     10.10      0.00
   12   20    6      7.31      0.00
    1   21    6      1.14      0.00
    3   21    6      3.60      0.00
    5   21    6     -0.45      0.00
    7   21    6     -1.26      0.00
    9   21    6    -18.92      0.00
   11   21    6     -7.54      0.00
    0   22    6     -7.54      0.00
    2   22    6     -3.24      0.00
    4   22    6     -2.74      0.00
    6   22    6    -14.70      0.00
    8   22    6      2.04      0.00
   10   22    6     -7.09      0.00
    1   23    6      1.25      0.00
    3   23    6      0.90      0.00
    5   23    6      4.53      0.00
    7   23    6     -0.21      0.00
    9   23    6     19.07      0.00
    0   24    6      5.03      0.00
    2   24    6      2.65      0.00
    4   24    6     -3.57      0.00
    6   24    6      9.29      0.00
    8   24    6     -8.52      0.00
    1   25    6     -4.75      0.00
    3   25    6     10.53      0.00
    5   25    6      4.86      0.00
    7   25    6     -1.13      0.00
    0   26    6     -4.92      0.00
    2   26    6     -1.65      0.00
    4   26    6     -3.24      0.00
    6   26    6     -0.96      0.00
    1   27    6      5.48      0.00
    3   27    6    -14.28      0.00
    1    1    7     -5.57      0.00
    3    1    7     17.13      0.00
    5    1    7     10.50      0.00
    7    1    7     19.90      0.00
    9    1    7    -13.38      0.00
   11    1    7      6.80      0.00
   13    1    7      1.62      0.00
   15    1    7     -1.45      0.00
   17    1    7    -10.78      0.00
   19    1    7     -2.80      0.00
    2    2    7      8.99      0.00
    4    2    7     -6.82      0.00
    6    2    7     12.09      0.00
    8    2    7     -2.63      0.00
   10    2    7      6.37      0.00
   12    2    7      3.37      0.00
   14    2    7      5.54      0.00
   16    2    7      0.36      0.00
   18    2    7     -1.34      0.00
    1    3    7     24.57      0.00
    3    3    7    -18.41      0.00
    5    3    7     13.77      0.00
    7    3    7    -17.12      0.00
    9    3    7     14.11      0.00
   11    3    7     -1.75      0.00
   13    3    7     -1.07      0.00
   15    3    7      0.98      0.00
   17    3    7     -1.21      0.00
   19    3    7      3.81      0.00
    2    4    7    -13.94      0.00
    4    4    7     20.65      0.00
    6    4    7     -2.34      0.00
    8    4    7     -0.03      0.00
   10    4    7      6.55      0.00
   12    4    7     -3.30      0.00
   14    4    7     -5.79      0.00
   16    4    7      5.27      0.00
   18    4    7     -1.85      0.00
    1    5    7     -8.44      0.00
    3    5    7    -13.30      0.00
    5    5    7     14.80      0.00
    7    5    7     -2.87      0.00
    9    5    7      4.48      0.00
   11    5    7     -4.00      0.00
   13    5    7     -0.61      0.00
   15    5    7     -1.62      0.00
   17    5    7     -1.23      0.00
   19    5    7     -5.87      0.00
    2    6    7     -0.94      0.00
    4    6    7     -4.71      0.00
    6    6    7    -14.39      0.00
    8    6    7      0.18      0.00
   10    6    7     -4.03      0.00
   12    6    7      2.36      0.00
   14    6    7      1.12      0.00
   16    6    7     -0.43      0.00
   18    6    7     -1.89      0.00
    1    7    7     -2.00      0.00
    3    7    7      0.76      0.00
    5    7    7     -8.57      0.00
    7    7    7      2.28      0.00
    9    7    7     -2.09      0.00
   11    7    7      0.50      0.00
   13    7    7      1.82      0.00
   15    7    7     -0.11      0.00
   17    7    7      0.14      0.00
    2    8    7     -3.26      0.00
    4    8    7     -5.18      0.00
    6    8    7     -1.99      0.00
    8    8    7      2.57      0.00
   10    8    7      0.21      0.00
   12    8    7      0.80      0.00
   14    8    7      2.00      0.00
   16    8    7      1.51      0.00
   18    8    7      3.76      0.00
    1    9    7      2.84      0.00
    3    9    7     -5.09      0.00
    5    9    7      5.80      0.00
    7    9    7      4.34      0.00
    9    9    7     -5.39      0.00
   11    9    7     -7.34      0.00
   13    9    7      7.04      0.00
   15    9    7     -2.56      0.00
   17    9    7     -3.06      0.00
    2   10    7      8.11      0.00
    4   10    7      5.40      0.00
    6   10    7      5.13      0.00
    8   10    7     -1.29      0.00
   10   10    7     -1.34      0.00
   12   10    7     -2.82      0.00
   14   10    7      2.02      0.00
   16   10    7      1.46      0.00
   18   10    7      0.92      0.00
    1   11    7     -3.76      0.00
    3   11    7      0.43      0.00
    5   11    7      0.39      0.00
    7   11    7     -1.28      0.00
    9   11    7      1.66      0.00
   11   11    7      0.76      0.00
   13   11    7     -6.80      0.00
   15   11    7      3.12      0.00
   17   11    7      2.92      0.00
    2   12    7     -0.71      0.00
    4   12    7     -1.11      0.00
    6   12    7     -2.70      0.00
    8   12    7      1.29      0.00
   10   12    7     -4.50      0.00
   12   12    7      4.58      0.00
   14   12    7     -1.11      0.00
   16   12    7    -10.45      0.00
    1   13    7     -0.39      0.00
    3   13    7      3.76      0.00
    5   13    7     -1.21      0.00
    7   13    7      6.32      0.00
    9   13    7     -3.17      0.00
   11   13    7      1.83      0.00
   13   13    7     -7.59      0.00
   15   13    7      2.17      0.00
   17   13    7     -2.26      0.00
    2   14    7     -1.23      0.00
    4   14    7      2.62      0.00
    6   14    7     -3.16      0.00
    8   14    7      0.72      0.00
   10   14    7     -2.53      0.00
   12   14    7      1.11      0.00
   14   14    7      5.05      0.00
   16   14    7      5.95      0.00
    1   15    7     -1.04      0.00
    3   15    7      1.55      0.00
    5   15    7      3.29      0.00
    7   15    7      1.73      0.00
    9   15    7      2.37      0.00
   11   15    7     -0.41      0.00
   13   15    7      3.01      0.00
   15   15    7      3.28      0.00
    2   16    7      5.08      0.00
    4   16    7     -6.95      0.00
    6   16    7      2.25      0.00
    8   16    7      3.08      0.00
   10   16    7     -8.62      0.00
   12   16    7     -3.56      0.00
   14   16    7    -14.44      0.00
    1   17    7     -5.32      0.00
    3   17    7      4.90      0.00
    5   17    7     -5.50      0.00
    7   17    7     -6.02      0.00
    9   17    7      4.23      0.00
   11   17    7     -3.47      0.00
   13   17    7      1.16      0.00
   15   17    7      2.52      0.00
    2   18    7     -7.24      0.00
    4   18    7      8.19      0.00
    6   18    7      0.65      0.00
    8   18    7    -10.59      0.00
   10   18    7      8.56      0.00
   12   18    7     -4.95      0.00
   14   18    7      8.58      0.00
    1   19    7      1.88      0.00
    3   19    7     -7.67      0.00
    5   19    7      2.67      0.00
    7   19    7     -5.18      0.00
    9   19    7      9.50      0.00
   11   19    7     -4.15      0.00
   13   19    7      9.66      0.00
    2   20    7      8.44      0.00
    4   20    7      3.32      0.00
    6   20    7      5.07      0.00
    8   20    7     -8.58      0.00
   10   20    7     -7.29      0.00
   12   20    7     -0.91      0.00
    1   21    7     -1.28      0.00
    3   21    7     -8.98      0.00
    5   21    7      2.21      0.00
    7   21    7     -6.93      0.00
    9   21    7     -5.02      0.00
   11   21    7     -9.72      0.00
    2   22    7     -5.06      0.00
    4   22    7      3.47      0.00
    6   22    7      6.34      0.00
    8   22    7      7.40      0.00
   10   22    7     17.84      0.00
    1   23    7      7.09      0.00
    3   23    7     -4.38      0.00
    5   23    7     11.24      0.00
    7   23    7      6.69      0.00
    9   23    7    -12.24      0.00
    2   24    7     -0.49      0.00
    4   24    7      7.02      0.00
    6   24    7     -5.56      0.00
    8   24    7     -6.86      0.00
    1   25    7     -1.33      0.00
    3   25    7      1.60      0.00
    5   25    7     -1.60      0.00
    7   25    7     -0.11      0.00
    2   26    7     -5.21      0.00
    4   26    7     -8.53      0.00
    1   27    7      1.05      0.00
    0    0    8    -47.83      0.00
    2    0    8     25.63      0.00
    4    0    8     -6.22      0.00
    6    0    8     33.84      0.00
    8    0    8      8.35      0.00
   10    0    8    -12.94      0.00
   12    0    8      5.29      0.00
   14    0    8     -1.85      0.00
   16    0    8     -6.09      0.00
   18    0    8    -12.84      0.00
    1    1    8      5.52      0.00
    3    1    8     -8.41      0.00
    5    1    8     10.60      0.00
    7    1    8      6.76      0.00
    9    1    8     -1.26      0.00
   11    1    8      4.49      0.00
   13    1    8      0.86      0.00
   15    1    8      1.66      0.00
   17    1    8     -0.65      0.00
   19    1    8      1.63      0.00
    0    2    8     19.30      0.00
    2    2    8      1.30      0.00
    4    2    8    -21.54      0.00
    6    2    8      7.33      0.00
    8    2    8    -11.79      0.00
   10    2    8     11.33      0.00
   12    2    8      0.33      0.00
   14    2    8     -2.07      0.00
   16    2    8      5.91      0.00
   18    2    8     -0.39      0.00
    1    3    8      3.68      0.00
    3    3    8    -16.79      0.00
    5    3    8     18.72      0.00
    7    3    8    -16.64      0.00
    9    3    8      1.51      0.00
   11    3    8     -3.40      0.00
   13    3    8     -2.88      0.00
   15    3    8      1.13      0.00
   17    3    8     -1.02      0.00
   19    3    8     -2.58      0.00
    0    4    8    -16.75      0.00
    2    4    8    -10.87      0.00
    4    4    8     16.32      0.00
    6    4    8     -6.71      0.00
    8    4    8     -1.56      0.00
   10    4    8     -3.99      0.00
   12    4    8      3.53      0.00
   14    4    8     -3.34      0.00
   16    4    8      1.76      0.00
   18    4    8     -9.39      0.00
    1    5    8     24.87      0.00
    3    5    8     -5.11      0.00
    5    5    8     -5.85      0.00
    7    5    8     -8.46      0.00
    9    5    8      2.11      0.00
   11    5    8     -4.89      0.00
   13    5    8      3.50      0.00
   15    5    8      1.79      0.00
   17    5    8     -7.19      0.00
   19    5    8      7.79      0.00
    0    6    8     20.41      0.00
    2    6    8     -2.57      0.00
    4    6    8      3.11      0.00
    6    6    8     -8.50      0.00
    8    6    8      3.01      0.00
   10    6    8      4.05      0.00
   12    6    8      0.21      0.00
   14    6    8      1.93      0.00
   16    6    8     -2.60      0.00
   18    6    8     -2.99      0.00
    1    7    8     -2.77      0.00
    3    7    8     -2.30      0.00
    5    7    8     -0.55      0.00
    7    7    8      5.76      0.00
    9    7    8     -2.12      0.00
   11    7    8      0.78      0.00
   13    7    8     -3.17      0.00
   15    7    8      1.50      0.00
   17    7    8      5.52      0.00
    0    8    8      2.14      0.00
    2    8    8     -1.93      0.00
    4    8    8      3.59      0.00
    6    8    8      1.76      0.00
    8    8    8     -2.29      0.00
   10    8    8     -2.58      0.00
   12    8    8      2.35      0.00
   14    8    8     -2.86      0.00
   16    8    8     -1.72      0.00
   18    8    8      5.60      0.00
    1    9    8     -2.31      0.00
    3    9    8      5.22      0.00
    5    9    8     11.21      0.00
    7    9    8     -1.00      0.00
    9    9    8     -2.46      0.00
   11    9    8     -1.45      0.00
   13    9    8      1.25      0.00
   15    9    8     -2.23      0.00
   17    9    8     -8.62      0.00
    0   10    8    -14.12      0.00
    2   10    8      5.03      0.00
    4   10    8     -2.91      0.00
    6   10    8     -0.77      0.00
    8   10    8      3.55      0.00
   10   10    8      2.36      0.00
   12   10    8      1.65      0.00
   14   10    8     -5.56      0.00
   16   10    8      6.38      0.00
   18   10    8     -2.64      0.00
    1   11    8      7.96      0.00
    3   11    8     -6.44      0.00
    5   11    8     -6.74      0.00
    7   11    8      2.02      0.00
    9   11    8     -2.16      0.00
   11   11    8      1.81      0.00
   13   11    8     -3.19      0.00
   15   11    8     -3.37      0.00
   17   11    8     -4.64      0.00
    0   12    8      5.67      0.00
    2   12    8      1.87      0.00
    4   12    8      2.14      0.00
    6   12    8      0.30      0.00
    8   12    8      0.01      0.00
   10   12    8     -2.27      0.00
   12   12    8      5.07      0.00
   14   12    8     -0.35      0.00
   16   12    8      2.72      0.00
    1   13    8     -4.31      0.00
    3   13    8     -2.05      0.00
    5   13    8      4.57      0.00
    7   13    8      1.75      0.00
    9   13    8     -2.84      0.00
   11   13    8     -4.17      0.00
   13   13    8      3.14      0.00
   15   13    8      2.26      0.00
   17   13    8      3.47      0.00
    0   14    8     -4.58      0.00
    2   14    8     -3.12      0.00
    4   14    8      3.51      0.00
    6   14    8     -3.70      0.00
    8   14    8      3.31      0.00
   10   14    8     -1.71      0.00
   12   14    8      2.75      0.00
   14   14    8      1.80      0.00
   16   14    8      4.06      0.00
    1   15    8      1.36      0.00
    3   15    8      1.25      0.00
    5   15    8     -1.82      0.00
    7   15    8      5.38      0.00
    9   15    8      1.32      0.00
   11   15    8     -5.93      0.00
   13   15    8     -6.22      0.00
   15   15    8     -2.85      0.00
    0   16    8     -0.81      0.00
    2   16    8      1.67      0.00
    4   16    8     -2.60      0.00
    6   16    8     -2.97      0.00
    8   16    8     -0.35      0.00
   10   16    8     -4.77      0.00
   12   16    8      3.00      0.00
   14   16    8     -0.02      0.00
    1   17    8     -4.53      0.00
    3   17    8      3.91      0.00
    5   17    8     -0.20      0.00
    7   17    8      0.53      0.00
    9   17    8     -5.16      0.00
   11   17    8      1.98      0.00
   13   17    8      3.16      0.00
   15   17    8     -1.76      0.00
    0   18    8      0.77      0.00
    2   18    8     -3.84      0.00
    4   18    8     -3.43      0.00
    6   18    8      0.76      0.00
    8   18    8     -4.18      0.00
   10   18    8      3.02      0.00
   12   18    8     -3.28      0.00
   14   18    8      1.63      0.00
    1   19    8      5.54      0.00
    3   19    8      3.26      0.00
    5   19    8     -0.57      0.00
    7   19    8      4.33      0.00
    9   19    8      6.34      0.00
   11   19    8      4.85      0.00
   13   19    8     -4.49      0.00
    0   20    8     -0.01      0.00
    2   20    8      0.14      0.00
    4   20    8      4.50      0.00
    6   20    8     -0.11      0.00
    8   20    8      0.61      0.00
   10   20    8     -4.23      0.00
   12   20    8     -2.39      0.00
    1   21    8     -4.38      0.00
    3   21    8     -4.29      0.00
    5   21    8      2.24      0.00
    7   21    8      4.34      0.00
    9   21    8      2.65      0.00
   11   21    8      5.12      0.00
    0   22    8     -0.40      0.00
    2   22    8      6.08      0.00
    4   22    8      4.76      0.00
    6   22    8      3.58      0.00
    8   22    8     -3.09      0.00
   10   22    8      0.75      0.00
    1   23    8      1.12      0.00
    3   23    8     -4.53      0.00
    5   23    8     -1.06      0.00
    7   23    8    -10.06      0.00
    9   23    8      4.11      0.00
    0   24    8     -4.81      0.00
    2   24    8      5.38      0.00
    4   24    8     -1.42      0.00
    6   24    8     -0.81      0.00
    8   24    8      1.55      0.00
    1   25    8     -5.92      0.00
    3   25    8     -1.28      0.00
    5   25    8     -5.82      0.00
    7   25    8      6.77      0.00
    0   26    8     -0.42      0.00
    2   26    8     -3.17      0.00
    4   26    8      0.43      0.00
    1    1    9     15.94      0.00
    3    1    9     -4.78      0.00
    5    1    9    -20.08      0.00
    7    1    9     -2.37      0.00
    9    1    9     -5.00      0.00
   11    1    9      7.34      0.00
   13    1    9      3.77      0.00
   15    1    9      4.04      0.00
   17    1    9      1.46      0.00
   19    1    9      2.75      0.00
    2    2    9     -4.75      0.00
    4    2    9      2.14      0.00
    6    2    9     -6.61      0.00
    8    2    9     -9.78      0.00
   10    2    9     -1.45      0.00
   12    2    9     -4.16      0.00
   14    2    9      2.39      0.00
   16    2    9     -1.41      0.00
   18    2    9     -5.95      0.00
    1    3    9     -6.69      0.00
    3    3    9      5.72      0.00
    5    3    9     13.66      0.00
    7    3    9    -22.63      0.00
    9    3    9      5.08      0.00
   11    3    9     -4.24      0.00
   13    3    9      0.58      0.00
   15    3    9     -3.96      0.00
   17    3    9     -3.07      0.00
   19    3    9     -1.18      0.00
    2    4    9      4.58      0.00
    4    4    9      9.85      0.00
    6    4    9    -15.68      0.00
    8    4    9      6.77      0.00
   10    4    9     -1.49      0.00
   12    4    9      2.92      0.00
   14    4    9     -3.46      0.00
   16    4    9      1.18      0.00
   18    4    9      6.54      0.00
    1    5    9     14.67      0.00
    3    5    9     -4.92      0.00
    5    5    9     -5.46      0.00
    7    5    9      8.30      0.00
    9    5    9      3.99      0.00
   11    5    9      0.22      0.00
   13    5    9     -0.77      0.00
   15    5    9      0.44      0.00
   17    5    9      0.27      0.00
    2    6    9     -9.40      0.00
    4    6    9      8.06      0.00
    6    6    9      2.34      0.00
    8    6    9      4.30      0.00
   10    6    9     -7.94      0.00
   12    6    9      9.26      0.00
   14    6    9     -8.70      0.00
   16    6    9      3.68      0.00
   18    6    9     -1.17      0.00
    1    7    9     -7.15      0.00
    3    7    9      6.65      0.00
    5    7    9     -4.94      0.00
    7    7    9      4.78      0.00
    9    7    9     -4.29      0.00
   11    7    9     -3.17      0.00
   13    7    9     -1.54      0.00
   15    7    9      0.87      0.00
   17    7    9      8.09      0.00
    2    8    9     -0.09      0.00
    4    8    9      6.33      0.00
    6    8    9     -0.37      0.00
    8    8    9     -2.41      0.00
   10    8    9      1.43      0.00
   12    8    9      2.56      0.00
   14    8    9      0.43      0.00
   16    8    9     -8.47      0.00
   18    8    9     -9.07      0.00
    1    9    9     -1.07      0.00
    3    9    9     -2.85      0.00
    5    9    9     -4.56      0.00
    7    9    9      3.40      0.00
    9    9    9     -0.65      0.00
   11    9    9     -3.00      0.00
   13    9    9     10.28      0.00
   15    9    9     -4.94      0.00
   17    9    9      1.05      0.00
    2   10    9      6.15      0.00
    4   10    9    -10.10      0.00
    6   10    9     -1.22      0.00
    8   10    9     -1.13      0.00
   10   10    9     -2.11      0.00
   12   10    9      2.30      0.00
   14   10    9     -1.72      0.00
   16   10    9      2.08      0.00
    1   11    9      5.36      0.00
    3   11    9      0.84      0.00
    5   11    9     -0.95      0.00
    7   11    9     -0.57      0.00
    9   11    9     -4.27      0.00
   11   11    9      2.38      0.00
   13   11    9      2.04      0.00
   15   11    9      2.53      0.00
   17   11    9      3.78      0.00
    2   12    9     -4.26      0.00
    4   12    9      5.87      0.00
    6   12    9      4.90      0.00
    8   12    9     -0.07      0.00
   10   12    9     -3.01      0.00
   12   12    9     -1.57      0.00
   14   12    9      9.86      0.00
   16   12    9     -3.07      0.00
    1   13    9     -1.57      0.00
    3   13    9      0.28      0.00
    5   13    9     -1.74      0.00
    7   13    9     -0.07      0.00
    9   13    9     -8.69      0.00
   11   13    9      5.51      0.00
   13   13    9     -6.48      0.00
   15   13    9      3.38      0.00
    2   14    9      3.90      0.00
    4   14    9      2.21      0.00
    6   14    9     -4.01      0.00
    8   14    9      0.43      0.00
   10   14    9      1.86      0.00
   12   14    9     -0.86      0.00
   14   14    9      0.25      0.00
   16   14    9      2.47      0.00
    1   15    9      1.06      0.00
    3   15    9     -4.59      0.00
    5   15    9     -0.34      0.00
    7   15    9     -2.73      0.00
    9   15    9      1.58      0.00
   11   15    9     -5.83      0.00
   13   15    9      3.18      0.00
   15   15    9     -2.28      0.00
    2   16    9      5.15      0.00
    4   16    9     -7.79      0.00
    6   16    9      0.66      0.00
    8   16    9      2.95      0.00
   10   16    9     -4.65      0.00
   12   16    9      3.41      0.00
   14   16    9      1.89      0.00
    1   17    9     -0.48      0.00
    3   17    9      1.96      0.00
    5   17    9      2.54      0.00
    7   17    9     -6.09      0.00
    9   17    9      2.84      0.00
   11   17    9     -1.45      0.00
   13   17    9     -3.44      0.00
    2   18    9     -0.80      0.00
    4   18    9      4.97      0.00
    6   18    9     -4.76      0.00
    8   18    9      7.16      0.00
   10   18    9      7.26      0.00
   12   18    9      5.20      0.00
   14   18    9      3.40      0.00
    1   19    9      1.28      0.00
    3   19    9      5.72      0.00
    5   19    9      0.80      0.00
    7   19    9     -2.61      0.00
    9   19    9      3.11      0.00
   11   19    9      0.49      0.00
   13   19    9      5.07      0.00
    2   20    9     -7.63      0.00
    4   20    9      1.58      0.00
    6   20    9     -3.85      0.00
    8   20    9     -3.09      0.00
   10   20    9    -11.40      0.00
   12   20    9      6.79      0.00
    1   21    9      2.67      0.00
    3   21    9      1.96      0.00
    5   21    9      6.17      0.00
    7   21    9    -10.36      0.00
    9   21    9      6.19      0.00
   11   21    9     -1.02      0.00
    2   22    9     -5.49      0.00
    4   22    9      1.60      0.00
    6   22    9     -4.72      0.00
    8   22    9     -3.99      0.00
   10   22    9     11.47      0.00
    1   23    9     -0.59      0.00
    3   23    9     -5.48      0.00
    5   23    9      2.09      0.00
    7   23    9      3.43      0.00
    9   23    9      0.42      0.00
    2   24    9     -5.18      0.00
    4   24    9      9.59      0.00
    6   24    9     -5.35      0.00
    8   24    9     -5.07      0.00
    1   25    9     -3.44      0.00
    3   25    9     -1.67      0.00
    5   25    9     -3.99      0.00
    2   26    9      7.96      0.00
    4   26    9     -7.12      0.00
    0    0   10     -4.23      0.00
    2    0   10     25.86      0.00
    4    0   10    -18.98      0.00
    6    0   10     -8.51      0.00
    8    0   10      0.39      0.00
   10    0   10    -10.76      0.00
   12    0   10      8.58      0.00
   14    0   10      4.91      0.00
   16    0   10     -5.41      0.00
   18    0   10      0.05      0.00
    1    1   10      2.69      0.00
    3    1   10     -8.68      0.00
    5    1   10      9.73      0.00
    7    1   10     -8.12      0.00
    9    1   10    -10.94      0.00
   11    1   10      2.66      0.00
   13    1   10     -3.04      0.00
   15    1   10      5.02      0.00
   17    1   10     -8.24      0.00
   19    1   10      2.47      0.00
    0    2   10     -3.46      0.00
    2    2   10     -5.63      0.00
    4    2   10     18.14      0.00
    6    2   10     -2.74      0.00
    8    2   10    -11.73      0.00
   10    2   10      0.86      0.00
   12    2   10     -3.85      0.00
   14    2   10     -2.50      0.00
   16    2   10      2.02      0.00
   18    2   10      1.99      0.00
    1    3   10     11.67      0.00
    3    3   10     -3.16      0.00
    5    3   10     13.02      0.00
    7    3   10     -6.99      0.00
    9    3   10      8.32      0.00
   11    3   10      3.02      0.00
   13    3   10      0.50      0.00
   15    3   10     -3.78      0.00
   17    3   10      6.20      0.00
    0    4   10     26.27      0.00
    2    4   10    -16.88      0.00
    4    4   10      2.41      0.00
    6    4   10      0.88      0.00
    8    4   10     16.05      0.00
   10    4   10     -5.24      0.00
   12    4   10      3.47      0.00
   14    4   10     -2.13      0.00
   16    4   10     -3.36      0.00
   18    4   10      2.66      0.00
    1    5   10     -1.97      0.00
    3    5   10     -2.81      0.00
    5    5   10     -2.38      0.00
    7    5   10      6.06      0.00
    9    5   10      2.04      0.00
   11    5   10     -0.66      0.00
   13    5   10     -0.65      0.00
   15    5   10     -2.23      0.00
   17    5   10     -9.98      0.00
    0    6   10     -3.15      0.00
    2    6   10     -9.09      0.00
    4    6   10      7.47      0.00
    6    6   10     -5.99      0.00
    8    6   10     -3.01      0.00
   10    6   10     -1.93      0.00
   12    6   10     -1.92      0.00
   14    6   10      4.07      0.00
   16    6   10      5.00      0.00
   18    6   10      8.50      0.00
    1    7   10     -0.13      0.00
    3    7   10      4.10      0.00
    5    7   10     -5.06      0.00
    7    7   10     -3.03      0.00
    9    7   10      3.38      0.00
   11    7   10      1.97      0.00
   13    7   10     -5.32      0.00
   15    7   10      2.42      0.00
   17    7   10     -4.16      0.00
    0    8   10     10.02      0.00
    2    8   10     -7.16      0.00
    4    8   10     -1.45      0.00
    6    8   10     -1.81      0.00
    8    8   10     -4.68      0.00
   10    8   10      1.90      0.00
   12    8   10      6.67      0.00
   14    8   10     -4.04      0.00
   16    8   10     -6.59      0.00
   18    8   10      3.71      0.00
    1    9   10     -1.49      0.00
    3    9   10     -3.42      0.00
    5    9   10      0.34      0.00
    7    9   10      0.61      0.00
    9    9   10     -0.33      0.00
   11    9   10      1.15      0.00
   13    9   10     -4.24      0.00
   15    9   10      7.13      0.00
   17    9   10      6.30      0.00
    0   10   10      0.53      0.00
    2   10   10      3.93      0.00
    4   10   10      3.06      0.00
    6   10   10      2.74      0.00
    8   10   10     -1.93      0.00
   10   10   10     -2.59      0.00
   12   10   10      2.05      0.00
   14   10   10      0.04      0.00
   16   10   10      5.57      0.00
    1   11   10      5.20      0.00
    3   11   10      2.69      0.00
    5   11   10      1.10      0.00
    7   11   10      2.84      0.00
    9   11   10     -3.41      0.00
   11   11   10     -0.97      0.00
   13   11   10      1.52      0.00
   15   11   10      1.48      0.00
   17   11   10     -1.48      0.00
    0   12   10      0.38      0.00
    2   12   10     -4.82      0.00
    4   12   10      0.56      0.00
    6   12   10     -0.83      0.00
    8   12   10     -3.19      0.00
   10   12   10     -3.81      0.00
   12   12   10      0.08      0.00
   14   12   10     -4.01      0.00
   16   12   10     -5.85      0.00
    1   13   10      2.64      0.00
    3   13   10     -0.27      0.00
    5   13   10     -4.32      0.00
    7   13   10     -1.35      0.00
    9   13   10      0.76      0.00
   11   13   10      2.25      0.00
   13   13   10      2.41      0.00
   15   13   10      1.30      0.00
    0   14   10     -4.97      0.00
    2   14   10      2.09      0.00
    4   14   10     -1.52      0.00
    6   14   10      3.14      0.00
    8   14   10      6.32      0.00
   10   14   10     -3.08      0.00
   12   14   10     -2.29      0.00
   14   14   10      4.26      0.00
   16   14   10     -4.09      0.00
    1   15   10     -0.15      0.00
    3   15   10     -1.04      0.00
    5   15   10     -4.97      0.00
    7   15   10      2.47      0.00
    9   15   10     -0.98      0.00
   11   15   10     -2.21      0.00
   13   15   10     -3.17      0.00
   15   15   10      0.84      0.00
    0   16   10     -0.53      0.00
    2   16   10      2.06      0.00
    4   16   10      0.58      0.00
    6   16   10     -0.37      0.00
    8   16   10      0.34      0.00
   10   16   10     -4.11      0.00
   12   16   10      3.71      0.00
   14   16   10      5.17      0.00
    1   17   10     -1.69      0.00
    3   17   10     -1.52      0.00
    5   17   10      4.12      0.00
    7   17   10     -2.55      0.00
    9   17   10      1.83      0.00
   11   17   10      7.86      0.00
   13   17   10      2.72      0.00
    0   18   10      0.69      0.00
    2   18   10      4.40      0.00
    4   18   10      3.29      0.00
    6   18   10     -0.84      0.00
    8   18   10     -2.65      0.00
   10   18   10     11.15      0.00
   12   18   10     -4.85      0.00
    1   19   10      0.37      0.00
    3   19   10      0.30      0.00
    5   19   10     -2.33      0.00
    7   19   10     -4.55      0.00
    9   19   10     -1.44      0.00
   11   19   10    -10.88      0.00
   13   19   10     -2.25      0.00
    0   20   10      0.22      0.00
    2   20   10     -1.31      0.00
    4   20   10      0.05      0.00
    6   20   10     -1.81      0.00
    8   20   10     -1.04      0.00
   10   20   10      6.20      0.00
   12   20   10    -10.59      0.00
    1   21   10      0.85      0.00
    3   21   10      1.77      0.00
    5   21   10      3.23      0.00
    7   21   10     -4.61      0.00
    9   21   10      7.34      0.00
   11   21   10      3.00      0.00
    0   22   10     -8.60      0.00
    2   22   10     -0.71      0.00
    4   22   10     -2.18      0.00
    6   22   10      6.72      0.00
    8   22   10      2.34      0.00
   10   22   10     -5.43      0.00
    1   23   10      3.16      0.00
    3   23   10      0.10      0.00
    5   23   10      3.68      0.00
    7   23   10     -6.62      0.00
    9   23   10     -1.79      0.00
    0   24   10     -4.70      0.00
    2   24   10      1.90      0.00
    4   24   10     -3.37      0.00
    6   24   10     -2.33      0.00
    1   25   10      8.97      0.00
    3   25   10     -2.46      0.00
    5   25   10     -1.72      0.00
    0   26   10     -0.65      0.00
    2   26   10      1.22      0.00
    1    1   11     -3.75      0.00
    3    1   11     -1.64      0.00
    5    1   11      8.88      0.00
    7    1   11      2.78      0.00
    9    1   11      2.15      0.00
   11    1   11      1.44      0.00
   13    1   11     -2.97      0.00
   15    1   11      0.28      0.00
   17    1   11      1.42      0.00
    2    2   11      1.68      0.00
    4    2   11      2.91      0.00
    6    2   11     -3.81      0.00
    8    2   11     10.98      0.00
   10    2   11      8.08      0.00
   12    2   11     -0.03      0.00
   14    2   11     -4.43      0.00
   16    2   11      4.03      0.00
   18    2   11     -0.40      0.00
    1    3   11     -0.97      0.00
    3    3   11     -8.01      0.00
    5    3   11     -2.82      0.00
    7    3   11      8.25      0.00
    9    3   11      4.95      0.00
   11    3   11      2.83      0.00
   13    3   11      1.68      0.00
   15    3   11     -3.83      0.00
   17    3   11      3.56      0.00
    2    4   11     -4.75      0.00
    4    4   11     -4.64      0.00
    6    4   11     -8.89      0.00
    8    4   11      8.88      0.00
   10    4   11      1.60      0.00
   12    4   11     -4.05      0.00
   14    4   11     -5.70      0.00
   16    4   11     -4.16      0.00
   18    4   11     -6.66      0.00
    1    5   11     -4.24      0.00
    3    5   11     10.14      0.00
    5    5   11    -13.24      0.00
    7    5   11      0.68      0.00
    9    5   11     -3.77      0.00
   11    5   11      7.53      0.00
   13    5   11     -4.70      0.00
   15    5   11      4.01      0.00
   17    5   11      7.66      0.00
    2    6   11      3.99      0.00
    4    6   11     -4.02      0.00
    6    6   11      2.09      0.00
    8    6   11     -4.36      0.00
   10    6   11     -5.41      0.00
   12    6   11      2.74      0.00
   14    6   11     -1.86      0.00
   16    6   11     11.23      0.00
   18    6   11      2.38      0.00
    1    7   11      3.50      0.00
    3    7   11     -1.31      0.00
    5    7   11     -1.65      0.00
    7    7   11     -1.65      0.00
    9    7   11     -1.37      0.00
   11    7   11      6.33      0.00
   13    7   11     -7.54      0.00
   15    7   11     -1.14      0.00
   17    7   11     -3.38      0.00
    2    8   11     -3.28      0.00
    4    8   11     -1.34      0.00
    6    8   11      6.93      0.00
    8    8   11     -2.30      0.00
   10    8   11      0.39      0.00
   12    8   11      1.84      0.00
   14    8   11      1.62      0.00
   16    8   11      4.69      0.00
    1    9   11     -1.93      0.00
    3    9   11      7.06      0.00
    5    9   11      0.56      0.00
    7    9   11      5.20      0.00
    9    9   11     -0.05      0.00
   11    9   11      0.60      0.00
   13    9   11      3.90      0.00
   15    9   11     -0.67      0.00
   17    9   11     -3.15      0.00
    2   10   11     10.36      0.00
    4   10   11     -3.23      0.00
    6   10   11     -0.51      0.00
    8   10   11     -1.89      0.00
   10   10   11     -6.92      0.00
   12   10   11      9.90      0.00
   14   10   11      0.10      0.00
   16   10   11     -3.97      0.00
    1   11   11      1.21      0.00
    3   11   11     -2.09      0.00
    5   11   11     -5.31      0.00
    7   11   11      2.77      0.00
    9   11   11     -2.94      0.00
   11   11   11     -1.10      0.00
   13   11   11      0.40      0.00
   15   11   11    -10.44      0.00
   17   11   11     -2.92      0.00
    2   12   11    -10.28      0.00
    4   12   11     -4.53      0.00
    6   12   11     -1.15      0.00
    8   12   11     -1.61      0.00
   10   12   11      7.63      0.00
   12   12   11     -2.61      0.00
   14   12   11      2.04      0.00
   16   12   11     -0.75      0.00
    1   13   11     -2.34      0.00
    3   13   11      0.56      0.00
    5   13   11      0.33      0.00
    7   13   11      2.75      0.00
    9   13   11      3.69      0.00
   11   13   11      2.79      0.00
   13   13   11      2.01      0.00
   15   13   11      1.72      0.00
    2   14   11      0.55      0.00
    4   14   11      0.57      0.00
    6   14   11     -2.37      0.00
    8   14   11     -1.30      0.00
   10   14   11      3.72      0.00
   12   14   11     -1.97      0.00
   14   14   11     -0.02      0.00
    1   15   11      6.24      0.00
    3   15   11     -2.04      0.00
    5   15   11      0.65      0.00
    7   15   11     -3.63      0.00
    9   15   11     -2.23      0.00
   11   15   11      4.35      0.00
   13   15   11      4.45      0.00
   15   15   11     -1.15      0.00
    2   16   11     -0.32      0.00
    4   16   11      1.46      0.00
    6   16   11      2.13      0.00
    8   16   11      4.17      0.00
   10   16   11     -1.14      0.00
   12   16   11      0.57      0.00
   14   16   11      2.70      0.00
    1   17   11     -0.41      0.00
    3   17   11     -0.28      0.00
    5   17   11      1.36      0.00
    7   17   11     -5.40      0.00
    9   17   11      7.02      0.00
   11   17   11      3.98      0.00
   13   17   11     -9.95      0.00
    2   18   11      6.73      0.00
    4   18   11      0.25      0.00
    6   18   11    -10.02      0.00
    8   18   11     10.42      0.00
   10   18   11     -4.34      0.00
   12   18   11     -2.28      0.00
    1   19   11      0.91      0.00
    3   19   11     -1.07      0.00
    5   19   11     -3.37      0.00
    7   19   11      5.61      0.00
    9   19   11     -0.94      0.00
   11   19   11      1.28      0.00
    2   20   11     -0.93      0.00
    4   20   11      6.12      0.00
    6   20   11     -3.06      0.00
    8   20   11      2.90      0.00
   10   20   11      2.89      0.00
   12   20   11      4.35      0.00
    1   21   11     -9.22      0.00
    3   21   11      4.34      0.00
    5   21   11     -1.01      0.00
    7   21   11      1.50      0.00
    9   21   11     -3.79      0.00
   11   21   11     -0.55      0.00
    2   22   11     -1.62      0.00
    4   22   11     -1.13      0.00
    6   22   11     -2.33      0.00
    8   22   11     -2.98      0.00
   10   22   11      4.45      0.00
    1   23   11      2.48      0.00
    3   23   11     -3.83      0.00
    5   23   11      4.45      0.00
    7   23   11     -4.33      0.00
    2   24   11      1.03      0.00
    4   24   11      3.12      0.00
    6   24   11      4.92      0.00
    1   25   11     -1.91      0.00
    3   25   11      2.56      0.00
    5   25   11      0.19      0.00
    0    0   12    -13.67      0.00
    2    0   12      3.85      0.00
    4    0   12     -3.73      0.00
    6    0   12      5.99      0.00
    8    0   12      8.84      0.00
   10    0   12      3.07      0.00
   12    0   12      4.33      0.00
   14    0   12      4.27      0.00
   16    0   12     -5.57      0.00
   18    0   12      2.71      0.00
    1    1   12      2.82      0.00
    3    1   12      0.19      0.00
    5    1   12     -2.07      0.00
    7    1   12      3.99      0.00
    9    1   12      0.12      0.00
   11    1   12      7.52      0.00
   13    1   12     -2.91      0.00
   15    1   12     -0.01      0.00
   17    1   12     -0.43      0.00
    0    2   12     -4.13      0.00
    2    2   12     -6.13      0.00
    4    2   12     11.48      0.00
    6    2   12     -7.95      0.00
    8    2   12     -1.13      0.00
   10    2   12      4.14      0.00
   12    2   12     -3.22      0.00
   14    2   12      0.67      0.00
   16    2   12      0.62      0.00
   18    2   12      2.71      0.00
    1    3   12      0.93      0.00
    3    3   12     -7.38      0.00
    5    3   12     -1.80      0.00
    7    3   12     -6.24      0.00
    9    3   12     -3.53      0.00
   11    3   12     -1.20      0.00
   13    3   12     -1.38      0.00
   15    3   12     -4.72      0.00
   17    3   12      2.68      0.00
    0    4   12     13.37      0.00
    2    4   12     -2.75      0.00
    4    4   12     -0.31      0.00
    6    4   12     -8.11      0.00
    8    4   12      0.50      0.00
   10    4   12      0.44      0.00
   12    4   12      2.92      0.00
   14    4   12     -3.49      0.00
   16    4   12      1.88      0.00
   18    4   12      1.72      0.00
    1    5   12     -7.07      0.00
    3    5   12     13.66      0.00
    5    5   12      0.01      0.00
    7    5   12      2.76      0.00
    9    5   12     -7.79      0.00
   11    5   12     -1.32      0.00
   13    5   12      3.89      0.00
   15    5   12      8.46      0.00
   17    5   12      9.69      0.00
    0    6   12      2.34      0.00
    2    6   12     -1.54      0.00
    4    6   12      3.77      0.00
    6    6   12      2.16      0.00
    8    6   12      3.10      0.00
   10    6   12     -4.29      0.00
   12    6   12     -5.64      0.00
   14    6   12      0.68      0.00
   16    6   12     -6.90      0.00
   18    6   12     -3.76      0.00
    1    7   12    -10.24      0.00
    3    7   12      2.87      0.00
    5    7   12      1.30      0.00
    7    7   12     -0.30      0.00
    9    7   12      5.92      0.00
   11    7   12      4.01      0.00
   13    7   12     -1.86      0.00
   15    7   12      1.92      0.00
   17    7   12      0.61      0.00
    0    8   12     -1.12      0.00
    2    8   12     -1.11      0.00
    4    8   12      2.76      0.00
    6    8   12     -0.78      0.00
    8    8   12     -0.18      0.00
   10    8   12      3.41      0.00
   12    8   12      5.60      0.00
   14    8   12      0.53      0.00
   16    8   12     -3.23      0.00
    1    9   12      0.88      0.00
    3    9   12      3.87      0.00
    5    9   12     -4.56      0.00
    7    9   12     -3.55      0.00
    9    9   12     -3.00      0.00
   11    9   12      3.51      0.00
   13    9   12      1.90      0.00
   15    9   12     -2.77      0.00
   17    9   12     -0.27      0.00
    0   10   12      6.32      0.00
    2   10   12     -4.92      0.00
    4   10   12     -5.72      0.00
    6   10   12      1.44      0.00
    8   10   12      0.86      0.00
   10   10   12     -6.49      0.00
   12   10   12     -3.35      0.00
   14   10   12     -1.15      0.00
   16   10   12     -1.88      0.00
    1   11   12     -9.12      0.00
    3   11   12     -7.15      0.00
    5   11   12      1.68      0.00
    7   11   12     -3.31      0.00
    9   11   12      8.79      0.00
   11   11   12      2.08      0.00
   13   11   12     -5.55      0.00
   15   11   12     -3.20      0.00
    0   12   12     -1.12      0.00
    2   12   12      2.84      0.00
    4   12   12      0.26      0.00
    6   12   12     -1.62      0.00
    8   12   12      0.84      0.00
   10   12   12      2.90      0.00
   12   12   12      4.80      0.00
   14   12   12      0.75      0.00
   16   12   12      3.86      0.00
    1   13   12      8.77      0.00
    3   13   12      7.35      0.00
    5   13   12     -1.21      0.00
    7   13   12      3.64      0.00
    9   13   12     -4.20      0.00
   11   13   12     -1.97      0.00
   13   13   12      7.00      0.00
   15   13   12     -3.68      0.00
    0   14   12      6.41      0.00
    2   14   12     -0.59      0.00
    4   14   12     -6.84      0.00
    6   14   12     -0.37      0.00
    8   14   12     -2.72      0.00
   10   14   12     -0.88      0.00
   12   14   12      3.21      0.00
   14   14   12      3.91      0.00
    1   15   12     -3.19      0.00
    3   15   12     -2.17      0.00
    5   15   12     11.95      0.00
    7   15   12      3.64      0.00
    9   15   12     -3.78      0.00
   11   15   12     -0.17      0.00
   13   15   12     -2.73      0.00
   15   15   12     -2.36      0.00
    0   16   12     -0.32      0.00
    2   16   12     -0.43      0.00
    4   16   12      5.79      0.00
    6   16   12     -0.66      0.00
    8   16   12      7.37      0.00
   10   16   12     -3.51      0.00
   12   16   12     -3.98      0.00
   14   16   12      0.13      0.00
    1   17   12      6.71      0.00
    3   17   12      2.65      0.00
    5   17   12     -8.68      0.00
    7   17   12     -0.04      0.00
    9   17   12      5.57      0.00
   11   17   12      1.19      0.00
   13   17   12      3.56      0.00
    0   18   12     -2.36      0.00
    2   18   12     -2.24      0.00
    4   18   12     -1.86      0.00
    6   18   12      0.67      0.00
    8   18   12      1.31      0.00
   10   18   12     -1.10      0.00
   12   18   12     -1.74      0.00
    1   19   12     -1.15      0.00
    3   19   12     -5.60      0.00
    5   19   12      2.27      0.00
    7   19   12     -5.44      0.00
    9   19   12      5.18      0.00
   11   19   12    -12.52      0.00
    0   20   12     -4.12      0.00
    2   20   12      0.46      0.00
    4   20   12      3.57      0.00
    6   20   12     -5.58      0.00
    8   20   12     -1.56      0.00
   10   20   12      2.94      0.00
    1   21   12     -0.08      0.00
    3   21   12      2.01      0.00
    5   21   12      0.37      0.00
    7   21   12     -4.10      0.00
    9   21   12      1.99      0.00
    0   22   12      1.27      0.00
    2   22   12      0.30      0.00
    4   22   12     -0.91      0.00
    6   22   12      0.50      0.00
    8   22   12      0.76      0.00
    1   23   12      3.42      0.00
    3   23   12     -2.55      0.00
    5   23   12      7.98      0.00
    7   23   12     -3.22      0.00
    0   24   12     -1.82      0.00
    2   24   12      2.93      0.00
    4   24   12     -0.69      0.00
    6   24   12     -3.88      0.00
    1   25   12      8.86      0.00
    3   25   12     -5.26      0.00
    1    1   13     -2.78      0.00
    3    1   13      0.13      0.00
    5    1   13      3.75      0.00
    7    1   13     -9.68      0.00
    9    1   13     -2.20      0.00
   11    1   13     -6.20      0.00
   13    1   13     -2.49      0.00
   15    1   13      6.69      0.00
   17    1   13      3.54      0.00
    2    2   13     -4.61      0.00
    4    2   13     -0.74      0.00
    6    2   13     -2.86      0.00
    8    2   13     -0.74      0.00
   10    2   13     -1.37      0.00
   12    2   13     -5.33      0.00
   14    2   13     -2.43      0.00
   16    2   13     10.21      0.00
   18    2   13     -8.97      0.00
    1    3   13     12.19      0.00
    3    3   13     -7.04      0.00
    5    3   13    -11.20      0.00
    7    3   13     14.21      0.00
    9    3   13     -4.35      0.00
   11    3   13     -0.10      0.00
   13    3   13     -2.54      0.00
   15    3   13     -7.95      0.00
   17    3   13     -1.88      0.00
    2    4   13      4.06      0.00
    4    4   13      5.26      0.00
    6    4   13      2.32      0.00
    8    4   13      3.13      0.00
   10    4   13      5.23      0.00
   12    4   13     -2.81      0.00
   14    4   13      0.59      0.00
   16    4   13     10.92      0.00
   18    4   13     -8.32      0.00
    1    5   13     -4.94      0.00
    3    5   13      3.88      0.00
    5    5   13     -0.01      0.00
    7    5   13      4.33      0.00
    9    5   13      0.21      0.00
   11    5   13     -9.16      0.00
   13    5   13      4.24      0.00
   15    5   13      1.13      0.00
   17    5   13     -0.59      0.00
    2    6   13     -3.11      0.00
    4    6   13    -11.25      0.00
    6    6   13      6.46      0.00
    8    6   13      4.33      0.00
   10    6   13      5.56      0.00
   12    6   13     -3.20      0.00
   14    6   13     -1.67      0.00
   16    6   13     -0.72      0.00
    1    7   13      2.17      0.00
    3    7   13     -9.09      0.00
    5    7   13      5.20      0.00
    7    7   13     -5.90      0.00
    9    7   13     -0.98      0.00
   11    7   13     11.73      0.00
   13    7   13     -4.51      0.00
   15    7   13      3.03      0.00
   17    7   13     -0.24      0.00
    2    8   13      4.98      0.00
    4    8   13     -7.41      0.00
    6    8   13     -1.45      0.00
    8    8   13     -5.44      0.00
   10    8   13      0.76      0.00
   12    8   13     -0.99      0.00
   14    8   13      3.39      0.00
   16    8   13     -8.37      0.00
    1    9   13      1.98      0.00
    3    9   13     -2.53      0.00
    5    9   13      1.25      0.00
    7    9   13      1.88      0.00
    9    9   13     -5.96      0.00
   11    9   13     -2.00      0.00
   13    9   13     -4.04      0.00
   15    9   13     -1.14      0.00
   17    9   13      4.30      0.00
    2   10   13     -3.50      0.00
    4   10   13     -0.98      0.00
    6   10   13      2.71      0.00
    8   10   13      4.66      0.00
   10   10   13     -1.85      0.00
   12   10   13     -2.04      0.00
   14   10   13     -7.60      0.00
   16   10   13     -3.67      0.00
    1   11   13     -0.52      0.00
    3   11   13      2.30      0.00
    5   11   13     -4.53      0.00
    7   11   13      2.04      0.00
    9   11   13      5.48      0.00
   11   11   13      3.12      0.00
   13   11   13      8.91      0.00
   15   11   13     -3.55      0.00
    2   12   13      8.93      0.00
    4   12   13      1.63      0.00
    6   12   13      5.38      0.00
    8   12   13      0.51      0.00
   10   12   13     -3.50      0.00
   12   12   13      3.66      0.00
   14   12   13      3.12      0.00
   16   12   13      4.33      0.00
    1   13   13      1.82      0.00
    3   13   13     -2.51      0.00
    5   13   13      5.67      0.00
    7   13   13     -1.36      0.00
    9   13   13      4.03      0.00
   11   13   13     -4.85      0.00
   13   13   13      3.52      0.00
   15   13   13     -1.69      0.00
    2   14   13     -7.75      0.00
    4   14   13      3.03      0.00
    6   14   13      6.01      0.00
    8   14   13     -5.39      0.00
   10   14   13      6.97      0.00
   12   14   13    -11.03      0.00
   14   14   13     -4.17      0.00
    1   15   13     -5.68      0.00
    3   15   13      4.05      0.00
    5   15   13      4.78      0.00
    7   15   13      6.81      0.00
    9   15   13     -2.39      0.00
   11   15   13      2.65      0.00
   13   15   13     -7.29      0.00
    2   16   13      3.01      0.00
    4   16   13     -5.36      0.00
    6   16   13    -20.54      0.00
    8   16   13     14.42      0.00
   10   16   13     -2.12      0.00
   12   16   13      3.89      0.00
   14   16   13      7.41      0.00
    1   17   13      2.73      0.00
    3   17   13     -2.73      0.00
    5   17   13     -1.56      0.00
    7   17   13      1.97      0.00
    9   17   13     -4.22      0.00
   11   17   13     -3.74      0.00
   13   17   13     -0.08      0.00
    2   18   13     -5.94      0.00
    4   18   13     -0.85      0.00
    6   18   13      1.62      0.00
    8   18   13      0.80      0.00
   10   18   13     -5.64      0.00
   12   18   13    -10.51      0.00
    1   19   13      3.22      0.00
    3   19   13     -4.24      0.00
    5   19   13     -3.12      0.00
    7   19   13     -6.49      0.00
    9   19   13      5.16      0.00
   11   19   13      2.49      0.00
    2   20   13      3.41      0.00
    4   20   13      7.07      0.00
    6   20   13     -5.09      0.00
    8   20   13     -1.33      0.00
   10   20   13      6.79      0.00
    1   21   13     -0.21      0.00
    3   21   13      2.94      0.00
    5   21   13      0.96      0.00
    7   21   13      5.14      0.00
    9   21   13     -5.33      0.00
    2   22   13     -1.13      0.00
    4   22   13      2.13      0.00
    6   22   13      1.68      0.00
    8   22   13     -1.14      0.00
    1   23   13      5.44      0.00
    3   23   13     -4.67      0.00
    5   23   13      5.11      0.00
    7   23   13     -8.41      0.00
    2   24   13      7.01      0.00
    4   24   13     -5.05      0.00
    1   25   13      5.16      0.00
    3   25   13     -0.31      0.00
    0    0   14      0.04      0.00
    2    0   14      1.46      0.00
    4    0   14     -1.01      0.00
    6    0   14      2.09      0.00
    8    0   14     -7.37      0.00
   10    0   14     -2.07      0.00
   12    0   14     -6.02      0.00
   14    0   14     -0.41      0.00
   16    0   14     -0.02      0.00
    1    1   14      1.60      0.00
    3    1   14      1.22      0.00
    5    1   14     -4.85      0.00
    7    1   14      3.30      0.00
    9    1   14      0.20      0.00
   11    1   14     -3.76      0.00
   13    1   14     -1.52      0.00
   15    1   14      3.65      0.00
   17    1   14      0.54      0.00
    0    2   14     10.79      0.00
    2    2   14     -0.91      0.00
    4    2   14     -6.77      0.00
    6    2   14     -1.30      0.00
    8    2   14      5.19      0.00
   10    2   14      1.34      0.00
   12    2   14     -1.51      0.00
   14    2   14     -0.31      0.00
   16    2   14     -3.13      0.00
    1    3   14      2.95      0.00
    3    3   14      2.89      0.00
    5    3   14      2.05      0.00
    7    3   14      0.86      0.00
    9    3   14      2.31      0.00
   11    3   14      4.79      0.00
   13    3   14     -0.09      0.00
   15    3   14     -4.42      0.00
   17    3   14      0.98      0.00
    0    4   14    -12.27      0.00
    2    4   14      4.76      0.00
    4    4   14      4.96      0.00
    6    4   14     -1.51      0.00
    8    4   14      0.78      0.00
   10    4   14     -0.33      0.00
   12    4   14      1.83      0.00
   14    4   14      5.28      0.00
   16    4   14      2.34      0.00
    1    5   14     -5.02      0.00
    3    5   14     -3.81      0.00
    5    5   14     -6.81      0.00
    7    5   14      5.37      0.00
    9    5   14     -0.10      0.00
   11    5   14     -2.92      0.00
   13    5   14     -3.08      0.00
   15    5   14      3.70      0.00
   17    5   14      2.42      0.00
    0    6   14      2.33      0.00
    2    6   14     -1.27      0.00
    4    6   14     -0.71      0.00
    6    6   14     -0.95      0.00
    8    6   14     -5.37      0.00
   10    6   14      3.70      0.00
   12    6   14      2.05      0.00
   14    6   14     -2.11      0.00
   16    6   14      4.29      0.00
    1    7   14      1.83      0.00
    3    7   14      4.87      0.00
    5    7   14     -5.22      0.00
    7    7   14     -5.86      0.00
    9    7   14     -4.86      0.00
   11    7   14      0.84      0.00
   13    7   14     -0.21      0.00
   15    7   14     -4.41      0.00
   17    7   14     -6.67      0.00
    0    8   14     -3.85      0.00
    2    8   14      5.18      0.00
    4    8   14      4.08      0.00
    6    8   14      0.30      0.00
    8    8   14      1.14      0.00
   10    8   14     -3.51      0.00
   12    8   14      3.39      0.00
   14    8   14     -5.23      0.00
   16    8   14     -0.89      0.00
    1    9   14     -1.48      0.00
    3    9   14      2.59      0.00
    5    9   14      5.85      0.00
    7    9   14      5.98      0.00
    9    9   14      1.38      0.00
   11    9   14     -2.03      0.00
   13    9   14     -2.16      0.00
   15    9   14     -6.21      0.00
    0   10   14      1.81      0.00
    2   10   14     -0.05      0.00
    4   10   14     -2.13      0.00
    6   10   14      0.99      0.00
    8   10   14     11.64      0.00
   10   10   14      0.55      0.00
   12   10   14      0.64      0.00
   14   10   14      7.36      0.00
   16   10   14      3.68      0.00
    1   11   14      1.46      0.00
    3   11   14      1.27      0.00
    5   11   14      5.53      0.00
    7   11   14     -3.95      0.00
    9   11   14      3.10      0.00
   11   11   14      2.49      0.00
   13   11   14      3.73      0.00
   15   11   14      8.97      0.00
    0   12   14     -3.62      0.00
    2   12   14      1.46      0.00
    4   12   14      3.17      0.00
    6   12   14      1.12      0.00
    8   12   14     -0.21      0.00
   10   12   14     -3.18      0.00
   12   12   14      1.99      0.00
   14   12   14     -6.17      0.00
    1   13   14     -2.45      0.00
    3   13   14     -5.21      0.00
    5   13   14     -5.59      0.00
    7   13   14      3.46      0.00
    9   13   14      0.31      0.00
   11   13   14     -3.27      0.00
   13   13   14     -5.75      0.00
   15   13   14     -1.63      0.00
    0   14   14     -0.58      0.00
    2   14   14     -0.76      0.00
    4   14   14      5.53      0.00
    6   14   14     -0.92      0.00
    8   14   14     -1.74      0.00
   10   14   14     -2.88      0.00
   12   14   14     -2.03      0.00
   14   14   14     -2.90      0.00
    1   15   14     -4.89      0.00
    3   15   14     -4.79      0.00
    5   15   14     -1.07      0.00
    7   15   14     -7.67      0.00
    9   15   14      0.35      0.00
   11   15   14      6.26      0.00
   13   15   14      8.49      0.00
    0   16   14      3.31      0.00
    2   16   14      0.50      0.00
    4   16   14     -4.76      0.00
    6   16   14     -5.56      0.00
    8   16   14     -4.41      0.00
   10   16   14     -8.66      0.00
   12   16   14      3.60      0.00
    1   17   14     -1.10      0.00
    3   17   14      0.82      0.00
    5   17   14      4.34      0.00
    7   17   14      7.32      0.00
    9   17   14     -4.36      0.00
   11   17   14     -5.93      0.00
   13   17   14     -3.85      0.00
    0   18   14      3.80      0.00
    2   18   14     -2.03      0.00
    4   18   14      0.57      0.00
    6   18   14     -2.03      0.00
    8   18   14      0.32      0.00
   10   18   14      8.35      0.00
   12   18   14      1.88      0.00
    1   19   14      3.53      0.00
    3   19   14      6.82      0.00
    5   19   14     -2.49      0.00
    7   19   14     -1.94      0.00
    9   19   14      9.71      0.00
   11   19   14     -0.13      0.00
    0   20   14     -2.07      0.00
    2   20   14      0.54      0.00
    4   20   14      3.21      0.00
    6   20   14     -1.09      0.00
    8   20   14      1.99      0.00
   10   20   14     -7.53      0.00
    1   21   14      2.50      0.00
    3   21   14     -5.03      0.00
    5   21   14      1.83      0.00
    7   21   14     -0.46      0.00
    9   21   14      0.48      0.00
    0   22   14      4.46      0.00
    2   22   14      4.93      0.00
    4   22   14      1.31      0.00
    6   22   14     -1.33      0.00
    8   22   14     -0.55      0.00
    1   23   14      6.81      0.00
    3   23   14      1.27      0.00
    5   23   14     -2.45      0.00
    0   24   14      0.56      0.00
    2   24   14     -2.70      0.00
    4   24   14     -1.35      0.00
    1    1   15      0.07      0.00
    3    1   15      1.18      0.00
    5    1   15     -0.19      0.00
    7    1   15      1.67      0.00
    9    1   15      1.42      0.00
   11    1   15     -3.64      0.00
   13    1   15      2.19      0.00
   15    1   15      8.46      0.00
   17    1   15     -8.17      0.00
    2    2   15     -6.54      0.00
    4    2   15      2.71      0.00
    6    2   15      4.63      0.00
    8    2   15     -9.02      0.00
   10    2   15      5.22      0.00
   12    2   15      1.36      0.00
   14    2   15     -1.58      0.00
   16    2   15     -0.38      0.00
    1    3   15     -6.23      0.00
    3    3   15      6.13      0.00
    5    3   15     -5.34      0.00
    7    3   15     11.81      0.00
    9    3   15     -4.26      0.00
   11    3   15     -1.11      0.00
   13    3   15      6.34      0.00
   15    3   15      5.98      0.00
   17    3   15     -0.89      0.00
    2    4   15     -2.54      0.00
    4    4   15     -4.15      0.00
    6    4   15      1.96      0.00
    8    4   15      1.83      0.00
   10    4   15     -3.19      0.00
   12    4   15      0.31      0.00
   14    4   15     -5.83      0.00
   16    4   15     15.54      0.00
    1    5   15      1.16      0.00
    3    5   15     -4.28      0.00
    5    5   15      7.04      0.00
    7    5   15     -0.50      0.00
    9    5   15     -2.27      0.00
   11    5   15     -4.86      0.00
   13    5   15     -3.84      0.00
   15    5   15     -1.59      0.00
   17    5   15     -1.23      0.00
    2    6   15      2.31      0.00
    4    6   15      1.67      0.00
    6    6   15     -1.73      0.00
    8    6   15     -4.67      0.00
   10    6   15     -0.58      0.00
   12    6   15      4.25      0.00
   14    6   15     -3.21      0.00
   16    6   15     -8.93      0.00
    1    7   15     -1.16      0.00
    3    7   15     -1.76      0.00
    5    7   15      5.00      0.00
    7    7   15      5.07      0.00
    9    7   15     -3.42      0.00
   11    7   15      5.17      0.00
   13    7   15      3.00      0.00
   15    7   15     -5.03      0.00
    2    8   15      1.53      0.00
    4    8   15      7.06      0.00
    6    8   15      7.27      0.00
    8    8   15      3.83      0.00
   10    8   15      2.59      0.00
   12    8   15     -2.70      0.00
   14    8   15      3.92      0.00
   16    8   15      2.67      0.00
    1    9   15     -0.37      0.00
    3    9   15     -6.09      0.00
    5    9   15      2.87      0.00
    7    9   15      1.69      0.00
    9    9   15      6.85      0.00
   11    9   15     -1.02      0.00
   13    9   15      1.01      0.00
   15    9   15      4.17      0.00
    2   10   15     -3.27      0.00
    4   10   15      0.30      0.00
    6   10   15     -2.86      0.00
    8   10   15      0.42      0.00
   10   10   15      3.22      0.00
   12   10   15      1.91      0.00
   14   10   15      5.51      0.00
   16   10   15      4.63      0.00
    1   11   15      0.10      0.00
    3   11   15      0.41      0.00
    5   11   15      0.38      0.00
    7   11   15     -2.09      0.00
    9   11   15     -7.24      0.00
   11   11   15     -5.45      0.00
   13   11   15      5.15      0.00
   15   11   15    -11.46      0.00
    2   12   15     -5.08      0.00
    4   12   15     -4.52      0.00
    6   12   15     -4.51      0.00
    8   12   15      3.34      0.00
   10   12   15     -7.82      0.00
   12   12   15     -3.37      0.00
   14   12   15     -7.39      0.00
    1   13   15     -3.66      0.00
    3   13   15     -3.18      0.00
    5   13   15      1.13      0.00
    7   13   15     -6.27      0.00
    9   13   15     -0.40      0.00
   11   13   15     -6.65      0.00
   13   13   15      0.59      0.00
    2   14   15     -3.11      0.00
    4   14   15      6.70      0.00
    6   14   15      2.69      0.00
    8   14   15    -10.28      0.00
   10   14   15      9.11      0.00
   12   14   15      1.60      0.00
   14   14   15      4.63      0.00
    1   15   15      0.44      0.00
    3   15   15      3.65      0.00
    5   15   15     -5.66      0.00
    7   15   15      4.64      0.00
    9   15   15     -9.10      0.00
   11   15   15      9.84      0.00
   13   15   15     -3.78      0.00
    2   16   15      8.69      0.00
    4   16   15      3.90      0.00
    6   16   15     -1.39      0.00
    8   16   15     14.17      0.00
   10   16   15    -11.55      0.00
   12   16   15     -6.48      0.00
    1   17   15     -2.04      0.00
    3   17   15     -4.44      0.00
    5   17   15     -2.51      0.00
    7   17   15     11.20      0.00
    9   17   15      3.79      0.00
   11   17   15     -0.40      0.00
    2   18   15     -2.07      0.00
    4   18   15     -3.24      0.00
    6   18   15     -8.30      0.00
    8   18   15      1.25      0.00
   10   18   15      9.41      0.00
    1   19   15      3.97      0.00
    3   19   15      1.12      0.00
    5   19   15      1.23      0.00
    7   19   15      0.58      0.00
    9   19   15      2.44      0.00
   11   19   15     -7.91      0.00
    2   20   15     -3.16      0.00
    4   20   15      3.65      0.00
    6   20   15     -1.57      0.00
    8   20   15     -1.74      0.00
   10   20   15     -0.48      0.00
    1   21   15      0.63      0.00
    3   21   15      2.25      0.00
    5   21   15     -0.61      0.00
    7   21   15      1.19      0.00
    9   21   15      1.26      0.00
    2   22   15     -2.17      0.00
    4   22   15      5.13      0.00
    6   22   15    -12.10      0.00
    1   23   15     -3.46      0.00
    3   23   15    -10.30      0.00
    5   23   15      0.64      0.00
    2   24   15     -7.05      0.00
    0    0   16     -6.34      0.00
    2    0   16      0.13      0.00
    4    0   16     -1.31      0.00
    6    0   16      4.08      0.00
    8    0   16     -5.00      0.00
   10    0   16     -3.48      0.00
   12    0   16      4.93      0.00
   14    0   16     16.10      0.00
   16    0   16     -1.93      0.00
    1    1   16     -4.86      0.00
    3    1   16     -3.21      0.00
    5    1   16      3.47      0.00
    7    1   16     -2.09      0.00
    9    1   16     -4.15      0.00
   11    1   16      1.65      0.00
   13    1   16      4.59      0.00
   15    1   16     -2.65      0.00
   17    1   16     -2.62      0.00
    0    2   16      0.57      0.00
    2    2   16     -1.78      0.00
    4    2   16     -3.53      0.00
    6    2   16      5.61      0.00
    8    2   16      6.64      0.00
   10    2   16     -3.53      0.00
   12    2   16     -3.32      0.00
   14    2   16      2.50      0.00
   16    2   16      2.92      0.00
    1    3   16      1.22      0.00
    3    3   16      2.33      0.00
    5    3   16     -2.64      0.00
    7    3   16      2.67      0.00
    9    3   16      1.90      0.00
   11    3   16      0.47      0.00
   13    3   16     -1.93      0.00
   15    3   16      1.75      0.00
   17    3   16      5.57      0.00
    0    4   16     -0.21      0.00
    2    4   16      0.19      0.00
    4    4   16     -0.17      0.00
    6    4   16     -1.15      0.00
    8    4   16     -1.90      0.00
   10    4   16     -0.21      0.00
   12    4   16     -4.13      0.00
   14    4   16     -4.56      0.00
   16    4   16     -6.06      0.00
    1    5   16      1.62      0.00
    3    5   16      4.28      0.00
    5    5   16     -4.38      0.00
    7    5   16      1.02      0.00
    9    5   16      2.61      0.00
   11    5   16     -0.48      0.00
   13    5   16     -0.57      0.00
   15    5   16     -2.28      0.00
    0    6   16     -1.80      0.00
    2    6   16     -2.85      0.00
    4    6   16     -1.63      0.00
    6    6   16      1.25      0.00
    8    6   16      1.82      0.00
   10    6   16      3.13      0.00
   12    6   16      8.29      0.00
   14    6   16      4.96      0.00
   16    6   16     -0.48      0.00
    1    7   16      3.12      0.00
    3    7   16      4.09      0.00
    5    7   16      1.02      0.00
    7    7   16      4.32      0.00
    9    7   16     -0.23      0.00
   11    7   16      3.81      0.00
   13    7   16     -1.38      0.00
   15    7   16      4.79      0.00
    0    8   16      7.10      0.00
    2    8   16     -0.69      0.00
    4    8   16      0.18      0.00
    6    8   16     -3.93      0.00
    8    8   16     -0.49      0.00
   10    8   16      0.49      0.00
   12    8   16     -1.56      0.00
   14    8   16     -4.18      0.00
   16    8   16      5.31      0.00
    1    9   16     -4.41      0.00
    3    9   16     -8.27      0.00
    5    9   16     -2.52      0.00
    7    9   16     -4.31      0.00
    9    9   16      0.99      0.00
   11    9   16     -0.48      0.00
   13    9   16      0.20      0.00
   15    9   16     -1.18      0.00
    0   10   16      5.05      0.00
    2   10   16     -5.10      0.00
    4   10   16     -4.52      0.00
    6   10   16     -0.57      0.00
    8   10   16      0.49      0.00
   10   10   16    -11.83      0.00
   12   10   16     -1.75      0.00
   14   10   16      0.88      0.00
    1   11   16     -0.65      0.00
    3   11   16     -2.99      0.00
    5   11   16      0.34      0.00
    7   11   16     -2.63      0.00
    9   11   16     -8.08      0.00
   11   11   16     -3.66      0.00
   13   11   16     -2.78      0.00
   15   11   16     -0.13      0.00
    0   12   16     -0.06      0.00
    2   12   16     -1.47      0.00
    4   12   16      3.67      0.00
    6   12   16     -1.83      0.00
    8   12   16      1.02      0.00
   10   12   16     -3.36      0.00
   12   12   16      0.38      0.00
   14   12   16     -5.60      0.00
    1   13   16      6.79      0.00
    3   13   16      3.65      0.00
    5   13   16      0.15      0.00
    7   13   16      6.26      0.00
    9   13   16      1.91      0.00
   11   13   16      3.21      0.00
   13   13   16     -0.23      0.00
    0   14   16     -7.80      0.00
    2   14   16      2.00      0.00
    4   14   16      8.35      0.00
    6   14   16     -4.69      0.00
    8   14   16      8.29      0.00
   10   14   16      4.98      0.00
   12   14   16      5.44      0.00
   14   14   16      4.32      0.00
    1   15   16     -3.66      0.00
    3   15   16      1.10      0.00
    5   15   16     -1.76      0.00
    7   15   16     -5.22      0.00
    9   15   16      1.41      0.00
   11   15   16      0.88      0.00
   13   15   16     -2.71      0.00
    0   16   16      2.88      0.00
    2   16   16      0.63      0.00
    4   16   16     -4.40      0.00
    6   16   16      5.24      0.00
    8   16   16      4.52      0.00
   10   16   16     -6.70      0.00
   12   16   16     -1.09      0.00
    1   17   16      3.24      0.00
    3   17   16     -5.42      0.00
    5   17   16     -7.65      0.00
    7   17   16     -9.73      0.00
    9   17   16      9.64      0.00
   11   17   16      2.83      0.00
    0   18   16      0.34      0.00
    2   18   16     -2.95      0.00
    4   18   16      4.29      0.00
    6   18   16      3.04      0.00
    8   18   16     -0.40      0.00
   10   18   16     -1.44      0.00
    1   19   16     -0.85      0.00
    3   19   16      5.17      0.00
    5   19   16      0.15      0.00
    7   19   16      1.71      0.00
    9   19   16     -5.16      0.00
    0   20   16      1.57      0.00
    2   20   16     -0.66      0.00
    4   20   16      0.44      0.00
    6   20   16     -1.46      0.00
    8   20   16     -1.60      0.00
    1   21   16      0.06      0.00
    3   21   16     -2.26      0.00
    5   21   16     -0.37      0.00
    7   21   16     -1.20      0.00
    0   22   16     -5.81      0.00
    2   22   16     -5.95      0.00
    4   22   16     -8.21      0.00
    6   22   16      1.45      0.00
    1   23   16      1.49      0.00
    3   23   16     -2.08      0.00
    1    1   17      0.29      0.00
    3    1   17     -2.07      0.00
    5    1   17     -1.36      0.00
    7    1   17      6.15      0.00
    9    1   17      0.22      0.00
   11    1   17     -0.52      0.00
   13    1   17    -12.67      0.00
   15    1   17     11.85      0.00
    2    2   17      3.52      0.00
    4    2   17      1.01      0.00
    6    2   17      7.20      0.00
    8    2   17     -5.95      0.00
   10    2   17      7.99      0.00
   12    2   17     -7.83      0.00
   14    2   17      5.99      0.00
   16    2   17      2.29      0.00
    1    3   17      0.35      0.00
    3    3   17      6.31      0.00
    5    3   17     -4.55      0.00
    7    3   17     -1.49      0.00
    9    3   17      3.10      0.00
   11    3   17     -0.83      0.00
   13    3   17     -4.76      0.00
   15    3   17    -14.35      0.00
    2    4   17      5.25      0.00
    4    4   17     -4.39      0.00
    6    4   17      3.30      0.00
    8    4   17     -0.52      0.00
   10    4   17      1.25      0.00
   12    4   17     -1.36      0.00
   14    4   17     -3.30      0.00
   16    4   17      1.94      0.00
    1    5   17     -1.52      0.00
    3    5   17     -2.06      0.00
    5    5   17      1.03      0.00
    7    5   17      0.26      0.00
    9    5   17     -0.04      0.00
   11    5   17      5.09      0.00
   13    5   17      6.71      0.00
   15    5   17     13.18      0.00
    2    6   17     -0.59      0.00
    4    6   17      2.29      0.00
    6    6   17      3.41      0.00
    8    6   17    -10.97      0.00
   10    6   17      1.49      0.00
   12    6   17      3.28      0.00
   14    6   17     -3.61      0.00
   16    6   17      1.88      0.00
    1    7   17      8.12      0.00
    3    7   17      0.22      0.00
    5    7   17     -1.93      0.00
    7    7   17      1.04      0.00
    9    7   17     -6.55      0.00
   11    7   17      1.00      0.00
   13    7   17    -13.62      0.00
   15    7   17     -9.66      0.00
    2    8   17     -6.74      0.00
    4    8   17     -0.30      0.00
    6    8   17     -4.06      0.00
    8    8   17      3.23      0.00
   10    8   17     -1.95      0.00
   12    8   17     -1.39      0.00
   14    8   17     -2.65      0.00
    1    9   17     -1.50      0.00
    3    9   17     -5.37      0.00
    5    9   17      2.97      0.00
    7    9   17     -2.31      0.00
    9    9   17     -1.28      0.00
   11    9   17     -6.87      0.00
   13    9   17      7.19      0.00
   15    9   17     -5.40      0.00
    2   10   17      4.14      0.00
    4   10   17      4.36      0.00
    6   10   17      1.20      0.00
    8   10   17     -7.64      0.00
   10   10   17     -4.08      0.00
   12   10   17     -0.27      0.00
   14   10   17     -1.80      0.00
    1   11   17      0.29      0.00
    3   11   17      5.33      0.00
    5   11   17     -0.14      0.00
    7   11   17      6.58      0.00
    9   11   17     -3.54      0.00
   11   11   17     -0.63      0.00
   13   11   17      5.98      0.00
    2   12   17      4.94      0.00
    4   12   17      4.50      0.00
    6   12   17     -0.90      0.00
    8   12   17     10.51      0.00
   10   12   17      7.15      0.00
   12   12   17     -1.01      0.00
   14   12   17     -0.52      0.00
    1   13   17     -5.59      0.00
    3   13   17     11.36      0.00
    5   13   17      2.09      0.00
    7   13   17     -2.87      0.00
    9   13   17      9.41      0.00
   11   13   17     -0.11      0.00
   13   13   17      8.51      0.00
    2   14   17     -4.21      0.00
    4   14   17      2.52      0.00
    6   14   17     -8.04      0.00
    8   14   17    -13.32      0.00
   10   14   17      8.84      0.00
   12   14   17      1.44      0.00
    1   15   17      5.21      0.00
    3   15   17     -6.87      0.00
    5   15   17     -5.91      0.00
    7   15   17      1.96      0.00
    9   15   17    -13.14      0.00
   11   15   17     -3.32      0.00
    2   16   17     10.92      0.00
    4   16   17     -5.56      0.00
    6   16   17     -1.65      0.00
    8   16   17      5.38      0.00
   10   16   17     -1.41      0.00
   12   16   17     -5.33      0.00
    1   17   17     -2.54      0.00
    3   17   17     -6.51      0.00
    5   17   17     10.91      0.00
    7   17   17      8.36      0.00
    9   17   17      0.65      0.00
   11   17   17     -6.14      0.00
    2   18   17      0.23      0.00
    4   18   17      4.48      0.00
    6   18   17     13.54      0.00
    8   18   17     -3.02      0.00
   10   18   17      1.28      0.00
    1   19   17      2.28      0.00
    3   19   17     -1.62      0.00
    5   19   17    -10.31      0.00
    7   19   17     -6.27      0.00
    9   19   17      2.33      0.00
    2   20   17     -6.06      0.00
    4   20   17     -0.29      0.00
    6   20   17      1.88      0.00
    8   20   17      4.15      0.00
    1   21   17     -4.24      0.00
    3   21   17      2.86      0.00
    5   21   17     -6.58      0.00
    7   21   17     10.85      0.00
    2   22   17      1.96      0.00
    4   22   17      4.85      0.00
    1   23   17      9.36      0.00
    3   23   17      1.64      0.00
    0    0   18     -2.64      0.00
    2    0   18      2.14      0.00
    4    0   18      1.51      0.00
    6    0   18      0.60      0.00
    8    0   18     -1.99      0.00
   10    0   18      0.46      0.00
   12    0   18     -6.11      0.00
   14    0   18     -0.01      0.00
   16    0   18     -8.80      0.00
    1    1   18      0.92      0.00
    3    1   18      0.23      0.00
    5    1   18      7.60      0.00
    7    1   18      0.74      0.00
    9    1   18     -1.49      0.00
   11    1   18      0.47      0.00
   13    1   18      4.95      0.00
   15    1   18     -0.56      0.00
    0    2   18      3.57      0.00
    2    2   18      3.54      0.00
    4    2   18     -2.84      0.00
    6    2   18     -2.19      0.00
    8    2   18      4.68      0.00
   10    2   18      4.16      0.00
   12    2   18     -1.10      0.00
   14    2   18     -9.03      0.00
   16    2   18     -3.45      0.00
    1    3   18     -2.44      0.00
    3    3   18      1.38      0.00
    5    3   18     -1.04      0.00
    7    3   18      1.78      0.00
    9    3   18     -0.27      0.00
   11    3   18     -0.40      0.00
   13    3   18     -0.35      0.00
   15    3   18     -6.78      0.00
    0    4   18     -1.27      0.00
    2    4   18      0.70      0.00
    4    4   18     -1.20      0.00
    6    4   18     -0.63      0.00
    8    4   18      0.18      0.00
   10    4   18     -4.79      0.00
   12    4   18      3.45      0.00
   14    4   18     14.06      0.00
   16    4   18     11.20      0.00
    1    5   18     -3.16      0.00
    3    5   18      0.65      0.00
    5    5   18     -2.67      0.00
    7    5   18     -0.42      0.00
    9    5   18     -5.23      0.00
   11    5   18     -0.87      0.00
   13    5   18     -1.43      0.00
   15    5   18     -1.90      0.00
    0    6   18      6.93      0.00
    2    6   18      3.70      0.00
    4    6   18     -5.19      0.00
    6    6   18      3.54      0.00
    8    6   18     -0.98      0.00
   10    6   18     -4.80      0.00
   12    6   18     -4.17      0.00
   14    6   18    -14.72      0.00
    1    7   18     -0.96      0.00
    3    7   18      2.54      0.00
    5    7   18     -3.77      0.00
    7    7   18      6.45      0.00
    9    7   18      3.44      0.00
   11    7   18      2.08      0.00
   13    7   18     -0.19      0.00
   15    7   18     -0.92      0.00
    0    8   18     -8.28      0.00
    2    8   18     -5.99      0.00
    4    8   18      4.78      0.00
    6    8   18     -2.31      0.00
    8    8   18     -0.37      0.00
   10    8   18     -1.05      0.00
   12    8   18      5.86      0.00
   14    8   18      9.04      0.00
    1    9   18     -1.08      0.00
    3    9   18      4.00      0.00
    5    9   18      7.47      0.00
    7    9   18     -5.67      0.00
    9    9   18     -4.52      0.00
   11    9   18      2.81      0.00
   13    9   18     -1.06      0.00
   15    9   18     -2.77      0.00
    0   10   18      8.14      0.00
    2   10   18     -1.63      0.00
    4   10   18      3.80      0.00
    6   10   18      2.29      0.00
    8   10   18      6.25      0.00
   10   10   18     -3.03      0.00
   12   10   18     -0.20      0.00
   14   10   18      5.09      0.00
    1   11   18     -3.60      0.00
    3   11   18      4.80      0.00
    5   11   18     -1.40      0.00
    7   11   18      5.08      0.00
    9   11   18      1.14      0.00
   11   11   18      2.00      0.00
   13   11   18      4.15      0.00
    0   12   18     -6.25      0.00
    2   12   18     -3.95      0.00
    4   12   18      8.25      0.00
    6   12   18     -5.02      0.00
    8   12   18     -2.71      0.00
   10   12   18      3.67      0.00
   12   12   18      5.46      0.00
    1   13   18      6.82      0.00
    3   13   18     -3.56      0.00
    5   13   18     -6.87      0.00
    7   13   18     -4.30      0.00
    9   13   18     -5.64      0.00
   11   13   18      3.95      0.00
   13   13   18     -2.99      0.00
    0   14   18      4.51      0.00
    2   14   18     -2.73      0.00
    4   14   18     -3.99      0.00
    6   14   18     -5.31      0.00
    8   14   18      5.58      0.00
   10   14   18    -10.86      0.00
   12   14   18     -3.95      0.00
    1   15   18     -5.36      0.00
    3   15   18     10.03      0.00
    5   15   18      3.34      0.00
    7   15   18      7.73      0.00
    9   15   18     -4.13      0.00
   11   15   18     -4.30      0.00
    0   16   18      3.61      0.00
    2   16   18    -11.55      0.00
    4   16   18     -0.15      0.00
    6   16   18     11.63      0.00
    8   16   18     15.61      0.00
   10   16   18      4.44      0.00
    1   17   18      6.40      0.00
    3   17   18     -4.60      0.00
    5   17   18      5.69      0.00
    7   17   18     -0.25      0.00
    9   17   18      1.57      0.00
    0   18   18      1.58      0.00
    2   18   18      9.92      0.00
    4   18   18     -8.82      0.00
    6   18   18    -12.73      0.00
    8   18   18      1.72      0.00
   10   18   18      4.15      0.00
    1   19   18     -9.46      0.00
    3   19   18      1.66      0.00
    5   19   18      1.17      0.00
    7   19   18     -1.90      0.00
    9   19   18     -4.10      0.00
    0   20   18      1.60      0.00
    2   20   18     -1.52      0.00
    4   20   18      3.87      0.00
    6   20   18      9.93      0.00
    1   21   18     -1.33      0.00
    3   21   18      3.40      0.00
    5   21   18     -6.14      0.00
    0   22   18     10.01      0.00
    2   22   18      0.97      0.00
    4   22   18      0.01      0.00
    1    1   19      4.06      0.00
    3    1   19     -5.95      0.00
    5    1   19     -0.29      0.00
    7    1   19      5.19      0.00
    9    1   19     -0.63      0.00
   11    1   19      2.62      0.00
   13    1   19     -9.09      0.00
   15    1   19     12.97      0.00
    2    2   19     -1.05      0.00
    4    2   19     -2.32      0.00
    6    2   19      2.03      0.00
    8    2   19     -4.07      0.00
   10    2   19     -0.20      0.00
   12    2   19     -8.47      0.00
   14    2   19     -0.44      0.00
    1    3   19     -3.32      0.00
    3    3   19      1.71      0.00
    5    3   19      3.84      0.00
    7    3   19     -8.82      0.00
    9    3   19      1.88      0.00
   11    3   19     -8.86      0.00
   13    3   19     17.20      0.00
   15    3   19      6.89      0.00
    2    4   19      4.74      0.00
    4    4   19     -8.07      0.00
    6    4   19      1.52      0.00
    8    4   19     -4.05      0.00
   10    4   19      1.53      0.00
   12    4   19     -9.65      0.00
   14    4   19      6.31      0.00
    1    5   19      0.82      0.00
    3    5   19     -4.25      0.00
    5    5   19      1.26      0.00
    7    5   19      1.47      0.00
    9    5   19      1.75      0.00
   11    5   19     -3.41      0.00
   13    5   19     -5.01      0.00
   15    5   19    -14.90      0.00
    2    6   19     -0.42      0.00
    4    6   19      6.22      0.00
    6    6   19      1.88      0.00
    8    6   19     -1.36      0.00
   10    6   19      7.23      0.00
   12    6   19      5.48      0.00
   14    6   19     -3.86      0.00
    1    7   19     -4.87      0.00
    3    7   19      1.93      0.00
    5    7   19      3.35      0.00
    7    7   19     -3.36      0.00
    9    7   19      3.37      0.00
   11    7   19      3.61      0.00
   13    7   19      4.64      0.00
   15    7   19     13.64      0.00
    2    8   19     -3.89      0.00
    4    8   19      4.07      0.00
    6    8   19     -4.43      0.00
    8    8   19     -4.35      0.00
   10    8   19     -3.14      0.00
   12    8   19     -0.36      0.00
   14    8   19     -7.01      0.00
    1    9   19      5.47      0.00
    3    9   19     -2.57      0.00
    5    9   19      0.95      0.00
    7    9   19      1.33      0.00
    9    9   19      0.74      0.00
   11    9   19      0.18      0.00
   13    9   19     -1.45      0.00
    2   10   19      0.12      0.00
    4   10   19     -2.49      0.00
    6   10   19      1.39      0.00
    8   10   19     -4.21      0.00
   10   10   19     -0.53      0.00
   12   10   19      6.83      0.00
   14   10   19      1.34      0.00
    1   11   19      1.62      0.00
    3   11   19      0.44      0.00
    5   11   19     -2.87      0.00
    7   11   19      1.60      0.00
    9   11   19     -4.17      0.00
   11   11   19     -1.91      0.00
   13   11   19      3.25      0.00
    2   12   19      2.88      0.00
    4   12   19     -5.92      0.00
    6   12   19     -1.94      0.00
    8   12   19     -3.37      0.00
   10   12   19      6.02      0.00
   12   12   19     -3.81      0.00
    1   13   19      0.00      0.00
    3   13   19     -1.82      0.00
    5   13   19     -4.35      0.00
    7   13   19      3.19      0.00
    9   13   19     13.16      0.00
   11   13   19    -12.79      0.00
    2   14   19     -5.40      0.00
    4   14   19     13.18      0.00
    6   14   19     -1.86      0.00
    8   14   19      0.37      0.00
   10   14   19     -5.61      0.00
   12   14   19      7.98      0.00
    1   15   19      9.17      0.00
    3   15   19     -7.77      0.00
    5   15   19      1.46      0.00
    7   15   19      3.65      0.00
    9   15   19     12.46      0.00
   11   15   19      0.03      0.00
    2   16   19      6.44      0.00
    4   16   19     -4.77      0.00
    6   16   19     -6.85      0.00
    8   16   19      9.87      0.00
   10   16   19     -1.94      0.00
    1   17   19      7.77      0.00
    3   17   19     -4.70      0.00
    5   17   19      1.22      0.00
    7   17   19    -11.27      0.00
    9   17   19     -8.29      0.00
    2   18   19    -10.17      0.00
    4   18   19      3.75      0.00
    6   18   19      0.09      0.00
    8   18   19    -11.33      0.00
    1   19   19      1.64      0.00
    3   19   19     -0.79      0.00
    5   19   19     15.62      0.00
    7   19   19     -2.79      0.00
    2   20   19      0.55      0.00
    4   20   19     -5.76      0.00
    6   20   19     -0.63      0.00
    1   21   19     -4.76      0.00
    3   21   19      2.92      0.00
    5   21   19     -8.64      0.00
    0    0   20      1.35      0.00
    2    0   20     -2.39      0.00
    4    0   20     -1.03      0.00
    6    0   20      5.72      0.00
    8    0   20     -2.19      0.00
   10    0   20     -6.89      0.00
   12    0   20      2.60      0.00
   14    0   20     13.42      0.00
    1    1   20     -1.65      0.00
    3    1   20     -1.73      0.00
    5    1   20     -0.18      0.00
    7    1   20      1.94      0.00
    9    1   20     -6.33      0.00
   11    1   20     -5.63      0.00
   13    1   20     -2.79      0.00
   15    1   20     -4.95      0.00
    0    2   20     -5.69      0.00
    2    2   20      0.67      0.00
    4    2   20      5.25      0.00
    6    2   20     -4.14      0.00
    8    2   20     -3.08      0.00
   10    2   20      2.76      0.00
   12    2   20      0.50      0.00
   14    2   20     -2.74      0.00
    1    3   20     -2.27      0.00
    3    3   20     -0.78      0.00
    5    3   20     -2.55      0.00
    7    3   20      0.55      0.00
    9    3   20     -0.20      0.00
   11    3   20     -0.14      0.00
   13    3   20      3.16      0.00
   15    3   20      8.52      0.00
    0    4   20      4.15      0.00
    2    4   20     -1.17      0.00
    4    4   20     -2.57      0.00
    6    4   20      1.73      0.00
    8    4   20      4.18      0.00
   10    4   20     -1.62      0.00
   12    4   20     -0.25      0.00
   14    4   20     -6.65      0.00
    1    5   20     -4.85      0.00
    3    5   20      0.51      0.00
    5    5   20      4.12      0.00
    7    5   20      1.11      0.00
    9    5   20     -1.38      0.00
   11    5   20      9.43      0.00
   13    5   20     -2.86      0.00
   15    5   20     -3.36      0.00
    0    6   20     -0.01      0.00
    2    6   20      1.77      0.00
    4    6   20      1.24      0.00
    6    6   20      3.01      0.00
    8    6   20      0.47      0.00
   10    6   20     -0.76      0.00
   12    6   20     -1.15      0.00
   14    6   20      4.50      0.00
    1    7   20      1.63      0.00
    3    7   20     -2.80      0.00
    5    7   20     -7.08      0.00
    7    7   20     -2.18      0.00
    9    7   20     -3.42      0.00
   11    7   20      1.11      0.00
   13    7   20     -3.50      0.00
    0    8   20      2.42      0.00
    2    8   20      6.43      0.00
    4    8   20     -2.64      0.00
    6    8   20     -2.81      0.00
    8    8   20     -3.07      0.00
   10    8   20      1.40      0.00
   12    8   20     -1.14      0.00
   14    8   20     -4.59      0.00
    1    9   20     -2.10      0.00
    3    9   20      2.86      0.00
    5    9   20     -2.26      0.00
    7    9   20      1.48      0.00
    9    9   20     -4.22      0.00
   11    9   20      4.65      0.00
   13    9   20      6.70      0.00
    0   10   20     14.59      0.00
    2   10   20     -5.63      0.00
    4   10   20     -2.34      0.00
    6   10   20     -0.64      0.00
    8   10   20      6.49      0.00
   10   10   20     -5.49      0.00
   12   10   20     -0.69      0.00
    1   11   20     -5.30      0.00
    3   11   20      6.11      0.00
    5   11   20     -3.20      0.00
    7   11   20      5.99      0.00
    9   11   20      0.24      0.00
   11   11   20      0.12      0.00
   13   11   20     -4.53      0.00
    0   12   20     -3.13      0.00
    2   12   20     -1.78      0.00
    4   12   20      2.98      0.00
    6   12   20     -1.17      0.00
    8   12   20     -1.00      0.00
   10   12   20      8.80      0.00
   12   12   20      4.26      0.00
    1   13   20      6.50      0.00
    3   13   20      4.23      0.00
    5   13   20     -2.50      0.00
    7   13   20      0.62      0.00
    9   13   20     -3.77      0.00
   11   13   20     -1.23      0.00
    0   14   20      6.88      0.00
    2   14   20      2.51      0.00
    4   14   20     -3.33      0.00
    6   14   20    -10.15      0.00
    8   14   20      1.16      0.00
   10   14   20     -1.61      0.00
    1   15   20     -7.75      0.00
    3   15   20      6.17      0.00
    5   15   20     -5.35      0.00
    7   15   20      9.09      0.00
    9   15   20     -1.45      0.00
   11   15   20     -6.74      0.00
    0   16   20      2.28      0.00
    2   16   20     -4.11      0.00
    4   16   20      1.04      0.00
    6   16   20      4.45      0.00
    8   16   20    -10.50      0.00
   10   16   20     -8.84      0.00
    1   17   20     -0.26      0.00
    3   17   20     -5.79      0.00
    5   17   20      9.57      0.00
    7   17   20     -6.64      0.00
    9   17   20     -6.02      0.00
    0   18   20     -8.97      0.00
    2   18   20      6.39      0.00
    4   18   20     -3.43      0.00
    6   18   20     -0.56      0.00
    8   18   20      1.32      0.00
    1   19   20     -5.37      0.00
    3   19   20      1.40      0.00
    5   19   20     -0.58      0.00
    7   19   20      3.95      0.00
    0   20   20    -13.06      0.00
    2   20   20     -2.91      0.00
    4   20   20      0.45      0.00
    1   21   20      1.38      0.00
    3   21   20      1.57      0.00
    1    1   21      2.98      0.00
    3    1   21      0.45      0.00
    5    1   21      2.60      0.00
    7    1   21     -5.10      0.00
    9    1   21      8.94      0.00
   11    1   21      8.01      0.00
   13    1   21    -13.42      0.00
    2    2   21     -1.18      0.00
    4    2   21     -0.36      0.00
    6    2   21     -2.11      0.00
    8    2   21      2.12      0.00
   10    2   21      4.71      0.00
   12    2   21      2.68      0.00
   14    2   21     16.34      0.00
    1    3   21      4.02      0.00
    3    3   21     -4.68      0.00
    5    3   21      1.08      0.00
    7    3   21     -3.12      0.00
    9    3   21      1.46      0.00
   11    3   21    -12.27      0.00
   13    3   21     12.44      0.00
    2    4   21      1.73      0.00
    4    4   21     -0.13      0.00
    6    4   21      0.21      0.00
    8    4   21      1.18      0.00
   10    4   21      3.31      0.00
   12    4   21     -1.46      0.00
   14    4   21    -10.53      0.00
    1    5   21      3.17      0.00
    3    5   21      0.87      0.00
    5    5   21     -0.79      0.00
    7    5   21      2.26      0.00
    9    5   21      2.99      0.00
   11    5   21     -5.65      0.00
   13    5   21      0.33      0.00
    2    6   21      1.86      0.00
    4    6   21      1.44      0.00
    6    6   21     -7.65      0.00
    8    6   21     -0.04      0.00
   10    6   21     -1.62      0.00
   12    6   21      5.63      0.00
   14    6   21     -1.78      0.00
    1    7   21      0.92      0.00
    3    7   21      1.03      0.00
    5    7   21     -7.07      0.00
    7    7   21     -6.56      0.00
    9    7   21      4.90      0.00
   11    7   21     -0.67      0.00
   13    7   21     -2.23      0.00
    2    8   21     -2.38      0.00
    4    8   21      5.30      0.00
    6    8   21      5.30      0.00
    8    8   21      3.38      0.00
   10    8   21     -2.27      0.00
   12    8   21     -0.32      0.00
    1    9   21      2.15      0.00
    3    9   21     -5.47      0.00
    5    9   21     -1.55      0.00
    7    9   21      7.37      0.00
    9    9   21     -2.20      0.00
   11    9   21      6.46      0.00
   13    9   21     -3.39      0.00
    2   10   21     -1.11      0.00
    4   10   21      0.76      0.00
    6   10   21      8.01      0.00
    8   10   21     -5.63      0.00
   10   10   21     -0.40      0.00
   12   10   21      0.51      0.00
    1   11   21     -5.96      0.00
    3   11   21     -2.12      0.00
    5   11   21      3.05      0.00
    7   11   21    -10.92      0.00
    9   11   21      3.36      0.00
   11   11   21      5.79      0.00
    2   12   21      6.39      0.00
    4   12   21     -2.19      0.00
    6   12   21     -4.99      0.00
    8   12   21      0.46      0.00
   10   12   21     -1.94      0.00
   12   12   21      5.52      0.00
    1   13   21      1.40      0.00
    3   13   21     -3.24      0.00
    5   13   21     -5.58      0.00
    7   13   21     -2.55      0.00
    9   13   21      1.29      0.00
   11   13   21    -11.24      0.00
    2   14   21    -16.86      0.00
    4   14   21     13.16      0.00
    6   14   21     -0.79      0.00
    8   14   21     11.22      0.00
   10   14   21    -10.59      0.00
    1   15   21     -1.56      0.00
    3   15   21     -1.13      0.00
    5   15   21      0.34      0.00
    7   15   21      9.20      0.00
    9   15   21     -7.78      0.00
    2   16   21     -2.00      0.00
    4   16   21      3.69      0.00
    6   16   21    -13.84      0.00
    8   16   21      5.75      0.00
    1   17   21      4.99      0.00
    3   17   21     -7.51      0.00
    5   17   21     -3.17      0.00
    7   17   21      3.39      0.00
    2   18   21     -2.75      0.00
    4   18   21      8.44      0.00
    6   18   21     -1.23      0.00
    1   19   21     -9.92      0.00
    3   19   21      3.22      0.00
    5   19   21     11.79      0.00
    2   20   21      2.34      0.00
    0    0   22      2.57      0.00
    2    0   22      1.01      0.00
    4    0   22      2.30      0.00
    6    0   22      2.52      0.00
    8    0   22     -5.34      0.00
   10    0   22     11.47      0.00
   12    0   22      0.24      0.00
   14    0   22     -3.74      0.00
    1    1   22     -1.28      0.00
    3    1   22      1.61      0.00
    5    1   22     -2.10      0.00
    7    1   22     -2.02      0.00
    9    1   22      1.56      0.00
   11    1   22      3.73      0.00
   13    1   22     10.59      0.00
    0    2   22     -0.14      0.00
    2    2   22      2.81      0.00
    4    2   22     -2.67      0.00
    6    2   22     -0.06      0.00
    8    2   22     -5.16      0.00
   10    2   22     -6.85      0.00
   12    2   22     -1.39      0.00
   14    2   22      9.13      0.00
    1    3   22     -2.00      0.00
    3    3   22      3.04      0.00
    5    3   22     -0.16      0.00
    7    3   22      2.84      0.00
    9    3   22     -1.19      0.00
   11    3   22      0.37      0.00
   13    3   22    -13.87      0.00
    0    4   22     -2.92      0.00
    2    4   22     -4.28      0.00
    4    4   22      1.73      0.00
    6    4   22     -1.62      0.00
    8    4   22      4.19      0.00
   10    4   22      5.14      0.00
   12    4   22     -6.21      0.00
    1    5   22     -2.54      0.00
    3    5   22      4.15      0.00
    5    5   22      1.94      0.00
    7    5   22     -1.00      0.00
    9    5   22     -3.75      0.00
   11    5   22      1.47      0.00
   13    5   22      9.41      0.00
    0    6   22     -4.95      0.00
    2    6   22     -1.78      0.00
    4    6   22      0.80      0.00
    6    6   22     -2.42      0.00
    8    6   22      1.97      0.00
   10    6   22      1.15      0.00
   12    6   22      0.02      0.00
    1    7   22     -5.21      0.00
    3    7   22     -0.40      0.00
    5    7   22      6.98      0.00
    7    7   22      3.90      0.00
    9    7   22     -0.87      0.00
   11    7   22     -5.29      0.00
   13    7   22      0.18      0.00
    0    8   22     -8.22      0.00
    2    8   22      2.05      0.00
    4    8   22     -6.88      0.00
    6    8   22      5.14      0.00
    8    8   22     -1.70      0.00
   10    8   22      4.89      0.00
   12    8   22      4.12      0.00
    1    9   22     -3.66      0.00
    3    9   22      2.47      0.00
    5    9   22     -7.18      0.00
    7    9   22      1.11      0.00
    9    9   22     -7.78      0.00
   11    9   22      7.40      0.00
    0   10   22      5.16      0.00
    2   10   22     -6.93      0.00
    4   10   22     -3.21      0.00
    6   10   22     -0.68      0.00
    8   10   22     -3.55      0.00
   10   10   22     -0.35      0.00
   12   10   22     -2.01      0.00
    1   11   22     -6.82      0.00
    3   11   22      3.15      0.00
    5   11   22     -2.78      0.00
    7   11   22     -0.29      0.00
    9   11   22      4.45      0.00
   11   11   22      1.87      0.00
    0   12   22      6.47      0.00
    2   12   22     -2.63      0.00
    4   12   22     -0.07      0.00
    6   12   22      8.03      0.00
    8   12   22     -6.94      0.00
   10   12   22     -1.20      0.00
    1   13   22     -2.20      0.00
    3   13   22     -4.31      0.00
    5   13   22      0.77      0.00
    7   13   22      8.13      0.00
    9   13   22      1.00      0.00
    0   14   22     -0.97      0.00
    2   14   22      8.76      0.00
    4   14   22     -0.66      0.00
    6   14   22     -0.59      0.00
    8   14   22      7.79      0.00
   10   14   22     -5.10      0.00
    1   15   22      0.31      0.00
    3   15   22      5.26      0.00
    5   15   22     -8.69      0.00
    7   15   22     -0.25      0.00
    9   15   22     -2.37      0.00
    0   16   22     11.61      0.00
    2   16   22      1.67      0.00
    4   16   22     -9.66      0.00
    6   16   22      3.49      0.00
    8   16   22      3.15      0.00
    1   17   22      5.25      0.00
    3   17   22     -1.68      0.00
    5   17   22     12.85      0.00
    7   17   22     -6.34      0.00
    0   18   22    -12.66      0.00
    2   18   22      2.70      0.00
    4   18   22     14.19      0.00
    1   19   22      1.99      0.00
    3   19   22      0.40      0.00
    1    1   23     -2.14      0.00
    3    1   23     -0.27      0.00
    5    1   23     -8.46      0.00
    7    1   23      0.27      0.00
    9    1   23     -3.96      0.00
   11    1   23     -3.28      0.00
   13    1   23     -3.62      0.00
    2    2   23     -2.94      0.00
    4    2   23      2.55      0.00
    6    2   23      1.13      0.00
    8    2   23      7.18      0.00
   10    2   23     -1.05      0.00
   12    2   23    -13.27      0.00
    1    3   23     -4.45      0.00
    3    3   23     -2.17      0.00
    5    3   23      4.57      0.00
    7    3   23      2.75      0.00
    9    3   23     10.05      0.00
   11    3   23     -6.30      0.00
   13    3   23      7.27      0.00
    2    4   23      1.93      0.00
    4    4   23      2.18      0.00
    6    4   23      2.02      0.00
    8    4   23     -0.60      0.00
   10    4   23     -8.97      0.00
   12    4   23     13.90      0.00
    1    5   23      0.62      0.00
    3    5   23     -0.57      0.00
    5    5   23     -4.57      0.00
    7    5   23      3.12      0.00
    9    5   23     -0.32      0.00
   11    5   23     -1.00      0.00
   13    5   23      3.55      0.00
    2    6   23     -8.41      0.00
    4    6   23     -0.03      0.00
    6    6   23      2.63      0.00
    8    6   23     -0.95      0.00
   10    6   23     -2.14      0.00
   12    6   23     -5.52      0.00
    1    7   23      3.94      0.00
    3    7   23     -0.33      0.00
    5    7   23     -3.86      0.00
    7    7   23     -2.20      0.00
    9    7   23     -0.30      0.00
   11    7   23      2.20      0.00
    2    8   23     -0.97      0.00
    4    8   23     -5.91      0.00
    6    8   23     -6.26      0.00
    8    8   23      0.16      0.00
   10    8   23      7.74      0.00
   12    8   23     -3.57      0.00
    1    9   23      2.74      0.00
    3    9   23     -4.30      0.00
    5    9   23      4.15      0.00
    7    9   23     -1.89      0.00
    9    9   23     -3.69      0.00
   11    9   23     -1.47      0.00
    2   10   23     -8.35      0.00
    4   10   23      2.47      0.00
    6   10   23     11.97      0.00
    8   10   23     -2.17      0.00
   10   10   23      4.75      0.00
    1   11   23      7.51      0.00
    3   11   23      1.29      0.00
    5   11   23     14.41      0.00
    7   11   23     -8.61      0.00
    9   11   23      1.54      0.00
   11   11   23      5.64      0.00
    2   12   23      6.29      0.00
    4   12   23     -0.63      0.00
    6   12   23     -4.22      0.00
    8   12   23      6.47      0.00
   10   12   23     -7.25      0.00
    1   13   23      5.16      0.00
    3   13   23      4.82      0.00
    5   13   23    -11.59      0.00
    7   13   23     12.09      0.00
    9   13   23     -1.55      0.00
    2   14   23    -11.65      0.00
    4   14   23     14.68      0.00
    6   14   23     -7.59      0.00
    8   14   23     -2.07      0.00
    1   15   23      4.98      0.00
    3   15   23     -1.61      0.00
    5   15   23     -9.91      0.00
    7   15   23     13.40      0.00
    2   16   23     -0.82      0.00
    4   16   23      8.43      0.00
    6   16   23     -0.05      0.00
    1   17   23     -2.97      0.00
    3   17   23      3.68      0.00
    5   17   23      3.17      0.00
    2   18   23      2.21      0.00
    4   18   23     -8.16      0.00
    0    0   24     -3.06      0.00
    2    0   24      1.29      0.00
    4    0   24     -1.68      0.00
    6    0   24     -7.49      0.00
    8    0   24     -0.74      0.00
   10    0   24      1.79      0.00
   12    0   24     -0.45      0.00
    1    1   24     -5.02      0.00
    3    1   24      1.84      0.00
    5    1   24      3.78      0.00
    7    1   24     -0.46      0.00
    9    1   24      7.53      0.00
   11    1   24     -5.63      0.00
    0    2   24      2.70      0.00
    2    2   24     -5.77      0.00
    4    2   24      0.75      0.00
    6    2   24      4.90      0.00
    8    2   24      3.90      0.00
   10    2   24     -0.85      0.00
   12    2   24     -0.23      0.00
    1    3   24      2.73      0.00
    3    3   24      2.56      0.00
    5    3   24     -1.97      0.00
    7    3   24      1.70      0.00
    9    3   24    -12.32      0.00
   11    3   24      3.67      0.00
    0    4   24      3.67      0.00
    2    4   24     11.34      0.00
    4    4   24     -2.69      0.00
    6    4   24     -5.56      0.00
    8    4   24     -4.52      0.00
   10    4   24      3.15      0.00
   12    4   24      0.29      0.00
    1    5   24     -4.90      0.00
    3    5   24     -4.31      0.00
    5    5   24     -2.78      0.00
    7    5   24     -0.48      0.00
    9    5   24      2.39      0.00
   11    5   24     -4.19      0.00
    0    6   24     -3.23      0.00
    2    6   24      3.60      0.00
    4    6   24      0.32      0.00
    6    6   24     -2.02      0.00
    8    6   24     -3.39      0.00
   10    6   24     -4.06      0.00
   12    6   24      2.52      0.00
    1    7   24     -1.07      0.00
    3    7   24      5.02      0.00
    5    7   24     -2.99      0.00
    7    7   24     -5.91      0.00
    9    7   24      9.04      0.00
   11    7   24      4.31      0.00
    0    8   24     -4.72      0.00
    2    8   24      6.73      0.00
    4    8   24      2.51      0.00
    6    8   24      2.10      0.00
    8    8   24      3.40      0.00
   10    8   24     -0.08      0.00
    1    9   24     -1.68      0.00
    3    9   24     -4.09      0.00
    5    9   24     11.19      0.00
    7    9   24     12.18      0.00
    9    9   24     -9.40      0.00
   11    9   24      3.70      0.00
    0   10   24      2.49      0.00
    2   10   24      9.14      0.00
    4   10   24     -0.91      0.00
    6   10   24      4.90      0.00
    8   10   24     -5.56      0.00
   10   10   24      8.98      0.00
    1   11   24      0.95      0.00
    3   11   24      7.75      0.00
    5   11   24     -1.53      0.00
    7   11   24    -12.62      0.00
    9   11   24      6.48      0.00
    0   12   24      2.47      0.00
    2   12   24     -5.22      0.00
    4   12   24     -7.72      0.00
    6   12   24      6.77      0.00
    8   12   24     -3.44      0.00
    1   13   24     -9.47      0.00
    3   13   24     -3.95      0.00
    5   13   24      5.13      0.00
    7   13   24     -0.53      0.00
    0   14   24     -0.49      0.00
    2   14   24      1.49      0.00
    4   14   24     -0.87      0.00
    6   14   24     -1.61      0.00
    8   14   24      1.79      0.00
    1   15   24     -0.21      0.00
    3   15   24     -0.14      0.00
    5   15   24     -6.51      0.00
    7   15   24     10.61      0.00
    0   16   24      2.08      0.00
    2   16   24     -5.18      0.00
    4   16   24     -2.33      0.00
    1   17   24      5.48      0.00
    3   17   24    -10.45      0.00
    1    1   25      4.62      0.00
    3    1   25     -2.09      0.00
    5    1   25      2.36      0.00
    7    1   25     10.68      0.00
    9    1   25     -8.89      0.00
   11    1   25     -2.07      0.00
    2    2   25      2.26      0.00
    4    2   25     -5.05      0.00
    6    2   25     -4.15      0.00
    8    2   25      1.97      0.00
   10    2   25    -12.37      0.00
   12    2   25     -0.17      0.00
    1    3   25      0.00      0.00
    3    3   25      9.00      0.00
    5    3   25     -5.38      0.00
    7    3   25     -7.05      0.00
    9    3   25     -0.71      0.00
   11    3   25     -0.52      0.00
    2    4   25     -0.24      0.00
    4    4   25     -6.61      0.00
    6    4   25      2.89      0.00
    8    4   25     -1.10      0.00
   10    4   25      2.96      0.00
    1    5   25     -4.06      0.00
    3    5   25     -0.20      0.00
    5    5   25      5.27      0.00
    7    5   25      1.74      0.00
    9    5   25      0.03      0.00
   11    5   25     -2.76      0.00
    2    6   25     -3.55      0.00
    4    6   25      7.24      0.00
    6    6   25      0.46      0.00
    8    6   25     -1.68      0.00
   10    6   25      9.36      0.00
    1    7   25     -1.22      0.00
    3    7   25      1.69      0.00
    5    7   25      2.03      0.00
    7    7   25      4.09      0.00
    9    7   25      7.00      0.00
   11    7   25     -4.70      0.00
    2    8   25     -6.48      0.00
    4    8   25      2.09      0.00
    6    8   25      6.53      0.00
    8    8   25      7.30      0.00
   10    8   25    -12.22      0.00
    1    9   25     -3.86      0.00
    3    9   25      0.71      0.00
    5    9   25      6.27      0.00
    7    9   25     -9.38      0.00
    9    9   25      3.91      0.00
    2   10   25     -5.20      0.00
    4   10   25      9.53      0.00
    6   10   25    -16.80      0.00
    8   10   25     -5.68      0.00
    1   11   25     -3.00      0.00
    3   11   25    -10.39      0.00
    5   11   25      5.61      0.00
    7   11   25     -6.48      0.00
    9   11   25     -3.59      0.00
    2   12   25     -8.01      0.00
    4   12   25     -6.89      0.00
    6   12   25      7.76      0.00
    8   12   25     -2.45      0.00
    1   13   25     -2.16      0.00
    3   13   25      8.13      0.00
    5   13   25    -12.89      0.00
    7   13   25     11.05      0.00
    2   14   25    -13.16      0.00
    4   14   25      6.73      0.00
    6   14   25     -0.82      0.00
    1   15   25      0.93      0.00
    3   15   25     -2.60      0.00
    5   15   25     -8.08      0.00
    2   16   25     -8.24      0.00
    0    0   26      0.08      0.00
    2    0   26     -1.42      0.00
    4    0   26      4.25      0.00
    6    0   26      0.57      0.00
    8    0   26     -4.42      0.00
   10    0   26    -11.62      0.00
    1    1   26     -5.41      0.00
    3    1   26     -2.00      0.00
    5    1   26     -7.69      0.00
    7    1   26      0.53      0.00
    9    1   26     -3.52      0.00
   11    1   26     -6.49      0.00
    0    2   26     -4.34      0.00
    2    2   26      1.52      0.00
    4    2   26      4.36      0.00
    6    2   26     -4.22      0.00
    8    2   26      2.76      0.00
   10    2   26      5.21      0.00
    1    3   26     -2.38      0.00
    3    3   26     -0.87      0.00
    5    3   26      3.34      0.00
    7    3   26      0.20      0.00
    9    3   26     -0.32      0.00
   11    3   26     16.95      0.00
    0    4   26     -9.72      0.00
    2    4   26      1.45      0.00
    4    4   26     -6.07      0.00
    6    4   26      4.95      0.00
    8    4   26      0.20      0.00
   10    4   26      4.96      0.00
    1    5   26     -3.81      0.00
    3    5   26     -3.10      0.00
    5    5   26      2.32      0.00
    7    5   26      0.92      0.00
    9    5   26      3.59      0.00
    0    6   26     -0.20      0.00
    2    6   26      3.04      0.00
    4    6   26     -1.07      0.00
    6    6   26      3.97      0.00
    8    6   26      4.71      0.00
   10    6   26     -3.25      0.00
    1    7   26      7.03      0.00
    3    7   26     -1.14      0.00
    5    7   26     -0.90      0.00
    7    7   26      3.55      0.00
    9    7   26     -7.13      0.00
    0    8   26     -4.22      0.00
    2    8   26     -5.36      0.00
    4    8   26      3.52      0.00
    6    8   26    -11.55      0.00
    8    8   26     -0.95      0.00
    1    9   26      0.05      0.00
    3    9   26     -7.50      0.00
    5    9   26     -1.66      0.00
    7    9   26    -13.47      0.00
    9    9   26      7.22      0.00
    0   10   26      4.48      0.00
    2   10   26      2.36      0.00
    4   10   26     -4.70      0.00
    6   10   26      0.84      0.00
    8   10   26     -3.72      0.00
    1   11   26      6.52      0.00
    3   11   26    -10.31      0.00
    5   11   26      6.50      0.00
    7   11   26      2.23      0.00
    0   12   26     -6.50      0.00
    2   12   26      6.09      0.00
    4   12   26     -2.92      0.00
    6   12   26      5.97      0.00
    1   13   26    -13.32      0.00
    3   13   26      2.40      0.00
    5   13   26      2.57      0.00
    0   14   26      4.54      0.00
    2   14   26     -3.98      0.00
    4   14   26     -0.40      0.00
    1   15   26     -3.24      0.00
    1    1   27      2.40      0.00
    3    1   27    -11.39      0.00
    5    1   27      1.46      0.00
    7    1   27      8.49      0.00
    9    1   27     10.70      0.00
    2    2   27      0.79      0.00
    4    2   27      7.36      0.00
    6    2   27      1.60      0.00
    8    2   27      1.11      0.00
   10    2   27      7.05      0.00
    1    3   27      1.98      0.00
    3    3   27      3.98      0.00
    5    3   27     -2.71      0.00
    7    3   27     -0.58      0.00
    9    3   27     -3.06      0.00
    2    4   27      5.01      0.00
    4    4   27     -6.38      0.00
    6    4   27      2.94      0.00
    8    4   27      3.24      0.00
    1    5   27      3.88      0.00
    3    5   27     -5.55      0.00
    5    5   27      4.43      0.00
    7    5   27     -0.35      0.00
    9    5   27     -1.17      0.00
    2    6   27      9.02      0.00
    4    6   27     -0.14      0.00
    6    6   27      2.72      0.00
    8    6   27     -8.70      0.00
    1    7   27     -2.61      0.00
    3    7   27      2.80      0.00
    5    7   27     -6.67      0.00
    7    7   27     -5.32      0.00
    2    8   27    -10.07      0.00
    4    8   27      6.03      0.00
    6    8   27    -16.65      0.00
    8    8   27     14.96      0.00
    1    9   27     -1.40      0.00
    3    9   27     11.58      0.00
    5    9   27      1.59      0.00
    7    9   27      0.76      0.00
    2   10   27      5.18      0.00
    4   10   27      6.54      0.00
    6   10   27      1.12      0.00
    1   11   27     -7.13      0.00
    3   11   27      1.85      0.00
    5   11   27      2.93      0.00
    2   12   27     -6.10      0.00
    4   12   27      1.67      0.00
    1   13   27     -1.85      0.00
    3   13   27      6.20      0.00
    0    0   28      8.21      0.00
    2    0   28     -6.42      0.00
    4    0   28     -1.00      0.00
    6    0   28      5.78      0.00
    8    0   28     15.87      0.00
    1    1   28      4.64      0.00
    3    1   28      4.80      0.00
    5    1   28      2.36      0.00
    7    1   28      1.53      0.00
    0    2   28    -11.22      0.00
    2    2   28      9.83      0.00
    4    2   28      2.80      0.00
    6    2   28     -5.91      0.00
    8    2   28    -11.31      0.00
    1    3   28      1.54      0.00
    3    3   28      0.96      0.00
    5    3   28     -3.87      0.00
    7    3   28      3.73      0.00
    0    4   28      3.46      0.00
    2    4   28     -4.82      0.00
    4    4   28     -0.56      0.00
    6    4   28      2.19      0.00
    8    4   28      0.27      0.00
    1    5   28      5.86      0.00
    3    5   28     -4.65      0.00
    5    5   28      6.13      0.00
    7    5   28     -2.14      0.00
    0    6   28    -12.45      0.00
    2    6   28      2.23      0.00
    4    6   28     -1.62      0.00
    6    6   28     -2.87      0.00
    1    7   28     -6.72      0.00
    3    7   28      1.91      0.00
    5    7   28     -3.08      0.00
    7    7   28      0.63      0.00
    0    8   28      1.90      0.00
    2    8   28     -4.55      0.00
    4    8   28     12.69      0.00
    6    8   28     -1.17      0.00
    1    9   28      5.19      0.00
    3    9   28     -2.30      0.00
    5    9   28      6.66      0.00
    0   10   28      4.97      0.00
    2   10   28    -14.30      0.00
    4   10   28      0.32      0.00
    1   11   28      0.80      0.00
    3   11   28     -8.41      0.00
    0   12   28     -8.25      0.00
    2   12   28      5.27      0.00
    1    1   29      1.43      0.00
    3    1   29      1.18      0.00
    5    1   29      2.17      0.00
    7    1   29     -8.42      0.00
    2    2   29    -10.41      0.00
    4    2   29      3.55      0.00
    6    2   29      1.08      0.00
    1    3   29     -2.51      0.00
    3    3   29     -9.53      0.00
    5    3   29     -0.37      0.00
    7    3   29      4.08      0.00
    2    4   29     -4.82      0.00
    4    4   29     -4.52      0.00
    6    4   29      0.54      0.00
    1    5   29     -0.34      0.00
    3    5   29     -0.54      0.00
    5    5   29      2.03      0.00
    2    6   29      0.74      0.00
    4    6   29      3.18      0.00
    6    6   29      0.91      0.00
    1    7   29      1.43      0.00
    3    7   29     -0.22      0.00
    5    7   29     -0.41      0.00
    2    8   29     -3.60      0.00
    4    8   29     -3.64      0.00
    1    9   29     -1.87      0.00
    3    9   29     -1.59      0.00
    2   10   29     10.17      0.00
    0    0   30      2.21      0.00
    2    0   30     -4.74      0.00
    4    0   30     -0.01      0.00
    1    1   30     -2.20      0.00
    3    1   30     -3.66      0.00
    5    1   30      1.89      0.00
    0    2   30     -0.69      0.00
    2    2   30     -2.69      0.00
    4    2   30     -1.71      0.00
    1    3   30      4.68      0.00
    3    3   30     -1.25      0.00
    5    3   30     -8.74      0.00
    0    4   30      7.33      0.00
    2    4   30     -2.19      0.00
    4    4   30      5.78      0.00
    1    5   30      6.54      0.00
    3    5   30      3.53      0.00
    0    6   30     -0.32      0.00
    2    6   30      6.87      0.00
    1    7   30     -4.84      0.00
    1    1   31     -1.85      0.00
    2    2   31      0.25      0.00
    1    3   31      3.10      0.00
    2    0    0   -180.04      0.00
    4    0    2     31.61      0.00
    0    0    0      0.00      0.00
# SQUEEZE RESULTS (Version =  30715)
# Note: Data are Listed for all Voids in the P1 Unit Cell
# i.e. Centre of Gravity, Solvent Accessible Volume,
# Recovered number of Electrons in the Void and
# Details about the Squeezed Material
loop_
  _platon_squeeze_void_nr
  _platon_squeeze_void_average_x
  _platon_squeeze_void_average_y
  _platon_squeeze_void_average_z
  _platon_squeeze_void_volume
  _platon_squeeze_void_count_electrons
  _platon_squeeze_void_content
   1  0.037  0.105  0.220      3404       945 ' '
   2  0.000  0.250  0.750        12        -1 ' '
   3  0.000  0.750  0.250        12        -1 ' '
   4  0.500  0.250  0.250        12        -1 ' '
   5  0.500  0.750  0.750        12        -1 ' '
# Missing Reflections Below sin(th)/lambda = 0.25
loop_
  _platon_missing_refln_index_h
  _platon_missing_refln_index_k
  _platon_missing_refln_index_l
  _platon_missing_refln_theta
    2    0    0     2.705
    4    0    2     5.688
_platon_squeeze_void_probe_radius                  1.20
_platon_squeeze_details
)
TITL In12_0m in Ccca
CELL   15.0622   20.9202   23.4817     90.00     90.00     90.00
SPGR Ccca
# Solvent Accessible Volume =    3513.0
# Electrons Found in S.A.V. =     943.2
# Note: Atoms in Void as Cxxx and Qxxx all others
C101 0.138 0.217 0.339 !       2.09 eA-3
C102 1.000 0.141 0.249 !       1.97 eA-3
C103 0.018 0.112 0.209 !       1.86 eA-3
C104 0.879 0.219 0.197 !       1.80 eA-3
C105 0.972 0.137 0.276 !       1.77 eA-3
C106 1.000 0.406 0.246 !       1.77 eA-3
C107 0.062 0.112 0.199 !       1.71 eA-3
C108 0.795 0.187 0.045 !       1.55 eA-3
C109 0.845 0.223 0.105 !       1.47 eA-3
C110 0.156 0.315 0.391 !       1.45 eA-3
C111 0.730 0.076 0.444 !       1.44 eA-3
C112 0.771 0.434 0.086 !       1.39 eA-3
C113 0.840 0.283 0.073 !       1.37 eA-3
C114 0.855 0.216 0.397 !       1.31 eA-3
C115 0.234 0.389 0.429 !       1.30 eA-3
C116 0.237 0.491 0.398 !       1.29 eA-3
C117 0.900 0.231 0.412 !       1.27 eA-3
C118 0.236 0.502 0.434 !       1.22 eA-3
C119 0.173 0.217 0.431 !       1.21 eA-3
C120 0.673 0.280 0.928 !       1.21 eA-3
C121 0.746 0.126 0.457 !       1.16 eA-3
C122 0.202 0.452 0.382 !       1.15 eA-3
C123 0.070 0.312 0.206 !       1.15 eA-3
C124 0.185 0.296 0.458 !       1.12 eA-3
C125 0.038 0.344 0.218 !       1.12 eA-3
C126 0.727 0.027 0.436 !       1.12 eA-3
C127 0.213 0.298 0.440 !       1.11 eA-3
C128 0.175 0.441 0.358 !       1.11 eA-3
C129 0.268 0.091 0.108 !       1.10 eA-3
C130 0.028 0.326 0.238 !       1.08 eA-3
Q131 0.286 0.504 0.141 !       1.07 eA-3
C132 0.077 0.222 0.055 !       1.04 eA-3
C133 0.200 0.268 0.452 !       1.04 eA-3
C134 0.010 0.346 0.188 !       1.03 eA-3
C135 0.824 0.216 0.033 !       1.01 eA-3
C136 0.784 0.222 0.065 !       1.01 eA-3
Q137 0.549 0.390 0.196 !       1.01 eA-3
C138 0.144 0.263 0.449 !       1.00 eA-3
C139 0.216 0.326 0.453 !       0.99 eA-3
C140 0.284 0.174 0.547 !       0.99 eA-3
C141 1.000 0.251 0.172 !       0.98 eA-3
C142 0.168 0.402 0.367 !       0.96 eA-3
C143 0.009 0.372 0.186 !       0.95 eA-3
C144 0.769 0.300 0.018 !       0.95 eA-3
C145 0.080 0.279 0.116 !       0.94 eA-3
C146 0.892 0.332 0.278 !       0.94 eA-3
C147 0.738 0.152 0.982 !       0.93 eA-3
C148 0.797 0.154 0.026 !       0.92 eA-3
C149 0.229 0.185 0.489 !       0.91 eA-3
C150 0.036 0.254 0.136 !       0.91 eA-3
C151 0.310 0.096 0.041 !       0.90 eA-3
C152 0.140 0.330 0.349 !       0.89 eA-3
Q153 0.066 0.378 0.193 !       0.87 eA-3
Q154 0.035 0.140 0.162 !       0.87 eA-3
C155 0.887 0.066 0.326 !       0.86 eA-3
C156 0.908 0.316 0.264 !       0.84 eA-3
Q157 0.859 0.170 0.026 !       0.84 eA-3
Q158 0.031 0.076 0.313 !       0.84 eA-3
Q159 0.765 0.280 0.101 !       0.83 eA-3
C160 0.296 0.142 0.020 !       0.83 eA-3
Q161 0.020 0.205 0.129 !       0.82 eA-3
Q162 0.297 0.088 0.288 !       0.82 eA-3
Q163 0.026 0.315 0.109 !       0.81 eA-3
Q164 0.031 0.377 0.033 !       0.81 eA-3
C165 0.969 0.299 0.331 !       0.81 eA-3
Q166 0.667 0.234 0.002 !       0.81 eA-3
C167 0.826 0.392 0.074 !       0.80 eA-3
C168 0.231 0.267 0.011 !       0.80 eA-3
C169 0.905 0.155 0.327 !       0.80 eA-3
C170 0.933 0.224 0.336 !       0.80 eA-3
C171 0.906 0.201 0.370 !       0.80 eA-3
C172 0.406 0.295 0.880 !       0.80 eA-3
C173 0.013 0.267 0.102 !       0.79 eA-3
C174 0.863 0.281 0.268 !       0.77 eA-3
Q175 0.144 0.204 0.496 !       0.77 eA-3
Q176 0.092 0.326 0.436 !       0.76 eA-3
C177 0.323 0.063 0.038 !       0.76 eA-3
Q178 0.202 0.323 0.364 !       0.75 eA-3
Q179 0.672 0.016 0.481 !       0.75 eA-3
C180 0.888 0.233 0.252 !       0.75 eA-3
Q181 1.000 0.065 0.316 !       0.74 eA-3
C182 0.704 0.048 0.494 !       0.74 eA-3
Q183 0.220 0.374 0.340 !       0.74 eA-3
C184 0.777 0.171 0.131 !       0.74 eA-3
C185 0.791 0.453 0.033 !       0.74 eA-3
C186 0.107 0.185 0.173 !       0.73 eA-3
Q187 0.261 0.206 0.144 !       0.73 eA-3
Q188 0.358 0.232 0.021 !       0.73 eA-3
Q189 0.543 0.266 0.107 !       0.73 eA-3
Q190 0.823 0.160 0.159 !       0.73 eA-3
Q191 0.345 0.127 0.004 !       0.73 eA-3
C192 0.265 0.014 0.026 !       0.72 eA-3
Q193 0.014 0.358 0.140 !       0.72 eA-3
Q194 0.390 0.432 0.038 !       0.72 eA-3
Q195 0.357 0.450 0.213 !       0.72 eA-3
C196 0.015 0.236 0.083 !       0.71 eA-3
Q197 0.640 0.441 0.358 !       0.71 eA-3
Q198 0.358 0.081 0.007 !       0.71 eA-3
C199 0.827 0.361 0.122 !       0.70 eA-3
)
;
_shelx_fab_checksum              74401
loop_
_space_group_symop_operation_xyz
'x, y, z'
'-x+1/2, -y, z'
'-x, y, -z+1/2'
'x+1/2, -y, -z+1/2'
'x+1/2, y+1/2, z'
'-x+1, -y+1/2, z'
'-x+1/2, y+1/2, -z+1/2'
'x+1, -y+1/2, -z+1/2'
'-x, -y, -z'
'x-1/2, y, -z'
'x, -y, z-1/2'
'-x-1/2, y, z-1/2'
'-x+1/2, -y+1/2, -z'
'x, y+1/2, -z'
'x+1/2, -y+1/2, z-1/2'
'-x, y+1/2, z-1/2'
loop_
_atom_site_label
_atom_site_type_symbol
_atom_site_fract_x
_atom_site_fract_y
_atom_site_fract_z
_atom_site_U_iso_or_equiv
_atom_site_adp_type
_atom_site_occupancy
_atom_site_site_symmetry_order
_atom_site_calc_flag
_atom_site_refinement_flags_posn
_atom_site_refinement_flags_adp
_atom_site_refinement_flags_occupancy
In1 In 0.2500 0.0000 0.33009(2) 0.04648(18) Uani 1 2 d S T P
S1 S 0.0000 -0.2500 0.08531(8) 0.0612(5) Uani 1 2 d S T P
O1 O 0.2439(2) -0.09584(18) 0.28148(15) 0.0682(10) Uani 1 1 d . . .
O2 O 0.1448(2) -0.02186(17) 0.26341(14) 0.0634(10) Uani 1 1 d . . .
O3 O -0.0665(3) -0.21413(16) 0.05504(14) 0.0783(12) Uani 1 1 d . . .
O4 O 0.3653(2) -0.05092(17) 0.37703(14) 0.0629(10) Uani 1 1 d . . .
O5 O 0.3314(2) 0.04772(16) 0.39682(14) 0.0601(9) Uani 1 1 d . . .
C1 C 0.1767(4) -0.0760(3) 0.2543(2) 0.0561(13) Uani 1 1 d . . .
C2 C 0.1348(3) -0.1195(2) 0.2119(2) 0.0537(13) Uani 1 1 d . . .
C3 C 0.1716(4) -0.1782(2) 0.1985(2) 0.0647(15) Uani 1 1 d . . .
H3B H 0.2239 -0.1909 0.2162 0.078 Uiso 1 1 calc R U .
C4 C 0.1323(4) -0.2175(2) 0.1600(2) 0.0668(15) Uani 1 1 d . . .
H4A H 0.1570 -0.2572 0.1518 0.080 Uiso 1 1 calc R U .
C5 C 0.0534(3) -0.1974(2) 0.13254(19) 0.0491(12) Uani 1 1 d . . .
C6 C 0.0161(3) -0.1395(2) 0.14555(19) 0.0547(13) Uani 1 1 d . . .
H6A H -0.0363 -0.1268 0.1279 0.066 Uiso 1 1 calc R U .
C7 C 0.0559(4) -0.1003(2) 0.1844(2) 0.0623(15) Uani 1 1 d . . .
H7A H 0.0309 -0.0607 0.1928 0.075 Uiso 1 1 calc R U .
C8 C 0.3765(3) -0.0016(3) 0.40697(19) 0.0516(12) Uani 1 1 d . . .
C9 C 0.4409(3) -0.0014(3) 0.45472(18) 0.0506(11) Uani 1 1 d . . .
C10 C 0.4882(4) -0.0570(2) 0.4694(2) 0.0608(14) Uani 1 1 d . . .
C11 C 0.4537(3) 0.0544(2) 0.4843(2) 0.0569(14) Uani 1 1 d . . .
H11A H 0.4232 0.0910 0.4734 0.068 Uiso 1 1 calc R U .
N1 N 0.4785(7) -0.1159(4) 0.4430(4) 0.089(3) Uani 0.5 1 d . . P
H1A H 0.5075 -0.1485 0.4553 0.107 Uiso 0.5 1 calc R U P
H1B H 0.4434 -0.1198 0.4143 0.107 Uiso 0.5 1 calc R U P
loop_
_atom_site_aniso_label
_atom_site_aniso_U_11
_atom_site_aniso_U_22
_atom_site_aniso_U_33
_atom_site_aniso_U_23
_atom_site_aniso_U_13
_atom_site_aniso_U_12
In1 0.0426(3) 0.0567(3) 0.0402(3) 0.000 0.000 -0.0020(3)
S1 0.0857(15) 0.0526(10) 0.0452(11) 0.000 0.000 -0.0187(11)
O1 0.060(2) 0.085(2) 0.060(2) -0.0109(19) -0.012(2) -0.007(2)
O2 0.071(2) 0.062(2) 0.057(2) -0.0113(19) -0.011(2) -0.0019(18)
O3 0.114(3) 0.068(2) 0.053(2) 0.008(2) -0.020(2) -0.022(2)
O4 0.062(2) 0.075(2) 0.051(2) -0.006(2) -0.0157(19) -0.0008(19)
O5 0.064(2) 0.054(2) 0.062(2) 0.0041(18) -0.021(2) -0.0011(18)
C1 0.058(3) 0.073(4) 0.037(3) 0.004(3) 0.003(3) -0.021(3)
C2 0.050(3) 0.065(3) 0.046(3) -0.003(3) 0.000(3) -0.006(3)
C3 0.055(3) 0.069(4) 0.070(4) -0.007(3) -0.018(3) 0.007(3)
C4 0.081(4) 0.046(3) 0.074(4) -0.014(3) 0.000(3) 0.002(3)
C5 0.053(3) 0.051(3) 0.043(3) -0.001(2) 0.004(2) -0.008(2)
C6 0.062(3) 0.063(3) 0.040(3) -0.004(3) -0.015(3) -0.003(3)
C7 0.067(4) 0.051(3) 0.068(4) -0.006(3) 0.002(3) 0.000(3)
C8 0.051(3) 0.063(3) 0.040(3) 0.000(3) -0.001(2) -0.015(3)
C9 0.051(3) 0.062(3) 0.039(3) 0.011(3) -0.009(2) -0.004(3)
C10 0.068(4) 0.060(3) 0.055(4) -0.007(3) -0.011(3) -0.002(3)
C11 0.068(4) 0.055(3) 0.048(3) -0.007(3) -0.012(3) 0.001(3)
N1 0.125(9) 0.061(6) 0.083(7) -0.015(5) -0.048(7) 0.007(6)
loop_
_atom_type_symbol
_atom_type_description
_atom_type_scat_dispersion_real
_atom_type_scat_dispersion_imag
_atom_type_scat_source
C C 0.0033 0.0016 'International Tables Vol C Tables 4.2.6.8 and 6.1.1.4'
H H 0.0000 0.0000 'International Tables Vol C Tables 4.2.6.8 and 6.1.1.4'
O O 0.0106 0.0060 'International Tables Vol C Tables 4.2.6.8 and 6.1.1.4'
S S 0.1246 0.1234 'International Tables Vol C Tables 4.2.6.8 and 6.1.1.4'
In In -0.7276 1.3100 'International Tables Vol C Tables 4.2.6.8 and 6.1.1.4'
N N 0.0061 0.0033 'International Tables Vol C Tables 4.2.6.8 and 6.1.1.4'
loop_
_geom_angle_atom_site_label_1
_geom_angle_atom_site_label_2
_geom_angle_atom_site_label_3
_geom_angle
_geom_angle_site_symmetry_1
_geom_angle_site_symmetry_3
O5 In1 O5 90.51(18) 2 .
O5 In1 O2 90.61(13) 2 .
O5 In1 O2 163.45(13) . .
O5 In1 O2 163.45(13) 2 2
O5 In1 O2 90.61(13) . 2
O2 In1 O2 92.99(18) . 2
O5 In1 O1 139.40(13) 2 2
O5 In1 O1 86.38(12) . 2
O2 In1 O1 82.06(13) . 2
O2 In1 O1 57.15(12) 2 2
O5 In1 O1 86.38(12) 2 .
O5 In1 O1 139.39(13) . .
O2 In1 O1 57.15(12) . .
O2 In1 O1 82.06(13) 2 .
O1 In1 O1 120.75(18) 2 .
O5 In1 O4 82.64(13) 2 .
O5 In1 O4 57.20(12) . .
O2 In1 O4 139.26(13) . .
O2 In1 O4 84.11(13) 2 .
O1 In1 O4 127.22(13) 2 .
O1 In1 O4 82.28(13) . .
O5 In1 O4 57.20(12) 2 2
O5 In1 O4 82.63(13) . 2
O2 In1 O4 84.11(13) . 2
O2 In1 O4 139.26(13) 2 2
O1 In1 O4 82.28(13) 2 2
O1 In1 O4 127.22(13) . 2
O4 In1 O4 123.18(17) . 2
O3 S1 O3 120.8(3) . 6_445
O3 S1 C5 107.7(2) . .
O3 S1 C5 108.6(2) 6_445 .
O3 S1 C5 108.6(2) . 6_445
O3 S1 C5 107.7(2) 6_445 6_445
C5 S1 C5 101.8(3) . 6_445
C1 O1 In1 89.8(3) . .
C1 O2 In1 91.8(3) . .
C8 O4 In1 89.4(3) . .
C8 O5 In1 93.6(3) . .
O2 C1 O1 121.3(5) . .
O2 C1 C2 120.3(5) . .
O1 C1 C2 118.4(5) . .
C3 C2 C7 119.2(5) . .
C3 C2 C1 121.6(5) . .
C7 C2 C1 119.2(5) . .
C4 C3 C2 120.9(5) . .
C4 C3 H3B 119.6 . .
C2 C3 H3B 119.6 . .
C3 C4 C5 119.3(5) . .
C3 C4 H4A 120.3 . .
C5 C4 H4A 120.3 . .
C6 C5 C4 120.3(4) . .
C6 C5 S1 120.5(4) . .
C4 C5 S1 119.1(4) . .
C7 C6 C5 120.0(5) . .
C7 C6 H6A 120.0 . .
C5 C6 H6A 120.0 . .
C6 C7 C2 120.2(5) . .
C6 C7 H7A 119.9 . .
C2 C7 H7A 119.9 . .
O5 C8 O4 119.6(4) . .
O5 C8 C9 119.7(5) . .
O4 C8 C9 120.7(5) . .
C11 C9 C10 120.5(4) . .
C11 C9 C8 118.4(5) . .
C10 C9 C8 121.0(5) . .
N1 C10 C11 116.7(6) . 9_656
N1 C10 C9 124.8(6) . .
C11 C10 C9 118.4(4) 9_656 .
C9 C11 C10 121.1(5) . 9_656
C9 C11 H11A 119.5 . .
C10 C11 H11A 119.5 9_656 .
C10 N1 H1A 120.0 . .
C10 N1 H1B 120.0 . .
H1A N1 H1B 120.0 . .
loop_
_geom_bond_atom_site_label_1
_geom_bond_atom_site_label_2
_geom_bond_distance
_geom_bond_site_symmetry_2
In1 O5 2.226(3) 2
In1 O5 2.226(3) .
In1 O2 2.275(3) .
In1 O2 2.275(3) 2
In1 O1 2.309(3) 2
In1 O1 2.309(3) .
In1 O4 2.317(3) .
In1 O4 2.317(3) 2
S1 O3 1.440(4) .
S1 O3 1.440(4) 6_445
S1 C5 1.758(5) .
S1 C5 1.758(5) 6_445
O1 C1 1.267(6) .
O2 C1 1.249(6) .
O4 C8 1.260(5) .
O5 C8 1.258(5) .
C1 C2 1.491(6) .
C2 C3 1.383(6) .
C2 C7 1.411(7) .
C3 C4 1.357(7) .
C3 H3B 0.9300 .
C4 C5 1.417(7) .
C4 H4A 0.9300 .
C5 C6 1.370(6) .
C6 C7 1.365(6) .
C6 H6A 0.9300 .
C7 H7A 0.9300 .
C8 C9 1.483(6) .
C9 C11 1.372(6) .
C9 C10 1.407(6) .
C10 N1 1.387(8) .
C10 C11 1.396(6) 9_656
C11 C10 1.396(6) 9_656
C11 H11A 0.9300 .
N1 H1A 0.8600 .
N1 H1B 0.8600 .
