#------------------------------------------------------------------------------
#$Date: 2020-03-05 02:13:51 +0200 (Thu, 05 Mar 2020) $
#$Revision: 248965 $
#$URL: file:///home/coder/svn-repositories/cod/cif/7/70/32/7703287.cif $
#------------------------------------------------------------------------------
#
# This file is available in the Crystallography Open Database (COD),
# http://www.crystallography.net/
#
# All data on this site have been placed in the public domain by the
# contributors.
#
data_7703287
loop_
_publ_author_name
'Zhang, Rui'
'Meng, De-Xian'
'Ge, Fa-Yuan'
'Huang, Jv-Hua'
'Wang, Li-Fei'
'Xv, Yong-Kai'
'Liu, Xing-Gui'
'Meng, Mei-Mei'
'Yan, Hong'
'Lu, Zhen-Zhong'
'Zheng, He-Gen'
'Huang, Wei'
_publ_section_title
;
 Tetrazole-based porous metal-organic frameworks for selective
 CO<sub>2</sub> adsorption and isomerization studies.
;
_journal_issue                   7
_journal_name_full
'Dalton transactions (Cambridge, England : 2003)'
_journal_page_first              2145
_journal_page_last               2150
_journal_paper_doi               10.1039/c9dt04068d
_journal_volume                  49
_journal_year                    2020
_chemical_formula_moiety
'4(C16 H16 Cl1.25 Cu3 N12 O4), 10(C2 H3 N), 11(Cl), 8(H0.25 O0.125), 7[C2 H3 N]'
_chemical_formula_sum            'C98 H117 Cl16 Cu12 N65 O17'
_chemical_formula_weight         3807.24
_space_group_crystal_system      cubic
_space_group_IT_number           226
_space_group_name_Hall           '-F 4a 2 3'
_space_group_name_H-M_alt        'F m -3 c'
_atom_sites_solution_hydrogens   mixed
_audit_creation_method           SHELXL-2018/3
_audit_update_record
;
2019-12-23 deposited with the CCDC.	2020-01-13 downloaded from the CCDC.
;
_cell_angle_alpha                90
_cell_angle_beta                 90
_cell_angle_gamma                90
_cell_formula_units_Z            24
_cell_length_a                   60.7581(3)
_cell_length_b                   60.7581(3)
_cell_length_c                   60.7581(3)
_cell_measurement_reflns_used    4640
_cell_measurement_temperature    291(2)
_cell_measurement_theta_max      25.047
_cell_measurement_theta_min      2.22
_cell_volume                     224291.4(19)
_computing_cell_refinement       SMART
_computing_data_collection       'SMART (Bruker, 2000)'
_computing_data_reduction        'SAINT (Bruker, 2000)'
_computing_molecular_graphics    'Bruker SHELXTL'
_computing_publication_material  'Bruker SHELXTL'
_computing_structure_refinement  'SHELXL-2018/3 (Sheldrick, 2018)'
_computing_structure_solution    'SHELXS-2018/3 (Sheldrick, 2018)'
_diffrn_ambient_temperature      291(2)
_diffrn_measured_fraction_theta_full 0.999
_diffrn_measured_fraction_theta_max 0.999
_diffrn_measurement_device_type  'Bruker D8 diffractometer'
_diffrn_measurement_method       'omega rotation'
_diffrn_radiation_type           MoK\a
_diffrn_radiation_wavelength     0.71073
_diffrn_reflns_av_R_equivalents  0.0980
_diffrn_reflns_av_unetI/netI     0.0415
_diffrn_reflns_Laue_measured_fraction_full 0.999
_diffrn_reflns_Laue_measured_fraction_max 0.999
_diffrn_reflns_limit_h_max       73
_diffrn_reflns_limit_h_min       -66
_diffrn_reflns_limit_k_max       71
_diffrn_reflns_limit_k_min       -73
_diffrn_reflns_limit_l_max       72
_diffrn_reflns_limit_l_min       -73
_diffrn_reflns_number            321969
_diffrn_reflns_point_group_measured_fraction_full 0.999
_diffrn_reflns_point_group_measured_fraction_max 0.999
_diffrn_reflns_theta_full        25.242
_diffrn_reflns_theta_max         25.344
_diffrn_reflns_theta_min         1.896
_diffrn_source                   'fine-focus sealed tube'
_exptl_absorpt_coefficient_mu    0.814
_exptl_absorpt_correction_T_max  0.84
_exptl_absorpt_correction_T_min  0.84
_exptl_absorpt_correction_type   multi-scan
_exptl_absorpt_process_details   'SADABS; Bruker, 2008'
_exptl_crystal_colour            'dark green'
_exptl_crystal_density_diffrn    0.676
_exptl_crystal_density_method    'not measured'
_exptl_crystal_description       Octahedron-shaped
_exptl_crystal_F_000             45984
_exptl_crystal_size_max          0.220
_exptl_crystal_size_mid          0.220
_exptl_crystal_size_min          0.220
_refine_diff_density_max         0.411
_refine_diff_density_min         -0.658
_refine_diff_density_rms         0.059
_refine_ls_extinction_method     none
_refine_ls_goodness_of_fit_ref   1.074
_refine_ls_hydrogen_treatment    constr
_refine_ls_matrix_type           full
_refine_ls_number_parameters     237
_refine_ls_number_reflns         8848
_refine_ls_number_restraints     0
_refine_ls_restrained_S_all      1.074
_refine_ls_R_factor_all          0.0444
_refine_ls_R_factor_gt           0.0392
_refine_ls_shift/su_max          0.003
_refine_ls_shift/su_mean         0.000
_refine_ls_structure_factor_coef Fsqd
_refine_ls_weighting_details
'w=1/[\s^2^(Fo^2^)+(0.05P)^2^] where P=(Fo^2^+2Fc^2^)/3'
_refine_ls_weighting_scheme      calc
_refine_ls_wR_factor_gt          0.0950
_refine_ls_wR_factor_ref         0.0954
_reflns_Friedel_coverage         0.000
_reflns_number_gt                6307
_reflns_number_total             8848
_reflns_threshold_expression     'I > 2\s(I)'
_cod_data_source_file            c9dt04068d2.cif
_cod_data_source_block           1
_cod_depositor_comments
'Adding full bibliography for 7703287--7703289.cif.'
_cod_original_cell_volume        224291(3)
_cod_original_sg_symbol_Hall     '-F 4c 2 3'
_cod_database_code               7703287
_shelx_shelxl_version_number     2018/3
_shelx_space_group_comment
;
The symmetry employed for this shelxl refinement is uniquely defined
by the following loop, which should always be used as a source of
symmetry information in preference to the above space-group names.
They are only intended as comments.
;
_shelx_estimated_absorpt_t_min   0.841
_shelx_estimated_absorpt_t_max   0.841
_shelx_res_file
;
TITL Fm-3c in Fm-3c
    91120a_sq.res
    created by SHELXL-2018/3 at 22:12:55 on 20-Dec-2019
CELL 0.71073  60.7581  60.7581  60.7581  90.000  90.000  90.000
ZERR      24   0.0003   0.0003   0.0003   0.000   0.000   0.000
LATT 4
SYMM -X, -Y, Z
SYMM -X, Y, -Z
SYMM X, -Y, -Z
SYMM Z, X, Y
SYMM Z, -X, -Y
SYMM -Z, -X, Y
SYMM -Z, X, -Y
SYMM Y, Z, X
SYMM -Y, Z, -X
SYMM Y, -Z, -X
SYMM -Y, -Z, X
SYMM 0.5+Y, 0.5+X, 0.5-Z
SYMM 0.5-Y, 0.5-X, 0.5-Z
SYMM 0.5+Y, 0.5-X, 0.5+Z
SYMM 0.5-Y, 0.5+X, 0.5+Z
SYMM 0.5+X, 0.5+Z, 0.5-Y
SYMM 0.5-X, 0.5+Z, 0.5+Y
SYMM 0.5-X, 0.5-Z, 0.5-Y
SYMM 0.5+X, 0.5-Z, 0.5+Y
SYMM 0.5+Z, 0.5+Y, 0.5-X
SYMM 0.5+Z, 0.5-Y, 0.5+X
SYMM 0.5-Z, 0.5+Y, 0.5+X
SYMM 0.5-Z, 0.5-Y, 0.5-X
SFAC C  H  N  O  Cl Cu
UNIT 2016 2304 1392 408 384 288
L.S. 17 0 55
omit   1   5   9
omit   1   7   9
ACTA
BOND $H
FMAP 2
PLAN 5
SIZE 0.22 0.22 0.22
CONF
ABIN
eadp o3w cl4
exyz  o3w cl4
FREE H1W1 H1W6
FREE H1W7 H1WZ
FREE H1W9 H1WX
FREE H1W3 H1W4
FREE H2W7 H2WY
FREE H2W3 H2W5
FREE H2W8 H2WX
FREE H2W2 H2W6
TEMP 18
WGHT    0.050000
FVAR       0.00599
C1    1    0.304665    0.950304    0.286151    11.00000    0.03205    0.02472 =
         0.03135   -0.00644   -0.01547    0.00798
C2    1    0.316807    0.931396    0.293905    11.00000    0.02975    0.03472 =
         0.02508    0.01349   -0.00665    0.00813
C3    1    0.309984    0.920557    0.312973    11.00000    0.02941    0.03168 =
         0.03114    0.01215    0.01179    0.01365
AFIX  43
H3    2    0.297651    0.925413    0.320629    11.00000   -1.20000
AFIX   0
C4    1    0.321868    0.902333    0.320454    11.00000    0.02693    0.02720 =
         0.03904    0.01309    0.01218    0.00749
AFIX  43
H4    2    0.317481    0.895119    0.333221    11.00000   -1.20000
AFIX   0
C5    1    0.339921    0.895031    0.309117    11.00000    0.03140    0.02851 =
         0.02913    0.01664    0.00882    0.00769
C6    1    0.346679    0.905511    0.289993    11.00000    0.02874    0.03682 =
         0.02750    0.01076    0.00807    0.01064
AFIX  43
H6    2    0.358900    0.900409    0.282319    11.00000   -1.20000
AFIX   0
C7    1    0.334993    0.923801    0.282330    11.00000    0.02791    0.03305 =
         0.03065    0.01287    0.00545    0.01142
AFIX  43
H7    2    0.339399    0.930873    0.269490    11.00000   -1.20000
AFIX   0
C8    1    0.350222    0.862862    0.332937    11.00000    0.02879    0.02793 =
         0.03198    0.01204    0.01070    0.00782
C9    1    0.250000    0.916178    0.250000    10.25000    0.02493    0.03005 =
         0.02493    0.00000    0.00000    0.00000
PART 1
AFIX   3
H9A   2    0.264490    0.911042    0.246540    10.12500   -1.50000
H9B   2    0.239760    0.911042    0.239180    10.12500   -1.50000
H9C   2    0.245750    0.911042    0.264280    10.12500   -1.50000
PART 2
H9D   2    0.258250    0.911042    0.262400    10.12500   -1.50000
H9E   2    0.256620    0.911042    0.236650    10.12500   -1.50000
H9F   2    0.235130    0.911042    0.250940    10.12500   -1.50000
PART 0
AFIX   0
C10   1    0.250000    0.939516    0.250000    10.25000    0.02660    0.03077 =
         0.02660    0.00000    0.00000    0.00000
C11   1    0.397277    0.876124    0.294010    11.00000    0.03070    0.03186 =
         0.03514    0.01441    0.00977    0.00927
AFIX 137
H11A  2    0.392765    0.866703    0.305865    11.00000   -1.50000
H11B  2    0.399074    0.890870    0.299392    11.00000   -1.50000
H11C  2    0.410997    0.870963    0.288111    11.00000   -1.50000
AFIX   0
C12   1    0.380962    0.875880    0.277197    11.00000    0.03061    0.04602 =
         0.02526    0.01314    0.01482    0.01946
CL1   5    0.331100    1.000000    0.233963    10.50000    0.03082    0.03320 =
         0.02803    0.00000    0.00902    0.00000
CL2   5    0.250000    1.000000    0.250000    10.12500    0.02843    0.02954 =
         0.02843    0.00000    0.00000    0.00000
CL3   5    0.322668    0.822668    0.250000    10.50000    0.03180    0.03180 =
         0.03267    0.01050   -0.01050   -0.01082
CL4   5    0.320448    0.886185    0.238888    10.87500    0.03658    0.03752 =
         0.03604    0.01083    0.01038    0.01018
O3W   4    0.320448    0.886185    0.238888    10.12500    0.03658    0.03752 =
         0.03604    0.01083    0.01038    0.01018
AFIX   3
H3WA  2    0.315028    0.888315    0.226168    10.12500   -1.50000
H3WB  2    0.334298    0.884475    0.237828    10.12500   -1.50000
AFIX   0
CU1   6    0.291092    1.000000    0.241797    10.50000    0.02836    0.02865 =
         0.02801    0.00000    0.01007    0.00000
CU2   6    0.326778    0.957578    0.234920    11.00000    0.03043    0.03149 =
         0.03160    0.00972    0.00997    0.00987
N1    3    0.308207    0.960463    0.266448    11.00000    0.02478    0.02843 =
         0.02914   -0.00872   -0.00596   -0.00089
N2    3    0.294064    0.977026    0.266574    11.00000    0.02355    0.02569 =
         0.02968    0.00185   -0.00454   -0.00384
N3    3    0.282068    0.976938    0.284235    11.00000    0.03205    0.03262 =
         0.02610   -0.01008   -0.00640    0.00844
N4    3    0.287888    0.960396    0.297463    11.00000    0.02247    0.02928 =
         0.02808    0.00567   -0.00576   -0.00330
N5    3    0.352784    0.876279    0.315687    11.00000    0.02739    0.03457 =
         0.03013    0.01062    0.01350    0.01182
N6    3    0.365264    0.846618    0.332930    11.00000    0.02986    0.03142 =
         0.03341    0.01282    0.01430    0.01087
N7    3    0.250000    0.958762    0.250000    10.25000    0.03651    0.02750 =
         0.03651    0.00000    0.00000    0.00000
N8    3    0.367486    0.875908    0.263553    11.00000    0.04072    0.02957 =
         0.03775    0.01168   -0.01513   -0.01276
PART 1
O1WA  4    0.359826    0.950369    0.227983    10.50000    0.02947    0.03779 =
         0.03058    0.00594    0.00684    0.01561
AFIX   3
H1W1  2    0.367482    0.963858    0.224972    10.25000   -1.50000
H1W3  2    0.366428    0.943233    0.240440    10.25000   -1.50000
H1W4  2    0.362276    0.934786    0.228892    10.25000   -1.50000
H1W6  2    0.363332    0.955409    0.213426    10.25000   -1.50000
AFIX   0
O2WA  4    0.310468    0.927905    0.242409    10.50000    0.02259    0.03517 =
         0.04431    0.00885    0.01135    0.00845
AFIX   3
H2W2  2    0.320181    0.918457    0.250536    10.25000   -1.50000
H2W3  2    0.306176    0.920753    0.228989    10.25000   -1.50000
H2W5  2    0.295807    0.928330    0.236538    10.25000   -1.50000
H2W6  2    0.309812    0.926032    0.258085    10.25000   -1.50000
PART 2
AFIX   0
O1WB  4    0.361314    0.958539    0.230966    10.50000    0.02027    0.03559 =
         0.02274   -0.00518   -0.00129    0.00603
AFIX   3
H1W7  2    0.365773    0.973311    0.227569    10.25000   -1.50000
H1W9  2    0.368186    0.953927    0.244426    10.25000   -1.50000
H1WX  2    0.367325    0.944107    0.233257    10.25000   -1.50000
H1WZ  2    0.364913    0.963492    0.216400    10.25000   -1.50000
AFIX   0
O2WB  4    0.316878    0.924467    0.236603    10.50000    0.02522    0.02706 =
         0.03414    0.01108   -0.01772   -0.00803
AFIX   3
H2W7  2    0.301319    0.923754    0.239259    10.25000   -1.50000
H2W8  2    0.324565    0.917223    0.248353    10.25000   -1.50000
H2WX  2    0.329416    0.915103    0.234429    10.25000   -1.50000
H2WY  2    0.306171    0.921633    0.225335    10.25000   -1.50000
PART 0
AFIX   0
HKLF 4




REM  Fm-3c in Fm-3c
REM wR2 = 0.0954, GooF = S = 1.074, Restrained GooF = 1.074 for all data
REM R1 = 0.0392 for 6307 Fo > 4sig(Fo) and 0.0444 for all 8848 data
REM 237 parameters refined using 0 restraints

END

WGHT      0.0542      0.0000

REM Highest difference peak  0.411,  deepest hole -0.658,  1-sigma level  0.059
Q1    1   0.2894  1.0000  0.2337  10.50000  0.05    0.41
Q2    1   0.2964  1.0000  0.2399  10.50000  0.05    0.36
Q3    1   0.2500  0.9026  0.2500  10.25000  0.05    0.30
Q4    1   0.3028  0.9228  0.2602  11.00000  0.05    0.29
Q5    1   0.4305  0.8579  0.2998  11.00000  0.05    0.26
;
_shelx_res_checksum              55214
_shelx_fab_file
;
    0    4    4   -125.10      0.00
    2    4    4    280.71      0.00
    4    4    4   -253.15      0.00
    1    3    5     15.11      0.00
    0    0    6    229.23      0.00
    0    2    6    -57.07      0.00
    2    2    6    196.02      0.00
    0    4    6     -7.00      0.00
    2    4    6    -50.24      0.00
    4    4    6     18.58      0.00
    0    6    6    250.38      0.00
    2    6    6     32.74      0.00
    4    6    6     49.06      0.00
    6    6    6     95.93      0.00
    1    3    7    -30.59      0.00
    1    5    7     25.22      0.00
    3    5    7     15.87      0.00
    0    0    8     34.06      0.00
    0    2    8     24.30      0.00
    2    2    8     55.55      0.00
    0    4    8     -2.32      0.00
    2    4    8    -49.70      0.00
    4    4    8     40.15      0.00
    0    6    8   -163.56      0.00
    2    6    8    -19.12      0.00
    4    6    8     36.71      0.00
    6    6    8   -233.96      0.00
    0    8    8      8.62      0.00
    2    8    8     62.04      0.00
    4    8    8     51.69      0.00
    6    8    8     18.14      0.00
    8    8    8    -10.87      0.00
    1    3    9     -2.59      0.00
    1    5    9    -27.37      0.00
    3    5    9    -36.65      0.00
    1    7    9     10.48      0.00
    3    7    9      4.68      0.00
    5    7    9     48.55      0.00
    0    0   10    149.51      0.00
    0    2   10    -15.88      0.00
    2    2   10    -60.26      0.00
    0    4   10     44.25      0.00
    2    4   10     58.90      0.00
    4    4   10     33.07      0.00
    0    6   10     76.94      0.00
    2    6   10     -5.60      0.00
    4    6   10     -7.73      0.00
    6    6   10     12.01      0.00
    0    8   10     28.79      0.00
    2    8   10     27.19      0.00
    4    8   10     87.52      0.00
    6    8   10     39.91      0.00
    8    8   10    -59.53      0.00
    0   10   10    -40.11      0.00
    2   10   10      8.81      0.00
    4   10   10      9.68      0.00
    6   10   10     78.55      0.00
    8   10   10     23.51      0.00
   10   10   10    118.89      0.00
    1    3   11    -20.20      0.00
    1    5   11    -20.41      0.00
    3    5   11      7.18      0.00
    1    7   11     57.36      0.00
    3    7   11     35.98      0.00
    5    7   11     56.42      0.00
    1    9   11     -4.72      0.00
    3    9   11      2.06      0.00
    5    9   11    -15.61      0.00
    7    9   11     28.72      0.00
    0    0   12     -5.02      0.00
    0    2   12     37.87      0.00
    2    2   12    -57.41      0.00
    0    4   12     -9.06      0.00
    2    4   12    -31.41      0.00
    4    4   12     33.15      0.00
    0    6   12     -0.86      0.00
    2    6   12      8.70      0.00
    4    6   12     73.21      0.00
    6    6   12    -48.33      0.00
    0    8   12    -39.71      0.00
    2    8   12     39.43      0.00
    4    8   12     -2.52      0.00
    6    8   12    -21.18      0.00
    8    8   12     29.03      0.00
    0   10   12     13.63      0.00
    2   10   12     -7.21      0.00
    4   10   12    -64.80      0.00
    6   10   12     80.35      0.00
    8   10   12     13.10      0.00
   10   10   12     18.40      0.00
    0   12   12    -25.25      0.00
    2   12   12     25.99      0.00
    4   12   12      4.03      0.00
    6   12   12     18.42      0.00
    8   12   12     18.17      0.00
   10   12   12     29.99      0.00
   12   12   12     16.99      0.00
    1    3   13     76.07      0.00
    1    5   13     38.77      0.00
    3    5   13     18.33      0.00
    1    7   13      0.54      0.00
    3    7   13     28.49      0.00
    5    7   13    -12.77      0.00
    1    9   13      5.92      0.00
    3    9   13    -26.02      0.00
    5    9   13     31.71      0.00
    7    9   13      6.72      0.00
    1   11   13     22.69      0.00
    3   11   13      5.51      0.00
    5   11   13    -18.04      0.00
    7   11   13    -41.07      0.00
    9   11   13    -21.45      0.00
    0    0   14     85.36      0.00
    0    2   14    -43.59      0.00
    2    2   14     37.00      0.00
    0    4   14    -31.39      0.00
    2    4   14    -12.47      0.00
    4    4   14    -65.11      0.00
    0    6   14      9.09      0.00
    2    6   14     31.45      0.00
    4    6   14     21.44      0.00
    6    6   14    -44.71      0.00
    0    8   14     16.17      0.00
    2    8   14     -1.91      0.00
    4    8   14     13.18      0.00
    6    8   14     18.05      0.00
    8    8   14     45.52      0.00
    0   10   14     57.57      0.00
    2   10   14     -7.65      0.00
    4   10   14     -2.04      0.00
    6   10   14     17.28      0.00
    8   10   14      9.42      0.00
   10   10   14      2.83      0.00
    0   12   14    -11.37      0.00
    2   12   14     22.14      0.00
    4   12   14    -15.90      0.00
    6   12   14     59.08      0.00
    8   12   14     10.95      0.00
   10   12   14    -20.60      0.00
   12   12   14     75.18      0.00
    0   14   14    -47.24      0.00
    2   14   14     14.51      0.00
    4   14   14    -19.09      0.00
    6   14   14     36.52      0.00
    8   14   14     42.25      0.00
   10   14   14      9.00      0.00
   12   14   14    -57.27      0.00
   14   14   14     53.30      0.00
    1    3   15    -53.12      0.00
    1    5   15    -48.11      0.00
    3    5   15     -5.96      0.00
    1    7   15    -22.42      0.00
    3    7   15     -6.76      0.00
    5    7   15     25.98      0.00
    1    9   15    -18.92      0.00
    3    9   15     16.04      0.00
    5    9   15    -18.25      0.00
    7    9   15     -6.21      0.00
    1   11   15    -39.83      0.00
    3   11   15    -13.72      0.00
    5   11   15    -21.50      0.00
    7   11   15      5.87      0.00
    9   11   15    -15.20      0.00
    1   13   15    -23.19      0.00
    3   13   15     20.26      0.00
    5   13   15     44.35      0.00
    7   13   15     11.08      0.00
    9   13   15     -3.10      0.00
   11   13   15      3.99      0.00
    0    0   16    -54.59      0.00
    0    2   16     16.02      0.00
    2    2   16    -24.65      0.00
    0    4   16      2.96      0.00
    2    4   16    -28.39      0.00
    4    4   16     11.63      0.00
    0    6   16      8.39      0.00
    2    6   16     29.47      0.00
    4    6   16    -15.95      0.00
    6    6   16      6.78      0.00
    0    8   16      5.23      0.00
    2    8   16      3.11      0.00
    4    8   16     27.86      0.00
    6    8   16    -14.63      0.00
    8    8   16    -39.66      0.00
    0   10   16     16.13      0.00
    2   10   16     10.86      0.00
    4   10   16     54.98      0.00
    6   10   16      8.59      0.00
    8   10   16    -29.33      0.00
   10   10   16     39.99      0.00
    0   12   16    -28.69      0.00
    2   12   16     -4.46      0.00
    4   12   16    -50.42      0.00
    6   12   16    -25.42      0.00
    8   12   16     34.81      0.00
   10   12   16     39.75      0.00
   12   12   16     26.97      0.00
    0   14   16     25.88      0.00
    2   14   16    -20.23      0.00
    4   14   16      8.42      0.00
    6   14   16     19.19      0.00
    8   14   16     25.57      0.00
   10   14   16      8.18      0.00
   12   14   16    -23.84      0.00
   14   14   16     38.88      0.00
    0   16   16     36.58      0.00
    2   16   16     10.62      0.00
    4   16   16     10.85      0.00
    6   16   16     36.71      0.00
    8   16   16     26.70      0.00
   10   16   16     10.44      0.00
   12   16   16    -40.83      0.00
   14   16   16     84.39      0.00
   16   16   16    -26.79      0.00
    1    3   17     -7.24      0.00
    1    5   17     27.92      0.00
    3    5   17     -7.19      0.00
    1    7   17    -14.75      0.00
    3    7   17      7.58      0.00
    5    7   17    -13.27      0.00
    1    9   17    -18.79      0.00
    3    9   17    -25.73      0.00
    5    9   17    -34.00      0.00
    7    9   17      7.87      0.00
    1   11   17     11.80      0.00
    3   11   17    -17.04      0.00
    5   11   17     -0.97      0.00
    7   11   17     13.53      0.00
    9   11   17     36.53      0.00
    1   13   17    -24.20      0.00
    3   13   17     -0.92      0.00
    5   13   17    -17.04      0.00
    7   13   17     26.62      0.00
    9   13   17    -84.87      0.00
   11   13   17    -48.77      0.00
    1   15   17      1.47      0.00
    3   15   17     -5.52      0.00
    5   15   17      0.73      0.00
    7   15   17     27.30      0.00
    9   15   17     -9.51      0.00
   11   15   17      1.48      0.00
   13   15   17    -16.59      0.00
    0    0   18     24.36      0.00
    0    2   18     -2.32      0.00
    2    2   18    -12.12      0.00
    0    4   18     18.39      0.00
    2    4   18     40.67      0.00
    4    4   18     42.21      0.00
    0    6   18    -59.58      0.00
    2    6   18    -15.42      0.00
    4    6   18     36.88      0.00
    6    6   18     43.17      0.00
    0    8   18      7.52      0.00
    2    8   18     -6.66      0.00
    4    8   18      6.39      0.00
    6    8   18     54.62      0.00
    8    8   18     19.89      0.00
    0   10   18    -53.27      0.00
    2   10   18     15.13      0.00
    4   10   18     22.38      0.00
    6   10   18     11.22      0.00
    8   10   18     20.26      0.00
   10   10   18    -47.35      0.00
    0   12   18    -33.25      0.00
    2   12   18     10.19      0.00
    4   12   18     25.87      0.00
    6   12   18      5.80      0.00
    8   12   18     29.13      0.00
   10   12   18     20.14      0.00
   12   12   18     42.91      0.00
    0   14   18      6.28      0.00
    2   14   18     65.22      0.00
    4   14   18      6.44      0.00
    6   14   18     22.89      0.00
    8   14   18     45.78      0.00
   10   14   18    -17.22      0.00
   12   14   18     11.18      0.00
   14   14   18     44.15      0.00
    0   16   18    -30.68      0.00
    2   16   18    -19.90      0.00
    4   16   18     -1.17      0.00
    6   16   18      6.13      0.00
    8   16   18     10.38      0.00
   10   16   18    -15.38      0.00
   12   16   18     30.74      0.00
   14   16   18     -4.94      0.00
   16   16   18    -68.99      0.00
    0   18   18      6.71      0.00
    2   18   18    -34.25      0.00
    4   18   18     16.93      0.00
    6   18   18     -7.44      0.00
    8   18   18     35.98      0.00
   10   18   18    -15.00      0.00
   12   18   18     61.95      0.00
   14   18   18    -62.72      0.00
   16   18   18      4.52      0.00
   18   18   18    -64.10      0.00
    1    3   19     34.38      0.00
    1    5   19      3.12      0.00
    3    5   19    -28.82      0.00
    1    7   19     25.67      0.00
    3    7   19     28.45      0.00
    5    7   19     26.50      0.00
    1    9   19     37.62      0.00
    3    9   19     -3.31      0.00
    5    9   19     -2.75      0.00
    7    9   19    -14.45      0.00
    1   11   19     20.79      0.00
    3   11   19    -13.85      0.00
    5   11   19    -30.15      0.00
    7   11   19     -7.78      0.00
    9   11   19      1.28      0.00
    1   13   19    -26.76      0.00
    3   13   19    -32.17      0.00
    5   13   19     11.06      0.00
    7   13   19    -23.57      0.00
    9   13   19    -21.44      0.00
   11   13   19    -16.51      0.00
    1   15   19      1.81      0.00
    3   15   19    -22.83      0.00
    5   15   19      1.94      0.00
    7   15   19    -16.99      0.00
    9   15   19    -14.65      0.00
   11   15   19    -18.61      0.00
   13   15   19     -1.85      0.00
    1   17   19     10.62      0.00
    3   17   19     12.73      0.00
    5   17   19     20.10      0.00
    7   17   19      0.83      0.00
    9   17   19     -8.44      0.00
   11   17   19    -31.93      0.00
   13   17   19     -5.98      0.00
   15   17   19      0.70      0.00
    0    0   20    -29.49      0.00
    0    2   20     11.40      0.00
    2    2   20     24.62      0.00
    0    4   20     25.15      0.00
    2    4   20     17.78      0.00
    4    4   20     82.74      0.00
    0    6   20     23.07      0.00
    2    6   20     -5.55      0.00
    4    6   20     26.15      0.00
    6    6   20     79.51      0.00
    0    8   20     11.10      0.00
    2    8   20      6.90      0.00
    4    8   20     17.09      0.00
    6    8   20     25.45      0.00
    8    8   20     57.98      0.00
    0   10   20     35.17      0.00
    2   10   20    -12.29      0.00
    4   10   20     28.58      0.00
    6   10   20     59.13      0.00
    8   10   20     15.25      0.00
   10   10   20     53.07      0.00
    0   12   20     -5.13      0.00
    2   12   20    -17.36      0.00
    4   12   20    -39.63      0.00
    6   12   20     36.39      0.00
    8   12   20     52.54      0.00
   10   12   20     -7.06      0.00
   12   12   20     20.63      0.00
    0   14   20     25.29      0.00
    2   14   20      3.32      0.00
    4   14   20    -30.85      0.00
    6   14   20      4.32      0.00
    8   14   20     27.32      0.00
   10   14   20     27.33      0.00
   12   14   20    -14.33      0.00
   14   14   20      1.76      0.00
    0   16   20    -23.72      0.00
    2   16   20    -30.07      0.00
    4   16   20     15.44      0.00
    6   16   20     10.62      0.00
    8   16   20     13.66      0.00
   10   16   20    -14.11      0.00
   12   16   20    -24.12      0.00
   14   16   20    -33.11      0.00
   16   16   20     37.42      0.00
    0   18   20    -19.23      0.00
    2   18   20     12.11      0.00
    4   18   20     13.67      0.00
    6   18   20     17.68      0.00
    8   18   20      0.83      0.00
   10   18   20    -44.09      0.00
   12   18   20     -2.55      0.00
   14   18   20    -59.23      0.00
   16   18   20     -4.43      0.00
   18   18   20    -53.49      0.00
    0   20   20     18.31      0.00
    2   20   20    -32.25      0.00
    4   20   20     56.71      0.00
    6   20   20    -20.19      0.00
    8   20   20     17.51      0.00
   10   20   20    -20.01      0.00
   12   20   20      6.57      0.00
   14   20   20    -25.56      0.00
   16   20   20     20.80      0.00
   18   20   20    -12.17      0.00
   20   20   20    -10.07      0.00
    1    3   21     41.96      0.00
    1    5   21    -18.53      0.00
    3    5   21     10.78      0.00
    1    7   21     13.13      0.00
    3    7   21      4.50      0.00
    5    7   21     10.39      0.00
    1    9   21     19.16      0.00
    3    9   21      7.29      0.00
    5    9   21     17.27      0.00
    7    9   21     26.00      0.00
    1   11   21     18.80      0.00
    3   11   21    -16.79      0.00
    5   11   21      7.18      0.00
    7   11   21    -18.25      0.00
    9   11   21     25.31      0.00
    1   13   21    -12.35      0.00
    3   13   21    -23.69      0.00
    5   13   21     -8.74      0.00
    7   13   21     20.05      0.00
    9   13   21     21.28      0.00
   11   13   21    -15.07      0.00
    1   15   21     15.49      0.00
    3   15   21    -25.73      0.00
    5   15   21    -24.34      0.00
    7   15   21    -51.23      0.00
    9   15   21     17.11      0.00
   11   15   21     -3.91      0.00
   13   15   21     13.73      0.00
    1   17   21    -23.46      0.00
    3   17   21    -22.95      0.00
    5   17   21    -27.66      0.00
    7   17   21     23.68      0.00
    9   17   21     20.52      0.00
   11   17   21    -39.12      0.00
   13   17   21      8.92      0.00
   15   17   21      3.30      0.00
    1   19   21     11.81      0.00
    3   19   21     46.93      0.00
    5   19   21    -17.44      0.00
    7   19   21    -32.40      0.00
    9   19   21     33.24      0.00
   11   19   21    -45.51      0.00
   13   19   21     -7.56      0.00
   15   19   21    -37.50      0.00
   17   19   21    -48.14      0.00
    0    0   22   -121.50      0.00
    0    2   22      6.28      0.00
    2    2   22     85.26      0.00
    0    4   22    -55.52      0.00
    2    4   22      1.94      0.00
    4    4   22      6.23      0.00
    0    6   22    -52.18      0.00
    2    6   22      9.60      0.00
    4    6   22     32.74      0.00
    6    6   22    -92.81      0.00
    0    8   22    -65.27      0.00
    2    8   22      4.47      0.00
    4    8   22     11.40      0.00
    6    8   22    -28.53      0.00
    8    8   22    -89.18      0.00
    0   10   22     52.78      0.00
    2   10   22    -21.66      0.00
    4   10   22     21.14      0.00
    6   10   22      7.71      0.00
    8   10   22     -2.58      0.00
   10   10   22      7.85      0.00
    0   12   22     -2.73      0.00
    2   12   22     -9.36      0.00
    4   12   22    -18.26      0.00
    6   12   22     41.79      0.00
    8   12   22     30.42      0.00
   10   12   22     -2.86      0.00
   12   12   22      2.00      0.00
    0   14   22     47.55      0.00
    2   14   22     10.30      0.00
    4   14   22     -5.67      0.00
    6   14   22     16.12      0.00
    8   14   22     22.85      0.00
   10   14   22     54.03      0.00
   12   14   22     12.80      0.00
   14   14   22     41.54      0.00
    0   16   22     -7.64      0.00
    2   16   22      5.56      0.00
    4   16   22      6.84      0.00
    6   16   22     37.08      0.00
    8   16   22    -15.39      0.00
   10   16   22    -22.41      0.00
   12   16   22      1.66      0.00
   14   16   22     26.06      0.00
   16   16   22      5.73      0.00
    0   18   22     -4.61      0.00
    2   18   22     -1.86      0.00
    4   18   22     18.85      0.00
    6   18   22     -7.34      0.00
    8   18   22     -7.29      0.00
   10   18   22    -42.21      0.00
   12   18   22     18.15      0.00
   14   18   22      5.37      0.00
   16   18   22    -14.47      0.00
   18   18   22      0.92      0.00
    0   20   22    -12.72      0.00
    2   20   22     20.23      0.00
    4   20   22     48.16      0.00
    6   20   22    -21.00      0.00
    8   20   22    -47.94      0.00
   10   20   22     -3.69      0.00
   12   20   22     41.65      0.00
   14   20   22    -10.14      0.00
   16   20   22      1.06      0.00
   18   20   22     -4.65      0.00
   20   20   22     11.72      0.00
    0   22   22     41.14      0.00
    2   22   22     15.07      0.00
    4   22   22     -3.86      0.00
    6   22   22     -9.23      0.00
    8   22   22    -45.11      0.00
   10   22   22    -15.88      0.00
   12   22   22    -42.46      0.00
   14   22   22     18.94      0.00
   16   22   22    -16.51      0.00
   18   22   22     34.08      0.00
   20   22   22    -24.76      0.00
   22   22   22    -83.02      0.00
    1    3   23     -6.77      0.00
    1    5   23     12.99      0.00
    3    5   23     14.80      0.00
    1    7   23    -17.11      0.00
    3    7   23     38.39      0.00
    5    7   23    -22.12      0.00
    1    9   23      1.25      0.00
    3    9   23    -27.90      0.00
    5    9   23    -25.74      0.00
    7    9   23    -10.66      0.00
    1   11   23     -8.59      0.00
    3   11   23    -11.55      0.00
    5   11   23      5.73      0.00
    7   11   23    -36.21      0.00
    9   11   23     -1.19      0.00
    1   13   23      3.46      0.00
    3   13   23     -0.32      0.00
    5   13   23     30.29      0.00
    7   13   23     20.15      0.00
    9   13   23     -2.23      0.00
   11   13   23    -32.04      0.00
    1   15   23     17.17      0.00
    3   15   23     22.13      0.00
    5   15   23     -5.00      0.00
    7   15   23     32.85      0.00
    9   15   23    -27.89      0.00
   11   15   23    -12.35      0.00
   13   15   23     24.55      0.00
    1   17   23    -40.21      0.00
    3   17   23      9.00      0.00
    5   17   23     51.70      0.00
    7   17   23    -14.03      0.00
    9   17   23    -10.12      0.00
   11   17   23     -1.43      0.00
   13   17   23     20.36      0.00
   15   17   23    -18.38      0.00
    1   19   23    -32.84      0.00
    3   19   23     17.27      0.00
    5   19   23     16.15      0.00
    7   19   23     -2.63      0.00
    9   19   23     17.62      0.00
   11   19   23    -13.51      0.00
   13   19   23    -23.43      0.00
   15   19   23     -6.58      0.00
   17   19   23     -7.53      0.00
    1   21   23     13.05      0.00
    3   21   23      7.98      0.00
    5   21   23    -31.88      0.00
    7   21   23     -7.37      0.00
    9   21   23     50.71      0.00
   11   21   23     -4.11      0.00
   13   21   23    -71.14      0.00
   15   21   23    -25.75      0.00
   17   21   23      2.00      0.00
   19   21   23    -30.95      0.00
    0    0   24    -14.54      0.00
    0    2   24     34.94      0.00
    2    2   24      7.69      0.00
    0    4   24    -88.19      0.00
    2    4   24    -70.24      0.00
    4    4   24     24.90      0.00
    0    6   24    -57.96      0.00
    2    6   24     53.00      0.00
    4    6   24     16.13      0.00
    6    6   24     23.90      0.00
    0    8   24    -24.47      0.00
    2    8   24     -7.14      0.00
    4    8   24      1.96      0.00
    6    8   24      8.46      0.00
    8    8   24      3.45      0.00
    0   10   24     -5.40      0.00
    2   10   24      5.18      0.00
    4   10   24    -43.46      0.00
    6   10   24    -31.41      0.00
    8   10   24     26.12      0.00
   10   10   24      2.07      0.00
    0   12   24     -3.39      0.00
    2   12   24     -7.12      0.00
    4   12   24      3.99      0.00
    6   12   24     16.05      0.00
    8   12   24      0.32      0.00
   10   12   24     -4.57      0.00
   12   12   24     20.11      0.00
    0   14   24    -11.09      0.00
    2   14   24      6.39      0.00
    4   14   24     16.81      0.00
    6   14   24    -11.61      0.00
    8   14   24     20.89      0.00
   10   14   24     14.50      0.00
   12   14   24     43.20      0.00
   14   14   24     20.37      0.00
    0   16   24      6.60      0.00
    2   16   24     27.96      0.00
    4   16   24     -5.06      0.00
    6   16   24     26.19      0.00
    8   16   24     11.44      0.00
   10   16   24     13.96      0.00
   12   16   24     -6.37      0.00
   14   16   24    -29.61      0.00
   16   16   24    -11.78      0.00
    0   18   24     30.27      0.00
    2   18   24     53.12      0.00
    4   18   24      6.99      0.00
    6   18   24     46.23      0.00
    8   18   24     -1.34      0.00
   10   18   24    -12.05      0.00
   12   18   24     -0.35      0.00
   14   18   24    -40.15      0.00
   16   18   24     -8.60      0.00
   18   18   24      0.22      0.00
    0   20   24     12.58      0.00
    2   20   24     70.79      0.00
    4   20   24     47.48      0.00
    6   20   24     12.93      0.00
    8   20   24    -10.51      0.00
   10   20   24    -15.62      0.00
   12   20   24    -25.41      0.00
   14   20   24     14.74      0.00
   16   20   24    -22.00      0.00
   18   20   24    -52.83      0.00
   20   20   24   -109.51      0.00
    0   22   24     34.62      0.00
    2   22   24    -24.82      0.00
    4   22   24     12.68      0.00
    6   22   24     19.95      0.00
    8   22   24      0.39      0.00
   10   22   24     -4.20      0.00
   12   22   24    -10.03      0.00
   14   22   24     12.17      0.00
   16   22   24      7.76      0.00
   18   22   24     32.93      0.00
   20   22   24     10.16      0.00
   22   22   24    -23.95      0.00
    0   24   24      5.77      0.00
    2   24   24    -31.54      0.00
    4   24   24    -40.06      0.00
    6   24   24     86.42      0.00
    8   24   24      8.50      0.00
   10   24   24     -7.68      0.00
   12   24   24     30.73      0.00
   14   24   24      4.04      0.00
   16   24   24      7.00      0.00
   18   24   24     20.16      0.00
   20   24   24     10.06      0.00
   22   24   24    -27.21      0.00
   24   24   24      1.16      0.00
    1    3   25     -6.68      0.00
    1    5   25      7.82      0.00
    3    5   25     31.90      0.00
    1    7   25      0.73      0.00
    3    7   25     -3.34      0.00
    5    7   25     26.49      0.00
    1    9   25     12.21      0.00
    3    9   25     46.96      0.00
    5    9   25     47.16      0.00
    7    9   25    -12.90      0.00
    1   11   25     17.97      0.00
    3   11   25     42.01      0.00
    5   11   25    -17.32      0.00
    7   11   25     -4.22      0.00
    9   11   25    -10.04      0.00
    1   13   25     47.86      0.00
    3   13   25      8.24      0.00
    5   13   25    -18.62      0.00
    7   13   25      9.87      0.00
    9   13   25    -47.20      0.00
   11   13   25    -48.21      0.00
    1   15   25      4.16      0.00
    3   15   25      0.35      0.00
    5   15   25    -12.33      0.00
    7   15   25    -27.59      0.00
    9   15   25    -43.18      0.00
   11   15   25     23.50      0.00
   13   15   25    -15.78      0.00
    1   17   25      2.62      0.00
    3   17   25     -4.43      0.00
    5   17   25    -16.13      0.00
    7   17   25     -8.98      0.00
    9   17   25    -29.18      0.00
   11   17   25      6.43      0.00
   13   17   25      5.34      0.00
   15   17   25    -16.04      0.00
    1   19   25    -67.57      0.00
    3   19   25     -9.02      0.00
    5   19   25     14.26      0.00
    7   19   25     30.52      0.00
    9   19   25    -14.83      0.00
   11   19   25     44.57      0.00
   13   19   25      0.24      0.00
   15   19   25     -9.65      0.00
   17   19   25     -9.80      0.00
    1   21   25     35.45      0.00
    3   21   25    -54.58      0.00
    5   21   25    -18.07      0.00
    7   21   25    -23.77      0.00
    9   21   25     -0.68      0.00
   11   21   25    -26.78      0.00
   13   21   25      4.41      0.00
   15   21   25     26.71      0.00
   17   21   25     28.26      0.00
   19   21   25    -33.89      0.00
    1   23   25      6.95      0.00
    3   23   25    -46.45      0.00
    5   23   25    -52.02      0.00
    7   23   25    -19.57      0.00
    9   23   25    -19.24      0.00
   11   23   25     -3.42      0.00
   13   23   25      0.32      0.00
   15   23   25    -16.09      0.00
   17   23   25    -42.41      0.00
   19   23   25    -24.04      0.00
   21   23   25      1.27      0.00
    0    0   26     77.33      0.00
    0    2   26     -0.50      0.00
    2    2   26    -73.52      0.00
    0    4   26    -69.72      0.00
    2    4   26    -38.63      0.00
    4    4   26     61.83      0.00
    0    6   26      2.64      0.00
    2    6   26    -48.39      0.00
    4    6   26     29.70      0.00
    6    6   26     44.11      0.00
    0    8   26     -6.55      0.00
    2    8   26     38.84      0.00
    4    8   26     23.87      0.00
    6    8   26     -1.15      0.00
    8    8   26      5.40      0.00
    0   10   26    -18.91      0.00
    2   10   26     46.37      0.00
    4   10   26     -7.72      0.00
    6   10   26     24.17      0.00
    8   10   26      2.53      0.00
   10   10   26     20.94      0.00
    0   12   26    -25.69      0.00
    2   12   26    -14.24      0.00
    4   12   26     29.76      0.00
    6   12   26    -38.25      0.00
    8   12   26      5.39      0.00
   10   12   26    -44.77      0.00
   12   12   26    -21.73      0.00
    0   14   26     -1.83      0.00
    2   14   26      0.22      0.00
    4   14   26     -3.29      0.00
    6   14   26     -3.47      0.00
    8   14   26    -21.37      0.00
   10   14   26    -21.53      0.00
   12   14   26      7.11      0.00
   14   14   26    -25.33      0.00
    0   16   26     30.66      0.00
    2   16   26    -29.48      0.00
    4   16   26    -18.75      0.00
    6   16   26    -15.99      0.00
    8   16   26    -12.20      0.00
   10   16   26     20.80      0.00
   12   16   26      3.04      0.00
   14   16   26    -15.02      0.00
   16   16   26    -38.77      0.00
    0   18   26    -16.10      0.00
    2   18   26     39.97      0.00
    4   18   26    -14.55      0.00
    6   18   26    -47.68      0.00
    8   18   26     -1.91      0.00
   10   18   26      5.84      0.00
   12   18   26      2.93      0.00
   14   18   26     -3.92      0.00
   16   18   26     31.64      0.00
   18   18   26     40.36      0.00
    0   20   26     -9.71      0.00
    2   20   26     38.23      0.00
    4   20   26     27.40      0.00
    6   20   26    -17.27      0.00
    8   20   26    -60.42      0.00
   10   20   26     -5.08      0.00
   12   20   26     -8.04      0.00
   14   20   26      1.07      0.00
   16   20   26     17.96      0.00
   18   20   26     -6.84      0.00
   20   20   26    -61.47      0.00
    0   22   26     -5.96      0.00
    2   22   26    -24.97      0.00
    4   22   26    -10.98      0.00
    6   22   26     -9.35      0.00
    8   22   26    -29.39      0.00
   10   22   26    -14.92      0.00
   12   22   26    -24.47      0.00
   14   22   26    -25.45      0.00
   16   22   26     -5.56      0.00
   18   22   26     29.39      0.00
   20   22   26    -27.87      0.00
   22   22   26     -3.88      0.00
    0   24   26    -13.55      0.00
    2   24   26      7.76      0.00
    4   24   26      9.89      0.00
    6   24   26    -20.25      0.00
    8   24   26    -16.60      0.00
   10   24   26     16.10      0.00
   12   24   26     34.43      0.00
   14   24   26     11.53      0.00
   16   24   26    -10.01      0.00
   18   24   26    -10.52      0.00
   20   24   26     -6.28      0.00
   22   24   26      4.04      0.00
   24   24   26      0.39      0.00
    0   26   26     22.25      0.00
    2   26   26     91.45      0.00
    4   26   26     65.81      0.00
    6   26   26    -35.35      0.00
    8   26   26     -0.38      0.00
   10   26   26      3.49      0.00
   12   26   26     42.52      0.00
   14   26   26    -14.47      0.00
   16   26   26     38.07      0.00
   18   26   26      4.71      0.00
   20   26   26     -8.96      0.00
   22   26   26     17.71      0.00
   24   26   26     29.68      0.00
   26   26   26     55.15      0.00
    1    3   27     -4.80      0.00
    1    5   27     29.49      0.00
    3    5   27    -48.56      0.00
    1    7   27     11.89      0.00
    3    7   27     15.98      0.00
    5    7   27     -9.17      0.00
    1    9   27     42.96      0.00
    3    9   27     34.51      0.00
    5    9   27     38.76      0.00
    7    9   27     33.01      0.00
    1   11   27     29.38      0.00
    3   11   27    -12.60      0.00
    5   11   27     16.37      0.00
    7   11   27    -20.68      0.00
    9   11   27      3.32      0.00
    1   13   27     -3.01      0.00
    3   13   27    -20.01      0.00
    5   13   27    -28.03      0.00
    7   13   27     17.24      0.00
    9   13   27     -8.98      0.00
   11   13   27      3.31      0.00
    1   15   27    -11.32      0.00
    3   15   27     10.18      0.00
    5   15   27    -36.02      0.00
    7   15   27     26.35      0.00
    9   15   27    -10.83      0.00
   11   15   27     13.31      0.00
   13   15   27     -7.89      0.00
    1   17   27     19.84      0.00
    3   17   27     18.10      0.00
    5   17   27    -40.14      0.00
    7   17   27    -10.41      0.00
    9   17   27    -35.48      0.00
   11   17   27     43.06      0.00
   13   17   27     -9.34      0.00
   15   17   27     24.58      0.00
    1   19   27     -1.54      0.00
    3   19   27    -20.57      0.00
    5   19   27    -21.54      0.00
    7   19   27     10.79      0.00
    9   19   27     70.27      0.00
   11   19   27    -11.08      0.00
   13   19   27    -47.97      0.00
   15   19   27     -7.56      0.00
   17   19   27    -27.36      0.00
    1   21   27     27.05      0.00
    3   21   27      7.80      0.00
    5   21   27    -21.12      0.00
    7   21   27      3.11      0.00
    9   21   27    -29.90      0.00
   11   21   27    -37.83      0.00
   13   21   27    -36.36      0.00
   15   21   27    -13.53      0.00
   17   21   27      4.65      0.00
   19   21   27     51.17      0.00
    1   23   27     33.28      0.00
    3   23   27     -7.95      0.00
    5   23   27     -1.87      0.00
    7   23   27      8.09      0.00
    9   23   27      5.55      0.00
   11   23   27    -11.56      0.00
   13   23   27    -24.74      0.00
   15   23   27     -8.36      0.00
   17   23   27     37.98      0.00
   19   23   27     60.66      0.00
   21   23   27     48.68      0.00
    1   25   27    -24.26      0.00
    3   25   27     20.07      0.00
    5   25   27      3.45      0.00
    7   25   27     -7.11      0.00
    9   25   27     10.18      0.00
   11   25   27    -14.50      0.00
   13   25   27    -20.81      0.00
   15   25   27     -6.28      0.00
   17   25   27     29.28      0.00
   19   25   27     17.70      0.00
   21   25   27     21.91      0.00
   23   25   27     45.67      0.00
    0    0   28    -21.90      0.00
    0    2   28     40.68      0.00
    2    2   28    -14.54      0.00
    0    4   28     -2.62      0.00
    2    4   28    -12.58      0.00
    4    4   28     97.32      0.00
    0    6   28    -16.18      0.00
    2    6   28    -31.79      0.00
    4    6   28     14.10      0.00
    6    6   28      0.00      0.00
    0    8   28     -8.81      0.00
    2    8   28     40.09      0.00
    4    8   28     10.32      0.00
    6    8   28     39.37      0.00
    8    8   28    -60.75      0.00
    0   10   28    -45.63      0.00
    2   10   28     -3.45      0.00
    4   10   28     14.94      0.00
    6   10   28      1.18      0.00
    8   10   28     -9.02      0.00
   10   10   28    -32.59      0.00
    0   12   28    -18.98      0.00
    2   12   28      8.22      0.00
    4   12   28    -14.79      0.00
    6   12   28     -2.22      0.00
    8   12   28     -1.94      0.00
   10   12   28     -5.33      0.00
   12   12   28     36.43      0.00
    0   14   28     -4.69      0.00
    2   14   28    -20.49      0.00
    4   14   28     -0.75      0.00
    6   14   28     -1.23      0.00
    8   14   28    -22.27      0.00
   10   14   28    -27.92      0.00
   12   14   28     20.36      0.00
   14   14   28     67.93      0.00
    0   16   28     16.60      0.00
    2   16   28    -40.57      0.00
    4   16   28     -1.73      0.00
    6   16   28     18.52      0.00
    8   16   28     -3.50      0.00
   10   16   28    -18.78      0.00
   12   16   28     20.62      0.00
   14   16   28     10.13      0.00
   16   16   28     24.53      0.00
    0   18   28    -30.07      0.00
    2   18   28      7.92      0.00
    4   18   28      3.90      0.00
    6   18   28    -26.50      0.00
    8   18   28    -19.73      0.00
   10   18   28     19.89      0.00
   12   18   28     10.22      0.00
   14   18   28      8.79      0.00
   16   18   28    -15.40      0.00
   18   18   28    -15.04      0.00
    0   20   28      4.31      0.00
    2   20   28      1.32      0.00
    4   20   28      8.95      0.00
    6   20   28    -44.24      0.00
    8   20   28      0.46      0.00
   10   20   28     -9.60      0.00
   12   20   28      2.02      0.00
   14   20   28      2.06      0.00
   16   20   28     -6.88      0.00
   18   20   28     41.67      0.00
   20   20   28    -17.18      0.00
    0   22   28     56.09      0.00
    2   22   28     -0.10      0.00
    4   22   28     -8.04      0.00
    6   22   28      4.74      0.00
    8   22   28     -8.41      0.00
   10   22   28      3.34      0.00
   12   22   28      0.22      0.00
   14   22   28    -16.93      0.00
   16   22   28    -24.10      0.00
   18   22   28      1.45      0.00
   20   22   28     12.16      0.00
   22   22   28    -19.14      0.00
    0   24   28     22.93      0.00
    2   24   28    -32.10      0.00
    4   24   28    -18.17      0.00
    6   24   28    -38.71      0.00
    8   24   28    -25.61      0.00
   10   24   28     -3.62      0.00
   12   24   28      6.66      0.00
   14   24   28     -0.28      0.00
   16   24   28    -17.95      0.00
   18   24   28    -22.48      0.00
   20   24   28     -8.51      0.00
   22   24   28      7.15      0.00
   24   24   28      1.51      0.00
    0   26   28     -3.21      0.00
    2   26   28     42.08      0.00
    4   26   28      2.03      0.00
    6   26   28    -23.78      0.00
    8   26   28      8.48      0.00
   10   26   28      5.96      0.00
   12   26   28    -41.27      0.00
   14   26   28    -13.87      0.00
   16   26   28    -11.37      0.00
   18   26   28     -9.09      0.00
   20   26   28     60.44      0.00
   22   26   28     22.37      0.00
   24   26   28      2.79      0.00
   26   26   28     24.40      0.00
    0   28   28    -14.57      0.00
    2   28   28     21.09      0.00
    4   28   28     -8.45      0.00
    6   28   28     31.44      0.00
    8   28   28     44.51      0.00
   10   28   28    -33.98      0.00
   12   28   28    -36.24      0.00
   14   28   28    -14.82      0.00
   16   28   28    -13.25      0.00
   18   28   28     -1.55      0.00
   20   28   28     45.15      0.00
   22   28   28     20.33      0.00
   24   28   28    -17.05      0.00
   26   28   28     49.90      0.00
   28   28   28     -3.11      0.00
    1    3   29     -3.42      0.00
    1    5   29    -21.00      0.00
    3    5   29    -14.27      0.00
    1    7   29      2.62      0.00
    3    7   29    -22.69      0.00
    5    7   29     -5.30      0.00
    1    9   29    -37.24      0.00
    3    9   29    -11.05      0.00
    5    9   29     17.86      0.00
    7    9   29     -9.66      0.00
    1   11   29     42.60      0.00
    3   11   29     40.81      0.00
    5   11   29     13.20      0.00
    7   11   29    -42.12      0.00
    9   11   29    -31.91      0.00
    1   13   29     22.85      0.00
    3   13   29    -41.66      0.00
    5   13   29     16.10      0.00
    7   13   29     47.23      0.00
    9   13   29      8.39      0.00
   11   13   29     47.18      0.00
    1   15   29     27.21      0.00
    3   15   29    -12.24      0.00
    5   15   29     -2.47      0.00
    7   15   29     37.34      0.00
    9   15   29     30.10      0.00
   11   15   29     10.20      0.00
   13   15   29     -4.13      0.00
    1   17   29     -2.62      0.00
    3   17   29     -4.19      0.00
    5   17   29     -0.74      0.00
    7   17   29     17.78      0.00
    9   17   29     10.41      0.00
   11   17   29    -13.98      0.00
   13   17   29     -5.27      0.00
   15   17   29     53.91      0.00
    1   19   29     -9.69      0.00
    3   19   29    -14.13      0.00
    5   19   29     13.90      0.00
    7   19   29      0.26      0.00
    9   19   29    -50.42      0.00
   11   19   29     -1.48      0.00
   13   19   29    -29.79      0.00
   15   19   29    -13.15      0.00
   17   19   29     25.26      0.00
    1   21   29    -56.71      0.00
    3   21   29    -12.28      0.00
    5   21   29     14.98      0.00
    7   21   29      1.44      0.00
    9   21   29    -42.64      0.00
   11   21   29    -33.46      0.00
   13   21   29    -45.90      0.00
   15   21   29      6.85      0.00
   17   21   29      4.82      0.00
   19   21   29     28.45      0.00
    1   23   29    -39.57      0.00
    3   23   29    -26.05      0.00
    5   23   29     18.58      0.00
    7   23   29    -25.87      0.00
    9   23   29     -7.19      0.00
   11   23   29     -4.46      0.00
   13   23   29     18.79      0.00
   15   23   29      2.92      0.00
   17   23   29     39.18      0.00
   19   23   29     32.00      0.00
   21   23   29     -6.13      0.00
    1   25   29     -7.44      0.00
    3   25   29      3.58      0.00
    5   25   29      3.89      0.00
    7   25   29     -8.15      0.00
    9   25   29    -13.86      0.00
   11   25   29     18.99      0.00
   13   25   29    -20.27      0.00
   15   25   29      8.36      0.00
   17   25   29      4.64      0.00
   19   25   29    -44.84      0.00
   21   25   29    -45.33      0.00
   23   25   29     32.34      0.00
    1   27   29      9.35      0.00
    3   27   29      4.52      0.00
    5   27   29     -8.81      0.00
    7   27   29      8.65      0.00
    9   27   29    -16.95      0.00
   11   27   29    -64.44      0.00
   13   27   29    -67.44      0.00
   15   27   29    -51.95      0.00
   17   27   29      2.90      0.00
   19   27   29    -32.88      0.00
   21   27   29    -11.76      0.00
   23   27   29      3.87      0.00
   25   27   29     57.49      0.00
    0    0   30     96.41      0.00
    0    2   30      2.86      0.00
    2    2   30     12.88      0.00
    0    4   30     -7.96      0.00
    2    4   30    -63.77      0.00
    4    4   30     -8.26      0.00
    0    6   30     70.06      0.00
    2    6   30     19.45      0.00
    4    6   30     -5.91      0.00
    6    6   30     -4.43      0.00
    0    8   30     13.26      0.00
    2    8   30      7.39      0.00
    4    8   30    -13.81      0.00
    6    8   30    -18.69      0.00
    8    8   30     -3.58      0.00
    0   10   30    -50.48      0.00
    2   10   30     -7.16      0.00
    4   10   30     -7.82      0.00
    6   10   30      7.80      0.00
    8   10   30    -22.58      0.00
   10   10   30    -18.63      0.00
    0   12   30    -18.11      0.00
    2   12   30     52.02      0.00
    4   12   30      5.48      0.00
    6   12   30     21.81      0.00
    8   12   30      2.56      0.00
   10   12   30    -11.50      0.00
   12   12   30    -20.19      0.00
    0   14   30     27.69      0.00
    2   14   30    -35.26      0.00
    4   14   30      1.05      0.00
    6   14   30    -23.38      0.00
    8   14   30    -29.07      0.00
   10   14   30      0.21      0.00
   12   14   30    -15.28      0.00
   14   14   30    -15.31      0.00
    0   16   30    -14.82      0.00
    2   16   30      9.97      0.00
    4   16   30      1.76      0.00
    6   16   30    -21.92      0.00
    8   16   30    -17.79      0.00
   10   16   30     20.08      0.00
   12   16   30    -32.45      0.00
   14   16   30      7.69      0.00
   16   16   30     61.72      0.00
    0   18   30      4.04      0.00
    2   18   30     12.18      0.00
    4   18   30     14.70      0.00
    6   18   30     -2.34      0.00
    8   18   30     19.77      0.00
   10   18   30     -2.32      0.00
   12   18   30     -3.02      0.00
   14   18   30    -31.20      0.00
   16   18   30     16.54      0.00
   18   18   30    -31.26      0.00
    0   20   30     -2.33      0.00
    2   20   30      3.81      0.00
    4   20   30      0.30      0.00
    6   20   30     13.74      0.00
    8   20   30      8.65      0.00
   10   20   30      4.23      0.00
   12   20   30    -11.10      0.00
   14   20   30     -8.40      0.00
   16   20   30     -8.33      0.00
   18   20   30     -6.57      0.00
   20   20   30     -0.60      0.00
    0   22   30     15.93      0.00
    2   22   30    -25.17      0.00
    4   22   30     -8.86      0.00
    6   22   30     12.05      0.00
    8   22   30     -6.38      0.00
   10   22   30      0.88      0.00
   12   22   30     -0.68      0.00
   14   22   30      0.02      0.00
   16   22   30     11.81      0.00
   18   22   30     47.37      0.00
   20   22   30    -22.02      0.00
   22   22   30     17.70      0.00
    0   24   30     15.05      0.00
    2   24   30    -43.30      0.00
    4   24   30    -10.00      0.00
    6   24   30     -0.72      0.00
    8   24   30     -5.14      0.00
   10   24   30    -30.79      0.00
   12   24   30    -26.23      0.00
   14   24   30     -7.86      0.00
   16   24   30     23.64      0.00
   18   24   30      5.75      0.00
   20   24   30    -13.45      0.00
   22   24   30     14.14      0.00
   24   24   30    -22.27      0.00
    0   26   30     -2.66      0.00
    2   26   30     16.01      0.00
    4   26   30     13.70      0.00
    6   26   30     10.43      0.00
    8   26   30     15.77      0.00
   10   26   30     14.35      0.00
   12   26   30    -34.81      0.00
   14   26   30     -3.77      0.00
   16   26   30     21.06      0.00
   18   26   30    -30.21      0.00
   20   26   30    -26.86      0.00
   22   26   30     -0.70      0.00
   24   26   30      1.80      0.00
   26   26   30    -11.50      0.00
    0   28   30     17.98      0.00
    2   28   30    -28.35      0.00
    4   28   30    -33.87      0.00
    6   28   30     33.77      0.00
    8   28   30     -2.88      0.00
   10   28   30     15.41      0.00
   12   28   30      4.28      0.00
   14   28   30      7.05      0.00
   16   28   30    -21.40      0.00
   18   28   30    -10.26      0.00
   20   28   30     -6.68      0.00
   22   28   30    -15.48      0.00
   24   28   30     -8.14      0.00
   26   28   30     -6.48      0.00
   28   28   30      7.34      0.00
    0   30   30    -17.22      0.00
    2   30   30      9.94      0.00
    4   30   30    -12.69      0.00
    6   30   30      3.37      0.00
    8   30   30     -1.83      0.00
   10   30   30     23.23      0.00
   12   30   30    -10.48      0.00
   14   30   30     24.71      0.00
   16   30   30    -34.19      0.00
   18   30   30      1.27      0.00
   20   30   30     13.74      0.00
   22   30   30     19.92      0.00
   24   30   30    -13.28      0.00
   26   30   30    -28.23      0.00
   28   30   30      9.58      0.00
   30   30   30      5.58      0.00
    1    3   31      4.39      0.00
    1    5   31      5.27      0.00
    3    5   31     14.05      0.00
    1    7   31    -15.31      0.00
    3    7   31     16.02      0.00
    5    7   31    -25.30      0.00
    1    9   31    -18.28      0.00
    3    9   31     -8.48      0.00
    5    9   31     12.54      0.00
    7    9   31      6.89      0.00
    1   11   31     23.61      0.00
    3   11   31     20.90      0.00
    5   11   31     16.12      0.00
    7   11   31    -30.37      0.00
    9   11   31     -7.23      0.00
    1   13   31    -37.99      0.00
    3   13   31      7.75      0.00
    5   13   31     18.14      0.00
    7   13   31     24.66      0.00
    9   13   31     55.26      0.00
   11   13   31     12.94      0.00
    1   15   31      9.35      0.00
    3   15   31      5.34      0.00
    5   15   31    -26.77      0.00
    7   15   31     12.28      0.00
    9   15   31      1.84      0.00
   11   15   31      2.64      0.00
   13   15   31     -4.80      0.00
    1   17   31    -25.86      0.00
    3   17   31     -1.14      0.00
    5   17   31     34.87      0.00
    7   17   31     14.72      0.00
    9   17   31    -12.14      0.00
   11   17   31    -15.56      0.00
   13   17   31     35.32      0.00
   15   17   31     -4.81      0.00
    1   19   31     37.04      0.00
    3   19   31     45.54      0.00
    5   19   31     42.34      0.00
    7   19   31    -11.17      0.00
    9   19   31    -49.87      0.00
   11   19   31    -54.73      0.00
   13   19   31    -22.05      0.00
   15   19   31     -8.83      0.00
   17   19   31    -31.63      0.00
    1   21   31     37.53      0.00
    3   21   31     14.98      0.00
    5   21   31     65.88      0.00
    7   21   31     10.07      0.00
    9   21   31    -26.89      0.00
   11   21   31    -35.86      0.00
   13   21   31    -14.99      0.00
   15   21   31    -33.29      0.00
   17   21   31    -15.81      0.00
   19   21   31    -26.87      0.00
    1   23   31     33.09      0.00
    3   23   31    -16.01      0.00
    5   23   31    -11.03      0.00
    7   23   31     -0.87      0.00
    9   23   31    -40.26      0.00
   11   23   31    -27.44      0.00
   13   23   31    -49.45      0.00
   15   23   31     -1.67      0.00
   17   23   31      6.49      0.00
   19   23   31    -13.32      0.00
   21   23   31    -15.92      0.00
    1   25   31     21.68      0.00
    3   25   31     -8.05      0.00
    5   25   31    -24.10      0.00
    7   25   31    -30.50      0.00
    9   25   31     -6.93      0.00
   11   25   31    -22.08      0.00
   13   25   31     -3.61      0.00
   15   25   31    -20.12      0.00
   17   25   31    -14.60      0.00
   19   25   31    -75.68      0.00
   21   25   31    -20.24      0.00
   23   25   31     10.79      0.00
    1   27   31      2.73      0.00
    3   27   31    -20.77      0.00
    5   27   31     -6.75      0.00
    7   27   31      2.62      0.00
    9   27   31     11.00      0.00
   11   27   31    -10.44      0.00
   13   27   31     -7.51      0.00
   15   27   31     18.19      0.00
   17   27   31     -8.37      0.00
   19   27   31     -4.83      0.00
   21   27   31     -5.95      0.00
   23   27   31      0.48      0.00
   25   27   31     41.59      0.00
    1   29   31      6.06      0.00
    3   29   31     -6.68      0.00
    5   29   31      1.32      0.00
    7   29   31     -4.89      0.00
    9   29   31      2.38      0.00
   11   29   31    -10.59      0.00
   13   29   31     11.94      0.00
   15   29   31     -9.95      0.00
   17   29   31     -0.83      0.00
   19   29   31    -36.52      0.00
   21   29   31     31.43      0.00
   23   29   31     14.17      0.00
   25   29   31     29.21      0.00
   27   29   31      7.81      0.00
    0    0   32     28.65      0.00
    0    2   32     -4.45      0.00
    2    2   32    -33.36      0.00
    0    4   32    -36.09      0.00
    2    4   32    -50.85      0.00
    4    4   32    -17.92      0.00
    0    6   32     15.86      0.00
    2    6   32    -27.75      0.00
    4    6   32    -27.22      0.00
    6    6   32    -22.29      0.00
    0    8   32    -22.22      0.00
    2    8   32    -14.60      0.00
    4    8   32    -24.50      0.00
    6    8   32    -62.24      0.00
    8    8   32    -28.61      0.00
    0   10   32     21.59      0.00
    2   10   32      1.91      0.00
    4   10   32    -10.03      0.00
    6   10   32     -7.23      0.00
    8   10   32     27.80      0.00
   10   10   32     -9.46      0.00
    0   12   32    -13.81      0.00
    2   12   32    -46.32      0.00
    4   12   32      9.22      0.00
    6   12   32     16.19      0.00
    8   12   32     -5.53      0.00
   10   12   32    -13.44      0.00
   12   12   32    -76.45      0.00
    0   14   32    -59.29      0.00
    2   14   32      1.30      0.00
    4   14   32     32.22      0.00
    6   14   32      5.60      0.00
    8   14   32     -4.94      0.00
   10   14   32     31.74      0.00
   12   14   32    -30.01      0.00
   14   14   32     26.69      0.00
    0   16   32     18.26      0.00
    2   16   32     -8.71      0.00
    4   16   32      3.58      0.00
    6   16   32     16.02      0.00
    8   16   32    -20.21      0.00
   10   16   32    -19.34      0.00
   12   16   32      8.62      0.00
   14   16   32    -18.67      0.00
   16   16   32     -7.41      0.00
    0   18   32    -31.56      0.00
    2   18   32      6.31      0.00
    4   18   32     13.60      0.00
    6   18   32     -4.23      0.00
    8   18   32     -3.79      0.00
   10   18   32     -0.30      0.00
   12   18   32     -6.29      0.00
   14   18   32     -0.90      0.00
   16   18   32    -13.21      0.00
   18   18   32    -20.53      0.00
    0   20   32     16.95      0.00
    2   20   32     63.03      0.00
    4   20   32    -20.99      0.00
    6   20   32     19.75      0.00
    8   20   32     11.40      0.00
   10   20   32     -2.81      0.00
   12   20   32     39.15      0.00
   14   20   32      0.62      0.00
   16   20   32      1.42      0.00
   18   20   32     -7.77      0.00
   20   20   32    -33.94      0.00
    0   22   32     76.06      0.00
    2   22   32     -3.39      0.00
    4   22   32    -38.42      0.00
    6   22   32     -0.59      0.00
    8   22   32     16.25      0.00
   10   22   32     26.27      0.00
   12   22   32     24.05      0.00
   14   22   32      8.04      0.00
   16   22   32    -20.09      0.00
   18   22   32     34.67      0.00
   20   22   32     -8.69      0.00
   22   22   32     16.03      0.00
    0   24   32     -7.67      0.00
    2   24   32    -12.69      0.00
    4   24   32    -15.85      0.00
    6   24   32      4.84      0.00
    8   24   32      7.05      0.00
   10   24   32     20.59      0.00
   12   24   32     11.44      0.00
   14   24   32     10.21      0.00
   16   24   32     21.31      0.00
   18   24   32     11.01      0.00
   20   24   32    -15.20      0.00
   22   24   32      5.09      0.00
   24   24   32     24.41      0.00
    0   26   32     13.04      0.00
    2   26   32     12.12      0.00
    4   26   32     25.21      0.00
    6   26   32     -5.41      0.00
    8   26   32    -12.99      0.00
   10   26   32    -18.53      0.00
   12   26   32     18.55      0.00
   14   26   32    -30.51      0.00
   16   26   32     -1.60      0.00
   18   26   32     -1.75      0.00
   20   26   32    -34.99      0.00
   22   26   32      0.98      0.00
   24   26   32     -6.75      0.00
   26   26   32     30.91      0.00
    0   28   32     -4.64      0.00
    2   28   32     16.29      0.00
    4   28   32    -20.82      0.00
    6   28   32    -19.22      0.00
    8   28   32    -13.26      0.00
   10   28   32      8.16      0.00
   12   28   32    -20.21      0.00
   14   28   32     10.00      0.00
   16   28   32     12.42      0.00
   18   28   32    -13.87      0.00
   20   28   32    -18.34      0.00
   22   28   32     -3.26      0.00
   24   28   32      2.07      0.00
   26   28   32     -8.60      0.00
   28   28   32     19.14      0.00
    0   30   32    -33.84      0.00
    2   30   32     20.60      0.00
    4   30   32      2.78      0.00
    6   30   32     -1.30      0.00
    8   30   32    -14.90      0.00
   10   30   32      2.95      0.00
   12   30   32      6.74      0.00
   14   30   32     -3.06      0.00
   16   30   32      2.86      0.00
   18   30   32      0.64      0.00
   20   30   32     10.86      0.00
   22   30   32      5.46      0.00
   24   30   32    -16.77      0.00
   26   30   32      3.39      0.00
   28   30   32      8.68      0.00
   30   30   32    -19.78      0.00
    0   32   32    -10.09      0.00
    2   32   32     13.54      0.00
    4   32   32     65.57      0.00
    6   32   32      9.28      0.00
    8   32   32     -9.65      0.00
   10   32   32     14.98      0.00
   12   32   32     -7.86      0.00
   14   32   32      5.68      0.00
   16   32   32    -12.89      0.00
   18   32   32     16.67      0.00
   20   32   32     -1.29      0.00
   22   32   32     -8.10      0.00
   24   32   32     12.23      0.00
   26   32   32     -2.45      0.00
   28   32   32     -3.75      0.00
   30   32   32      1.40      0.00
   32   32   32     11.59      0.00
    1    3   33     -9.87      0.00
    1    5   33    -12.15      0.00
    3    5   33     -6.83      0.00
    1    7   33     -9.78      0.00
    3    7   33    -15.28      0.00
    5    7   33      0.07      0.00
    1    9   33     12.85      0.00
    3    9   33    -30.60      0.00
    5    9   33      4.84      0.00
    7    9   33     17.35      0.00
    1   11   33     -9.36      0.00
    3   11   33    -36.42      0.00
    5   11   33     -5.43      0.00
    7   11   33    -12.10      0.00
    9   11   33     17.50      0.00
    1   13   33      7.98      0.00
    3   13   33     23.66      0.00
    5   13   33     27.54      0.00
    7   13   33     27.35      0.00
    9   13   33     -6.02      0.00
   11   13   33     13.99      0.00
    1   15   33      4.99      0.00
    3   15   33     15.88      0.00
    5   15   33     -5.56      0.00
    7   15   33    -41.97      0.00
    9   15   33     12.80      0.00
   11   15   33    -28.45      0.00
   13   15   33      2.60      0.00
    1   17   33    -10.25      0.00
    3   17   33      9.95      0.00
    5   17   33      1.75      0.00
    7   17   33     19.22      0.00
    9   17   33     14.87      0.00
   11   17   33     11.71      0.00
   13   17   33      1.25      0.00
   15   17   33      6.43      0.00
    1   19   33     20.95      0.00
    3   19   33     -7.97      0.00
    5   19   33      5.04      0.00
    7   19   33     35.64      0.00
    9   19   33     21.18      0.00
   11   19   33     -0.69      0.00
   13   19   33     10.72      0.00
   15   19   33     -5.89      0.00
   17   19   33      5.55      0.00
    1   21   33      9.11      0.00
    3   21   33      6.22      0.00
    5   21   33    -12.00      0.00
    7   21   33     -3.60      0.00
    9   21   33     -6.85      0.00
   11   21   33      6.42      0.00
   13   21   33     14.60      0.00
   15   21   33     38.68      0.00
   17   21   33     -4.11      0.00
   19   21   33    -18.67      0.00
    1   23   33     12.11      0.00
    3   23   33    -15.07      0.00
    5   23   33     -9.81      0.00
    7   23   33    -32.78      0.00
    9   23   33    -12.92      0.00
   11   23   33    -12.45      0.00
   13   23   33     -0.39      0.00
   15   23   33      3.87      0.00
   17   23   33     39.57      0.00
   19   23   33      7.71      0.00
   21   23   33      3.68      0.00
    1   25   33     11.33      0.00
    3   25   33    -20.97      0.00
    5   25   33     -2.16      0.00
    7   25   33      1.68      0.00
    9   25   33     12.56      0.00
   11   25   33    -14.49      0.00
   13   25   33     -3.19      0.00
   15   25   33      7.70      0.00
   17   25   33     26.76      0.00
   19   25   33      5.80      0.00
   21   25   33      9.19      0.00
   23   25   33     26.61      0.00
    1   27   33    -11.46      0.00
    3   27   33      1.96      0.00
    5   27   33      5.93      0.00
    7   27   33      0.96      0.00
    9   27   33      9.02      0.00
   11   27   33      0.29      0.00
   13   27   33     22.65      0.00
   15   27   33     -8.50      0.00
   17   27   33     56.63      0.00
   19   27   33     32.22      0.00
   21   27   33     31.35      0.00
   23   27   33     -7.66      0.00
   25   27   33     -2.80      0.00
    1   29   33     -3.46      0.00
    3   29   33     13.36      0.00
    5   29   33     15.05      0.00
    7   29   33    -11.26      0.00
    9   29   33      7.79      0.00
   11   29   33      5.62      0.00
   13   29   33     -3.71      0.00
   15   29   33      1.98      0.00
   17   29   33      9.29      0.00
   19   29   33     20.53      0.00
   21   29   33     13.57      0.00
   23   29   33     -3.55      0.00
   25   29   33     -5.47      0.00
   27   29   33     -8.88      0.00
    1   31   33      3.06      0.00
    3   31   33     -5.88      0.00
    5   31   33     27.19      0.00
    7   31   33     16.52      0.00
    9   31   33     38.29      0.00
   11   31   33     30.36      0.00
   13   31   33     24.52      0.00
   15   31   33     -5.66      0.00
   17   31   33      2.58      0.00
   19   31   33     -2.65      0.00
   21   31   33      6.84      0.00
   23   31   33     10.46      0.00
   25   31   33     -0.93      0.00
   27   31   33      0.00      0.00
   29   31   33     -1.23      0.00
    0    0   34    -21.70      0.00
    0    2   34     20.75      0.00
    2    2   34    -38.63      0.00
    0    4   34     38.72      0.00
    2    4   34     21.51      0.00
    4    4   34    -32.63      0.00
    0    6   34    -13.46      0.00
    2    6   34    -17.22      0.00
    4    6   34      2.14      0.00
    6    6   34      7.93      0.00
    0    8   34    -12.90      0.00
    2    8   34    -38.83      0.00
    4    8   34     -2.27      0.00
    6    8   34      0.59      0.00
    8    8   34      0.08      0.00
    0   10   34     18.98      0.00
    2   10   34    -21.67      0.00
    4   10   34     -6.55      0.00
    6   10   34     17.30      0.00
    8   10   34      1.19      0.00
   10   10   34     10.83      0.00
    0   12   34      6.50      0.00
    2   12   34    -23.66      0.00
    4   12   34      7.53      0.00
    6   12   34    -13.98      0.00
    8   12   34     -1.54      0.00
   10   12   34     10.24      0.00
   12   12   34    -48.39      0.00
    0   14   34     32.37      0.00
    2   14   34    -13.49      0.00
    4   14   34     -8.99      0.00
    6   14   34      2.08      0.00
    8   14   34     25.44      0.00
   10   14   34     -2.40      0.00
   12   14   34     -3.26      0.00
   14   14   34      1.88      0.00
    0   16   34      9.71      0.00
    2   16   34     -2.55      0.00
    4   16   34      6.38      0.00
    6   16   34     -5.16      0.00
    8   16   34      6.37      0.00
   10   16   34      4.23      0.00
   12   16   34     -1.15      0.00
   14   16   34     -2.17      0.00
   16   16   34     -8.46      0.00
    0   18   34    -17.98      0.00
    2   18   34      3.54      0.00
    4   18   34     -8.47      0.00
    6   18   34     15.53      0.00
    8   18   34      0.49      0.00
   10   18   34     14.25      0.00
   12   18   34      6.46      0.00
   14   18   34      4.04      0.00
   16   18   34      7.69      0.00
   18   18   34     -0.35      0.00
    0   20   34     -0.02      0.00
    2   20   34     29.86      0.00
    4   20   34     -2.93      0.00
    6   20   34     -5.29      0.00
    8   20   34    -17.36      0.00
   10   20   34      0.92      0.00
   12   20   34     20.31      0.00
   14   20   34     14.70      0.00
   16   20   34      3.15      0.00
   18   20   34     18.00      0.00
   20   20   34    -20.63      0.00
    0   22   34    -21.33      0.00
    2   22   34     16.21      0.00
    4   22   34    -12.50      0.00
    6   22   34      9.04      0.00
    8   22   34     10.84      0.00
   10   22   34     -7.27      0.00
   12   22   34      7.71      0.00
   14   22   34     -5.03      0.00
   16   22   34      5.98      0.00
   18   22   34     -4.33      0.00
   20   22   34      5.28      0.00
   22   22   34     13.91      0.00
    0   24   34     10.40      0.00
    2   24   34    -55.64      0.00
    4   24   34    -12.49      0.00
    6   24   34      4.52      0.00
    8   24   34    -10.36      0.00
   10   24   34     -8.88      0.00
   12   24   34     45.70      0.00
   14   24   34     19.78      0.00
   16   24   34    -17.47      0.00
   18   24   34      9.14      0.00
   20   24   34      6.92      0.00
   22   24   34    -21.11      0.00
   24   24   34    -11.68      0.00
    0   26   34     -4.33      0.00
    2   26   34     -3.26      0.00
    4   26   34      2.57      0.00
    6   26   34    -11.03      0.00
    8   26   34    -23.33      0.00
   10   26   34     -9.65      0.00
   12   26   34     23.05      0.00
   14   26   34    -10.01      0.00
   16   26   34     -5.40      0.00
   18   26   34     -7.17      0.00
   20   26   34     23.91      0.00
   22   26   34     -2.53      0.00
   24   26   34      6.33      0.00
   26   26   34     42.65      0.00
    0   28   34     59.86      0.00
    2   28   34     31.30      0.00
    4   28   34    -10.23      0.00
    6   28   34      1.06      0.00
    8   28   34     -8.50      0.00
   10   28   34    -11.43      0.00
   12   28   34     19.61      0.00
   14   28   34     -0.06      0.00
   16   28   34     -3.76      0.00
   18   28   34     -3.87      0.00
   20   28   34     10.69      0.00
   22   28   34     -9.71      0.00
   24   28   34    -26.08      0.00
   26   28   34      5.30      0.00
   28   28   34    -21.89      0.00
    0   30   34      3.36      0.00
    2   30   34    -40.13      0.00
    4   30   34    -16.53      0.00
    6   30   34      9.63      0.00
    8   30   34    -19.03      0.00
   10   30   34     -0.49      0.00
   12   30   34     11.39      0.00
   14   30   34     14.30      0.00
   16   30   34    -13.71      0.00
   18   30   34     -3.96      0.00
   20   30   34      1.42      0.00
   22   30   34     -0.25      0.00
   24   30   34     -0.74      0.00
   26   30   34     -9.16      0.00
   28   30   34    -22.81      0.00
   30   30   34    -12.74      0.00
    0   32   34     -7.29      0.00
    2   32   34    -36.34      0.00
    4   32   34     -0.11      0.00
    6   32   34     25.19      0.00
    8   32   34     11.71      0.00
   10   32   34    -11.50      0.00
   12   32   34     17.36      0.00
   14   32   34     13.62      0.00
   16   32   34      7.22      0.00
   18   32   34     -3.22      0.00
   20   32   34     14.42      0.00
   22   32   34    -10.31      0.00
   24   32   34     10.89      0.00
   26   32   34      4.37      0.00
   28   32   34    -18.26      0.00
   30   32   34      6.76      0.00
   32   32   34     15.23      0.00
    0   34   34     22.01      0.00
    2   34   34    -44.97      0.00
    4   34   34    -14.68      0.00
    6   34   34     22.41      0.00
    8   34   34     11.27      0.00
   10   34   34    -14.11      0.00
   12   34   34      4.47      0.00
   14   34   34     -6.35      0.00
   16   34   34     -5.51      0.00
   18   34   34      2.34      0.00
   20   34   34    -13.56      0.00
   22   34   34      0.91      0.00
   24   34   34    -16.18      0.00
   26   34   34    -38.42      0.00
   28   34   34     -1.81      0.00
   30   34   34      1.85      0.00
   32   34   34    -34.44      0.00
   34   34   34    -40.02      0.00
    1    3   35      5.22      0.00
    1    5   35      8.26      0.00
    3    5   35     25.56      0.00
    1    7   35     42.95      0.00
    3    7   35     16.30      0.00
    5    7   35     17.40      0.00
    1    9   35     36.91      0.00
    3    9   35     21.19      0.00
    5    9   35     27.89      0.00
    7    9   35    -15.61      0.00
    1   11   35     16.29      0.00
    3   11   35     -7.24      0.00
    5   11   35      6.81      0.00
    7   11   35     14.86      0.00
    9   11   35     40.18      0.00
    1   13   35      1.57      0.00
    3   13   35    -23.18      0.00
    5   13   35     13.07      0.00
    7   13   35    -11.32      0.00
    9   13   35    -21.38      0.00
   11   13   35    -26.88      0.00
    1   15   35    -13.97      0.00
    3   15   35     13.08      0.00
    5   15   35    -10.55      0.00
    7   15   35      9.36      0.00
    9   15   35    -23.41      0.00
   11   15   35      5.05      0.00
   13   15   35    -50.09      0.00
    1   17   35     23.74      0.00
    3   17   35      7.96      0.00
    5   17   35    -10.13      0.00
    7   17   35     -1.19      0.00
    9   17   35     16.75      0.00
   11   17   35    -27.89      0.00
   13   17   35    -26.93      0.00
   15   17   35      8.47      0.00
    1   19   35     -6.68      0.00
    3   19   35    -33.86      0.00
    5   19   35    -23.12      0.00
    7   19   35     28.00      0.00
    9   19   35     10.91      0.00
   11   19   35     -9.56      0.00
   13   19   35    -31.13      0.00
   15   19   35     31.27      0.00
   17   19   35      6.90      0.00
    1   21   35     12.35      0.00
    3   21   35      7.77      0.00
    5   21   35     -6.13      0.00
    7   21   35      1.57      0.00
    9   21   35     -7.33      0.00
   11   21   35      4.00      0.00
   13   21   35    -11.55      0.00
   15   21   35      6.54      0.00
   17   21   35     20.50      0.00
   19   21   35    -14.50      0.00
    1   23   35    -13.35      0.00
    3   23   35     -0.18      0.00
    5   23   35      3.15      0.00
    7   23   35     15.87      0.00
    9   23   35      4.93      0.00
   11   23   35     13.48      0.00
   13   23   35     -1.40      0.00
   15   23   35    -22.00      0.00
   17   23   35    -12.63      0.00
   19   23   35     -7.51      0.00
   21   23   35      4.88      0.00
    1   25   35    -12.98      0.00
    3   25   35     -8.23      0.00
    5   25   35     -0.47      0.00
    7   25   35     42.97      0.00
    9   25   35     47.88      0.00
   11   25   35     -2.51      0.00
   13   25   35      5.50      0.00
   15   25   35     -1.18      0.00
   17   25   35     -8.19      0.00
   19   25   35     -0.34      0.00
   21   25   35     -4.68      0.00
   23   25   35     18.83      0.00
    1   27   35     12.94      0.00
    3   27   35      7.43      0.00
    5   27   35     -7.14      0.00
    7   27   35    -17.01      0.00
    9   27   35      5.51      0.00
   11   27   35     17.15      0.00
   13   27   35      3.83      0.00
   15   27   35      3.06      0.00
   17   27   35      0.97      0.00
   19   27   35     -6.67      0.00
   21   27   35     15.32      0.00
   23   27   35     -7.08      0.00
   25   27   35      1.87      0.00
    1   29   35      0.31      0.00
    3   29   35      6.95      0.00
    5   29   35     -5.66      0.00
    7   29   35    -53.84      0.00
    9   29   35    -26.13      0.00
   11   29   35     -3.33      0.00
   13   29   35     13.45      0.00
   15   29   35      0.07      0.00
   17   29   35     10.44      0.00
   19   29   35     19.67      0.00
   21   29   35     -3.84      0.00
   23   29   35      8.96      0.00
   25   29   35    -15.93      0.00
   27   29   35     -0.77      0.00
    1   31   35     -4.46      0.00
    3   31   35     10.69      0.00
    5   31   35      1.64      0.00
    7   31   35     -3.30      0.00
    9   31   35    -11.78      0.00
   11   31   35     -6.24      0.00
   13   31   35     10.48      0.00
   15   31   35     17.94      0.00
   17   31   35     18.15      0.00
   19   31   35     11.80      0.00
   21   31   35     14.55      0.00
   23   31   35     -4.76      0.00
   25   31   35     10.50      0.00
   27   31   35     -3.42      0.00
   29   31   35      9.84      0.00
    1   33   35     -0.63      0.00
    3   33   35     -0.04      0.00
    5   33   35      2.34      0.00
    7   33   35     -7.13      0.00
    9   33   35    -23.93      0.00
   11   33   35    -12.78      0.00
   13   33   35     -2.59      0.00
   15   33   35     20.44      0.00
   17   33   35      4.21      0.00
   19   33   35     -3.57      0.00
   21   33   35     10.64      0.00
   23   33   35      5.48      0.00
   25   33   35     10.09      0.00
   27   33   35      4.51      0.00
   29   33   35     -0.12      0.00
   31   33   35     -0.24      0.00
    0    0   36    135.72      0.00
    0    2   36      0.62      0.00
    2    2   36    -18.93      0.00
    0    4   36     -8.47      0.00
    2    4   36    -14.21      0.00
    4    4   36     -0.10      0.00
    0    6   36      1.05      0.00
    2    6   36     -3.37      0.00
    4    6   36      0.06      0.00
    6    6   36     -4.89      0.00
    0    8   36     -5.93      0.00
    2    8   36     40.25      0.00
    4    8   36     11.59      0.00
    6    8   36     -6.97      0.00
    8    8   36     21.67      0.00
    0   10   36     -5.24      0.00
    2   10   36     13.11      0.00
    4   10   36      7.60      0.00
    6   10   36    -28.21      0.00
    8   10   36     -9.24      0.00
   10   10   36     -0.54      0.00
    0   12   36     35.63      0.00
    2   12   36      5.15      0.00
    4   12   36     19.94      0.00
    6   12   36    -26.92      0.00
    8   12   36    -50.04      0.00
   10   12   36     -8.42      0.00
   12   12   36     43.63      0.00
    0   14   36    -16.51      0.00
    2   14   36     -8.98      0.00
    4   14   36      6.54      0.00
    6   14   36    -25.52      0.00
    8   14   36      3.91      0.00
   10   14   36      3.19      0.00
   12   14   36    -10.21      0.00
   14   14   36     -3.18      0.00
    0   16   36     -3.49      0.00
    2   16   36    -17.99      0.00
    4   16   36     12.93      0.00
    6   16   36    -15.92      0.00
    8   16   36     12.19      0.00
   10   16   36    -16.30      0.00
   12   16   36     -4.05      0.00
   14   16   36     19.56      0.00
   16   16   36      3.40      0.00
    0   18   36    -15.44      0.00
    2   18   36     24.81      0.00
    4   18   36      2.41      0.00
    6   18   36      5.45      0.00
    8   18   36      5.41      0.00
   10   18   36     -2.18      0.00
   12   18   36      3.99      0.00
   14   18   36    -24.44      0.00
   16   18   36     16.59      0.00
   18   18   36      8.02      0.00
    0   20   36    -10.48      0.00
    2   20   36      9.46      0.00
    4   20   36     -0.11      0.00
    6   20   36    -32.29      0.00
    8   20   36    -41.34      0.00
   10   20   36     14.50      0.00
   12   20   36     -0.68      0.00
   14   20   36     -5.55      0.00
   16   20   36     -2.07      0.00
   18   20   36     -0.20      0.00
   20   20   36      7.93      0.00
    0   22   36    -44.55      0.00
    2   22   36    -10.39      0.00
    4   22   36     10.71      0.00
    6   22   36    -18.09      0.00
    8   22   36     -8.62      0.00
   10   22   36      2.50      0.00
   12   22   36      4.35      0.00
   14   22   36    -22.68      0.00
   16   22   36     -6.64      0.00
   18   22   36     17.67      0.00
   20   22   36     -3.97      0.00
   22   22   36    -30.46      0.00
    0   24   36     -0.74      0.00
    2   24   36      0.80      0.00
    4   24   36      4.34      0.00
    6   24   36    -50.87      0.00
    8   24   36     11.40      0.00
   10   24   36     -4.72      0.00
   12   24   36     17.96      0.00
   14   24   36      5.24      0.00
   16   24   36      4.90      0.00
   18   24   36     -2.37      0.00
   20   24   36     -0.23      0.00
   22   24   36     10.97      0.00
   24   24   36      5.09      0.00
    0   26   36     -0.79      0.00
    2   26   36    -31.04      0.00
    4   26   36     -5.37      0.00
    6   26   36    -18.56      0.00
    8   26   36      5.91      0.00
   10   26   36     -0.77      0.00
   12   26   36     11.73      0.00
   14   26   36     -7.07      0.00
   16   26   36      5.18      0.00
   18   26   36      0.10      0.00
   20   26   36     -4.87      0.00
   22   26   36    -17.41      0.00
   24   26   36      3.54      0.00
   26   26   36     35.53      0.00
    0   28   36     31.43      0.00
    2   28   36     19.42      0.00
    4   28   36     -4.71      0.00
    6   28   36     -0.34      0.00
    8   28   36      2.07      0.00
   10   28   36      3.43      0.00
   12   28   36      7.31      0.00
   14   28   36      6.51      0.00
   16   28   36      0.33      0.00
   18   28   36      1.04      0.00
   20   28   36    -22.95      0.00
   22   28   36    -10.42      0.00
   24   28   36     -7.69      0.00
   26   28   36     -6.62      0.00
   28   28   36      6.67      0.00
    0   30   36     18.34      0.00
    2   30   36     -3.61      0.00
    4   30   36     -5.01      0.00
    6   30   36     23.50      0.00
    8   30   36      9.65      0.00
   10   30   36      7.00      0.00
   12   30   36     -6.81      0.00
   14   30   36      6.39      0.00
   16   30   36     -7.60      0.00
   18   30   36      8.43      0.00
   20   30   36      7.13      0.00
   22   30   36     -0.36      0.00
   24   30   36      8.55      0.00
   26   30   36     -7.56      0.00
   28   30   36      2.07      0.00
   30   30   36     -4.59      0.00
    0   32   36     -0.92      0.00
    2   32   36    -17.98      0.00
    4   32   36     -2.98      0.00
    6   32   36     -8.20      0.00
    8   32   36      1.64      0.00
   10   32   36      0.44      0.00
   12   32   36      5.62      0.00
   14   32   36      2.24      0.00
   16   32   36     18.13      0.00
   18   32   36     16.80      0.00
   20   32   36     -7.47      0.00
   22   32   36      9.13      0.00
   24   32   36     -0.01      0.00
   26   32   36     -4.81      0.00
   28   32   36      1.43      0.00
   30   32   36     13.02      0.00
   32   32   36     -1.37      0.00
    0   34   36     51.13      0.00
    2   34   36    -27.96      0.00
    4   34   36     -1.08      0.00
    6   34   36     -7.99      0.00
    8   34   36     14.37      0.00
   10   34   36     -7.74      0.00
   12   34   36     -9.94      0.00
   14   34   36      8.90      0.00
   16   34   36      2.47      0.00
   18   34   36     -7.81      0.00
   20   34   36    -13.66      0.00
   22   34   36     -0.93      0.00
   24   34   36     -0.91      0.00
   26   34   36     -9.84      0.00
   28   34   36     -9.12      0.00
   30   34   36     -6.13      0.00
   32   34   36      1.18      0.00
   34   34   36      4.06      0.00
    0   36   36    -10.96      0.00
    2   36   36      1.07      0.00
    4   36   36     22.07      0.00
    6   36   36     -7.73      0.00
    8   36   36      1.82      0.00
   10   36   36    -13.34      0.00
   12   36   36      0.72      0.00
   14   36   36      7.13      0.00
   16   36   36      1.72      0.00
   18   36   36      3.68      0.00
   20   36   36    -26.09      0.00
   22   36   36      1.29      0.00
   24   36   36     12.13      0.00
   26   36   36     11.61      0.00
   28   36   36     19.51      0.00
   30   36   36     -8.83      0.00
   32   36   36      6.60      0.00
   34   36   36     -8.73      0.00
   36   36   36      4.95      0.00
    1    3   37     10.38      0.00
    1    5   37     -1.56      0.00
    3    5   37     -1.90      0.00
    1    7   37    -79.86      0.00
    3    7   37      1.41      0.00
    5    7   37    -23.85      0.00
    1    9   37    -26.40      0.00
    3    9   37    -35.48      0.00
    5    9   37     -3.11      0.00
    7    9   37    -23.46      0.00
    1   11   37     -5.17      0.00
    3   11   37     -8.91      0.00
    5   11   37     -2.47      0.00
    7   11   37     20.10      0.00
    9   11   37     38.48      0.00
    1   13   37     -3.22      0.00
    3   13   37     -8.53      0.00
    5   13   37    -32.96      0.00
    7   13   37    -12.84      0.00
    9   13   37      1.43      0.00
   11   13   37    -31.17      0.00
    1   15   37     26.23      0.00
    3   15   37      7.38      0.00
    5   15   37      2.08      0.00
    7   15   37     17.21      0.00
    9   15   37      2.18      0.00
   11   15   37    -16.65      0.00
   13   15   37    -33.82      0.00
    1   17   37      5.36      0.00
    3   17   37     10.41      0.00
    5   17   37     -7.28      0.00
    7   17   37     -9.15      0.00
    9   17   37     -3.13      0.00
   11   17   37     22.47      0.00
   13   17   37    -11.96      0.00
   15   17   37      5.37      0.00
    1   19   37     -3.02      0.00
    3   19   37     -5.49      0.00
    5   19   37     -7.16      0.00
    7   19   37     40.48      0.00
    9   19   37     13.45      0.00
   11   19   37      2.83      0.00
   13   19   37     -5.23      0.00
   15   19   37      4.08      0.00
   17   19   37    -18.65      0.00
    1   21   37      4.93      0.00
    3   21   37     -3.52      0.00
    5   21   37      0.74      0.00
    7   21   37      8.81      0.00
    9   21   37    -17.02      0.00
   11   21   37     10.18      0.00
   13   21   37     28.09      0.00
   15   21   37      7.47      0.00
   17   21   37     -9.18      0.00
   19   21   37    -15.16      0.00
    1   23   37     27.74      0.00
    3   23   37    -12.12      0.00
    5   23   37     -6.21      0.00
    7   23   37     -9.07      0.00
    9   23   37     15.93      0.00
   11   23   37     30.38      0.00
   13   23   37     15.23      0.00
   15   23   37      4.16      0.00
   17   23   37     -9.30      0.00
   19   23   37      4.69      0.00
   21   23   37    -14.02      0.00
    1   25   37     19.18      0.00
    3   25   37      6.81      0.00
    5   25   37     -5.13      0.00
    7   25   37      2.09      0.00
    9   25   37     -1.74      0.00
   11   25   37    -25.86      0.00
   13   25   37    -11.32      0.00
   15   25   37     -1.69      0.00
   17   25   37      0.68      0.00
   19   25   37     -5.15      0.00
   21   25   37      3.77      0.00
   23   25   37    -24.25      0.00
    1   27   37     -1.02      0.00
    3   27   37      3.14      0.00
    5   27   37    -39.93      0.00
    7   27   37    -17.37      0.00
    9   27   37    -26.49      0.00
   11   27   37     -5.96      0.00
   13   27   37    -13.37      0.00
   15   27   37    -11.58      0.00
   17   27   37     -3.54      0.00
   19   27   37      6.34      0.00
   21   27   37    -19.69      0.00
   23   27   37     -2.97      0.00
   25   27   37    -14.89      0.00
    1   29   37    -13.60      0.00
    3   29   37    -27.69      0.00
    5   29   37    -13.73      0.00
    7   29   37      4.95      0.00
    9   29   37     -1.20      0.00
   11   29   37     10.89      0.00
   13   29   37    -12.59      0.00
   15   29   37      3.21      0.00
   17   29   37      1.36      0.00
   19   29   37      2.13      0.00
   21   29   37     15.30      0.00
   23   29   37     -4.29      0.00
   25   29   37     -8.21      0.00
   27   29   37     -8.72      0.00
    1   31   37    -13.21      0.00
    3   31   37     -1.02      0.00
    5   31   37    -12.00      0.00
    7   31   37      1.76      0.00
    9   31   37      2.67      0.00
   11   31   37    -16.10      0.00
   13   31   37    -20.67      0.00
   15   31   37      2.13      0.00
   17   31   37     -5.34      0.00
   19   31   37     -0.27      0.00
   21   31   37     -8.12      0.00
   23   31   37      4.01      0.00
   25   31   37      2.30      0.00
   27   31   37     -4.06      0.00
   29   31   37      7.48      0.00
    1   33   37     11.71      0.00
    3   33   37      6.91      0.00
    5   33   37      0.81      0.00
    7   33   37      2.45      0.00
    9   33   37     14.53      0.00
   11   33   37     -0.02      0.00
   13   33   37     10.77      0.00
   15   33   37      6.01      0.00
   17   33   37     -2.18      0.00
   19   33   37      2.62      0.00
   21   33   37      2.74      0.00
   23   33   37      3.89      0.00
   25   33   37      6.22      0.00
   27   33   37     -7.69      0.00
   29   33   37      9.85      0.00
   31   33   37      4.07      0.00
    1   35   37    -26.80      0.00
    3   35   37     -0.57      0.00
    5   35   37    -10.83      0.00
    7   35   37     -0.10      0.00
    9   35   37     -1.28      0.00
   11   35   37    -11.41      0.00
   13   35   37     11.87      0.00
   15   35   37      6.50      0.00
   17   35   37      6.70      0.00
   19   35   37     15.48      0.00
   21   35   37     10.10      0.00
   23   35   37      3.41      0.00
   25   35   37     15.91      0.00
   27   35   37     -9.22      0.00
   29   35   37     -4.75      0.00
   31   35   37      4.95      0.00
   33   35   37      6.68      0.00
    0    0   38     87.32      0.00
    0    2   38     28.08      0.00
    2    2   38     -6.81      0.00
    0    4   38     -4.46      0.00
    2    4   38      3.36      0.00
    4    4   38     41.54      0.00
    0    6   38    -22.38      0.00
    2    6   38     13.94      0.00
    4    6   38     14.59      0.00
    6    6   38      3.38      0.00
    0    8   38     -2.67      0.00
    2    8   38     36.66      0.00
    4    8   38      6.90      0.00
    6    8   38    -10.86      0.00
    8    8   38     38.92      0.00
    0   10   38     44.40      0.00
    2   10   38     -0.84      0.00
    4   10   38    -35.02      0.00
    6   10   38      3.07      0.00
    8   10   38      5.56      0.00
   10   10   38    -13.91      0.00
    0   12   38    -19.91      0.00
    2   12   38     -8.48      0.00
    4   12   38     -1.19      0.00
    6   12   38    -12.15      0.00
    8   12   38    -29.55      0.00
   10   12   38     17.21      0.00
   12   12   38     39.77      0.00
    0   14   38    -29.45      0.00
    2   14   38    -34.47      0.00
    4   14   38    -22.94      0.00
    6   14   38    -15.44      0.00
    8   14   38     23.22      0.00
   10   14   38      7.64      0.00
   12   14   38     -8.03      0.00
   14   14   38    -25.88      0.00
    0   16   38     14.21      0.00
    2   16   38     -3.65      0.00
    4   16   38    -35.52      0.00
    6   16   38    -11.51      0.00
    8   16   38      0.56      0.00
   10   16   38    -20.26      0.00
   12   16   38     -2.76      0.00
   14   16   38     -7.55      0.00
   16   16   38     19.13      0.00
    0   18   38      6.70      0.00
    2   18   38    -11.62      0.00
    4   18   38     -5.23      0.00
    6   18   38      3.39      0.00
    8   18   38     -3.82      0.00
   10   18   38    -11.57      0.00
   12   18   38    -19.55      0.00
   14   18   38     14.37      0.00
   16   18   38      2.30      0.00
   18   18   38    -23.42      0.00
    0   20   38    -23.29      0.00
    2   20   38      0.10      0.00
    4   20   38    -25.14      0.00
    6   20   38     -8.63      0.00
    8   20   38     13.58      0.00
   10   20   38    -15.21      0.00
   12   20   38     -6.90      0.00
   14   20   38     10.91      0.00
   16   20   38     -4.03      0.00
   18   20   38    -10.76      0.00
   20   20   38     -5.58      0.00
    0   22   38    -21.68      0.00
    2   22   38    -22.95      0.00
    4   22   38     -9.48      0.00
    6   22   38     -1.37      0.00
    8   22   38     27.70      0.00
   10   22   38     -4.86      0.00
   12   22   38     -2.83      0.00
   14   22   38     -7.22      0.00
   16   22   38    -18.06      0.00
   18   22   38    -13.52      0.00
   20   22   38     -5.59      0.00
   22   22   38     23.25      0.00
    0   24   38     24.41      0.00
    2   24   38      1.54      0.00
    4   24   38     -6.33      0.00
    6   24   38    -27.50      0.00
    8   24   38      4.64      0.00
   10   24   38    -12.72      0.00
   12   24   38     -3.03      0.00
   14   24   38     -9.43      0.00
   16   24   38     -3.25      0.00
   18   24   38    -17.67      0.00
   20   24   38      9.94      0.00
   22   24   38     21.77      0.00
   24   24   38     56.30      0.00
    0   26   38      8.62      0.00
    2   26   38     19.91      0.00
    4   26   38     14.43      0.00
    6   26   38     -6.82      0.00
    8   26   38     34.08      0.00
   10   26   38     -9.80      0.00
   12   26   38    -29.61      0.00
   14   26   38      8.33      0.00
   16   26   38      5.16      0.00
   18   26   38     -5.40      0.00
   20   26   38    -11.11      0.00
   22   26   38     -3.10      0.00
   24   26   38     15.20      0.00
   26   26   38      9.13      0.00
    0   28   38    -10.57      0.00
    2   28   38     -4.58      0.00
    4   28   38    -14.56      0.00
    6   28   38     15.05      0.00
    8   28   38      8.59      0.00
   10   28   38      0.46      0.00
   12   28   38      3.27      0.00
   14   28   38     30.31      0.00
   16   28   38      3.32      0.00
   18   28   38      6.58      0.00
   20   28   38    -13.33      0.00
   22   28   38    -10.42      0.00
   24   28   38    -20.81      0.00
   26   28   38      9.41      0.00
   28   28   38    -10.39      0.00
    0   30   38     -6.67      0.00
    2   30   38     10.44      0.00
    4   30   38      2.62      0.00
    6   30   38      6.05      0.00
    8   30   38     21.68      0.00
   10   30   38     10.56      0.00
   12   30   38     -1.07      0.00
   14   30   38     -5.44      0.00
   16   30   38    -28.39      0.00
   18   30   38      9.09      0.00
   20   30   38     -3.62      0.00
   22   30   38    -19.84      0.00
   24   30   38    -15.69      0.00
   26   30   38    -11.78      0.00
   28   30   38     -2.88      0.00
   30   30   38      7.26      0.00
    0   32   38     -6.19      0.00
    2   32   38      9.37      0.00
    4   32   38    -14.47      0.00
    6   32   38    -12.13      0.00
    8   32   38      3.26      0.00
   10   32   38      9.77      0.00
   12   32   38     -7.49      0.00
   14   32   38      5.44      0.00
   16   32   38      6.98      0.00
   18   32   38     -9.45      0.00
   20   32   38      3.93      0.00
   22   32   38     14.54      0.00
   24   32   38     13.85      0.00
   26   32   38     17.00      0.00
   28   32   38     15.62      0.00
   30   32   38      2.83      0.00
   32   32   38      7.66      0.00
    0   34   38    -13.69      0.00
    2   34   38     17.08      0.00
    4   34   38      6.82      0.00
    6   34   38    -42.65      0.00
    8   34   38     21.71      0.00
   10   34   38     14.82      0.00
   12   34   38      4.73      0.00
   14   34   38      1.35      0.00
   16   34   38     -4.99      0.00
   18   34   38    -10.02      0.00
   20   34   38      8.24      0.00
   22   34   38      4.69      0.00
   24   34   38     -1.80      0.00
   26   34   38      4.94      0.00
   28   34   38     -5.54      0.00
   30   34   38      6.80      0.00
   32   34   38      0.69      0.00
   34   34   38     -1.67      0.00
    0   36   38      4.61      0.00
    2   36   38     10.76      0.00
    4   36   38     -1.48      0.00
    6   36   38     -3.63      0.00
    8   36   38     -8.41      0.00
   10   36   38     -3.29      0.00
   12   36   38     12.92      0.00
   14   36   38     -7.41      0.00
   16   36   38      3.55      0.00
   18   36   38      1.54      0.00
   20   36   38    -13.23      0.00
   22   36   38    -16.78      0.00
   24   36   38      5.27      0.00
   26   36   38     -3.44      0.00
   28   36   38      5.06      0.00
   30   36   38     10.59      0.00
   32   36   38      5.86      0.00
   34   36   38      7.84      0.00
   36   36   38     -3.05      0.00
    0   38   38      9.96      0.00
    2   38   38      4.09      0.00
    4   38   38      3.41      0.00
    6   38   38     13.54      0.00
    8   38   38      2.85      0.00
   10   38   38     -1.51      0.00
   12   38   38     16.86      0.00
   14   38   38      5.15      0.00
   16   38   38     -7.03      0.00
   18   38   38      2.34      0.00
   20   38   38     -7.77      0.00
   22   38   38      9.93      0.00
   24   38   38     11.33      0.00
   26   38   38     -2.05      0.00
   28   38   38      0.24      0.00
   30   38   38      5.39      0.00
   32   38   38      8.39      0.00
   34   38   38     -9.91      0.00
   36   38   38      7.75      0.00
   38   38   38    -40.86      0.00
    1    3   39     -6.83      0.00
    1    5   39    -15.67      0.00
    3    5   39     45.91      0.00
    1    7   39    -27.14      0.00
    3    7   39    -11.85      0.00
    5    7   39     25.76      0.00
    1    9   39     -3.44      0.00
    3    9   39      3.51      0.00
    5    9   39      5.92      0.00
    7    9   39      3.82      0.00
    1   11   39      6.32      0.00
    3   11   39      6.08      0.00
    5   11   39     20.46      0.00
    7   11   39    -10.14      0.00
    9   11   39      7.85      0.00
    1   13   39    -26.26      0.00
    3   13   39      2.82      0.00
    5   13   39     11.90      0.00
    7   13   39     11.69      0.00
    9   13   39    -31.12      0.00
   11   13   39      1.99      0.00
    1   15   39      7.50      0.00
    3   15   39     28.46      0.00
    5   15   39     19.69      0.00
    7   15   39     -2.77      0.00
    9   15   39    -10.74      0.00
   11   15   39      2.61      0.00
   13   15   39     -2.62      0.00
    1   17   39      1.55      0.00
    3   17   39     12.65      0.00
    5   17   39    -18.93      0.00
    7   17   39    -25.83      0.00
    9   17   39    -10.86      0.00
   11   17   39     17.00      0.00
   13   17   39      0.90      0.00
   15   17   39     -9.47      0.00
    1   19   39      9.13      0.00
    3   19   39      5.14      0.00
    5   19   39     32.10      0.00
    7   19   39     -6.76      0.00
    9   19   39     -5.57      0.00
   11   19   39      2.58      0.00
   13   19   39     12.51      0.00
   15   19   39     -2.37      0.00
   17   19   39     20.74      0.00
    1   21   39    -10.70      0.00
    3   21   39    -12.40      0.00
    5   21   39     13.44      0.00
    7   21   39      4.57      0.00
    9   21   39     -8.26      0.00
   11   21   39     -8.39      0.00
   13   21   39      2.66      0.00
   15   21   39     12.94      0.00
   17   21   39      9.03      0.00
   19   21   39      5.27      0.00
    1   23   39    -18.20      0.00
    3   23   39     -9.11      0.00
    5   23   39     12.60      0.00
    7   23   39     -2.16      0.00
    9   23   39      1.64      0.00
   11   23   39    -16.36      0.00
   13   23   39     -1.36      0.00
   15   23   39    -23.50      0.00
   17   23   39     12.24      0.00
   19   23   39     -4.26      0.00
   21   23   39    -13.18      0.00
    1   25   39    -11.20      0.00
    3   25   39      4.90      0.00
    5   25   39     15.26      0.00
    7   25   39     32.97      0.00
    9   25   39    -23.01      0.00
   11   25   39     14.60      0.00
   13   25   39     -6.93      0.00
   15   25   39    -11.22      0.00
   17   25   39      8.54      0.00
   19   25   39     -0.06      0.00
   21   25   39     -6.63      0.00
   23   25   39     -7.20      0.00
    1   27   39     -4.17      0.00
    3   27   39    -22.62      0.00
    5   27   39     20.83      0.00
    7   27   39      1.42      0.00
    9   27   39     -5.75      0.00
   11   27   39      5.14      0.00
   13   27   39     -2.39      0.00
   15   27   39      5.91      0.00
   17   27   39      7.69      0.00
   19   27   39    -13.98      0.00
   21   27   39    -14.96      0.00
   23   27   39     -2.12      0.00
   25   27   39     -3.80      0.00
    1   29   39    -20.53      0.00
    3   29   39    -20.39      0.00
    5   29   39     -2.37      0.00
    7   29   39     43.23      0.00
    9   29   39      0.60      0.00
   11   29   39     -5.01      0.00
   13   29   39     -7.63      0.00
   15   29   39     -2.82      0.00
   17   29   39     18.40      0.00
   19   29   39      4.10      0.00
   21   29   39    -16.14      0.00
   23   29   39      8.55      0.00
   25   29   39      2.12      0.00
   27   29   39     -1.57      0.00
    1   31   39      1.89      0.00
    3   31   39     -8.22      0.00
    5   31   39     -3.93      0.00
    7   31   39      0.39      0.00
    9   31   39      1.73      0.00
   11   31   39     -9.35      0.00
   13   31   39      6.86      0.00
   15   31   39     -2.01      0.00
   17   31   39      2.40      0.00
   19   31   39      7.90      0.00
   21   31   39    -11.89      0.00
   23   31   39      3.38      0.00
   25   31   39     -2.18      0.00
   27   31   39     15.52      0.00
   29   31   39     -4.83      0.00
    1   33   39     -1.58      0.00
    3   33   39     -6.17      0.00
    5   33   39    -29.00      0.00
    7   33   39     -5.40      0.00
    9   33   39     18.63      0.00
   11   33   39     -2.32      0.00
   13   33   39     -2.30      0.00
   15   33   39     -7.87      0.00
   17   33   39      2.24      0.00
   19   33   39     -9.76      0.00
   21   33   39     18.72      0.00
   23   33   39    -10.49      0.00
   25   33   39      0.64      0.00
   27   33   39     -3.88      0.00
   29   33   39     -7.01      0.00
   31   33   39     -8.55      0.00
    1   35   39    -15.51      0.00
    3   35   39    -10.73      0.00
    5   35   39     -1.04      0.00
    7   35   39     13.77      0.00
    9   35   39     16.78      0.00
   11   35   39     -0.36      0.00
   13   35   39      3.89      0.00
   15   35   39    -11.17      0.00
   17   35   39     -6.50      0.00
   19   35   39     19.15      0.00
   21   35   39     13.06      0.00
   23   35   39     -5.79      0.00
   25   35   39     -3.27      0.00
   27   35   39      7.24      0.00
   29   35   39     -4.62      0.00
   31   35   39      6.60      0.00
   33   35   39      1.37      0.00
    1   37   39    -24.85      0.00
    3   37   39     -3.42      0.00
    5   37   39      3.89      0.00
    7   37   39     17.58      0.00
    9   37   39     13.25      0.00
   11   37   39     -5.53      0.00
   13   37   39      9.10      0.00
   15   37   39     -9.89      0.00
   17   37   39     -4.96      0.00
   19   37   39     21.43      0.00
   21   37   39      6.77      0.00
   23   37   39     -1.90      0.00
   25   37   39     -3.13      0.00
   27   37   39     -3.47      0.00
   29   37   39      7.34      0.00
   31   37   39      4.83      0.00
   33   37   39     12.34      0.00
   35   37   39      0.81      0.00
    0    0   40      3.58      0.00
    0    2   40      4.26      0.00
    2    2   40     17.70      0.00
    0    4   40     14.28      0.00
    2    4   40     -0.51      0.00
    4    4   40    -23.65      0.00
    0    6   40    -53.54      0.00
    2    6   40    -15.40      0.00
    4    6   40     -3.90      0.00
    6    6   40    -11.86      0.00
    0    8   40    -22.11      0.00
    2    8   40    -20.91      0.00
    4    8   40     -2.81      0.00
    6    8   40     17.95      0.00
    8    8   40     12.28      0.00
    0   10   40    -23.44      0.00
    2   10   40     13.52      0.00
    4   10   40      3.16      0.00
    6   10   40     22.83      0.00
    8   10   40     -2.44      0.00
   10   10   40    -15.30      0.00
    0   12   40     -2.30      0.00
    2   12   40      1.30      0.00
    4   12   40     22.43      0.00
    6   12   40     31.90      0.00
    8   12   40    -28.11      0.00
   10   12   40    -26.64      0.00
   12   12   40    -28.24      0.00
    0   14   40      9.51      0.00
    2   14   40    -15.57      0.00
    4   14   40     12.58      0.00
    6   14   40      1.75      0.00
    8   14   40     -7.99      0.00
   10   14   40    -14.19      0.00
   12   14   40     -7.06      0.00
   14   14   40     -7.79      0.00
    0   16   40    -20.23      0.00
    2   16   40     18.20      0.00
    4   16   40     -2.61      0.00
    6   16   40    -23.11      0.00
    8   16   40    -12.60      0.00
   10   16   40     23.45      0.00
   12   16   40      5.89      0.00
   14   16   40     -5.79      0.00
   16   16   40      6.48      0.00
    0   18   40    -40.64      0.00
    2   18   40     -7.52      0.00
    4   18   40      3.12      0.00
    6   18   40    -14.97      0.00
    8   18   40      2.79      0.00
   10   18   40      9.25      0.00
   12   18   40    -11.13      0.00
   14   18   40      7.77      0.00
   16   18   40     -0.77      0.00
   18   18   40     -2.77      0.00
    0   20   40     -2.90      0.00
    2   20   40      2.23      0.00
    4   20   40     -7.17      0.00
    6   20   40     10.88      0.00
    8   20   40    -13.43      0.00
   10   20   40      0.32      0.00
   12   20   40    -23.39      0.00
   14   20   40    -15.76      0.00
   16   20   40      7.56      0.00
   18   20   40      9.36      0.00
   20   20   40      2.16      0.00
    0   22   40     -1.61      0.00
    2   22   40    -15.30      0.00
    4   22   40      0.10      0.00
    6   22   40    -19.58      0.00
    8   22   40     -9.13      0.00
   10   22   40     -5.28      0.00
   12   22   40    -16.04      0.00
   14   22   40      0.17      0.00
   16   22   40      6.85      0.00
   18   22   40      1.72      0.00
   20   22   40     -3.41      0.00
   22   22   40     -3.03      0.00
    0   24   40     27.97      0.00
    2   24   40     -5.44      0.00
    4   24   40    -12.51      0.00
    6   24   40    -45.13      0.00
    8   24   40      0.70      0.00
   10   24   40     18.09      0.00
   12   24   40     -5.07      0.00
   14   24   40      3.51      0.00
   16   24   40      7.45      0.00
   18   24   40     -0.76      0.00
   20   24   40     -2.91      0.00
   22   24   40      0.51      0.00
   24   24   40     27.30      0.00
    0   26   40     35.64      0.00
    2   26   40     47.25      0.00
    4   26   40     24.61      0.00
    6   26   40     -8.01      0.00
    8   26   40    -36.60      0.00
   10   26   40     -0.82      0.00
   12   26   40    -27.09      0.00
   14   26   40    -32.02      0.00
   16   26   40     -1.80      0.00
   18   26   40     -6.20      0.00
   20   26   40    -10.78      0.00
   22   26   40      9.74      0.00
   24   26   40     11.65      0.00
   26   26   40     33.68      0.00
    0   28   40    -17.42      0.00
    2   28   40     14.91      0.00
    4   28   40      7.68      0.00
    6   28   40    -23.40      0.00
    8   28   40    -18.38      0.00
   10   28   40     19.78      0.00
   12   28   40    -31.46      0.00
   14   28   40     -7.71      0.00
   16   28   40     -6.92      0.00
   18   28   40     -3.44      0.00
   20   28   40     15.58      0.00
   22   28   40    -12.73      0.00
   24   28   40     -3.05      0.00
   26   28   40      1.41      0.00
   28   28   40      4.56      0.00
    0   30   40     -6.65      0.00
    2   30   40      3.60      0.00
    4   30   40      3.17      0.00
    6   30   40     15.76      0.00
    8   30   40    -13.95      0.00
   10   30   40      9.47      0.00
   12   30   40    -17.14      0.00
   14   30   40      9.56      0.00
   16   30   40      1.52      0.00
   18   30   40     -8.01      0.00
   20   30   40     -0.75      0.00
   22   30   40      0.96      0.00
   24   30   40     11.29      0.00
   26   30   40      2.42      0.00
   28   30   40     -3.32      0.00
   30   30   40    -11.35      0.00
    0   32   40     -8.54      0.00
    2   32   40      4.17      0.00
    4   32   40     20.51      0.00
    6   32   40    -21.12      0.00
    8   32   40     21.15      0.00
   10   32   40      3.38      0.00
   12   32   40      3.47      0.00
   14   32   40      7.79      0.00
   16   32   40     17.97      0.00
   18   32   40    -19.14      0.00
   20   32   40      1.20      0.00
   22   32   40     20.51      0.00
   24   32   40     12.34      0.00
   26   32   40     10.23      0.00
   28   32   40    -10.26      0.00
   30   32   40      5.25      0.00
   32   32   40    -18.81      0.00
    0   34   40    -19.90      0.00
    2   34   40      6.90      0.00
    4   34   40     -1.89      0.00
    6   34   40      1.12      0.00
    8   34   40     10.49      0.00
   10   34   40     15.17      0.00
   12   34   40     10.10      0.00
   14   34   40    -17.37      0.00
   16   34   40     -0.92      0.00
   18   34   40     -9.06      0.00
   20   34   40    -13.93      0.00
   22   34   40      1.82      0.00
   24   34   40     -1.64      0.00
   26   34   40    -33.60      0.00
   28   34   40    -11.01      0.00
   30   34   40     -4.31      0.00
   32   34   40     -0.08      0.00
   34   34   40     -3.49      0.00
    0   36   40    -14.48      0.00
    2   36   40     -0.36      0.00
    4   36   40     11.93      0.00
    6   36   40     -8.10      0.00
    8   36   40      2.74      0.00
   10   36   40     12.05      0.00
   12   36   40      9.52      0.00
   14   36   40     10.50      0.00
   16   36   40     -5.03      0.00
   18   36   40      3.78      0.00
   20   36   40     -4.52      0.00
   22   36   40      1.44      0.00
   24   36   40     13.83      0.00
   26   36   40    -21.16      0.00
   28   36   40    -13.93      0.00
   30   36   40     -8.25      0.00
   32   36   40     20.31      0.00
   34   36   40     -4.73      0.00
   36   36   40    -17.71      0.00
    0   38   40    -19.39      0.00
    2   38   40      5.66      0.00
    4   38   40      4.31      0.00
    6   38   40     -0.75      0.00
    8   38   40     -0.50      0.00
   10   38   40     26.32      0.00
   12   38   40      7.49      0.00
   14   38   40      8.32      0.00
   16   38   40     -3.93      0.00
   18   38   40     -9.87      0.00
   20   38   40      5.93      0.00
   22   38   40     10.47      0.00
   24   38   40     20.67      0.00
   26   38   40     -6.16      0.00
   28   38   40      1.18      0.00
   30   38   40      4.14      0.00
   32   38   40     -2.41      0.00
   34   38   40      5.75      0.00
   36   38   40      2.71      0.00
   38   38   40    -25.16      0.00
    0   40   40     -8.79      0.00
    2   40   40     16.60      0.00
    4   40   40     -8.96      0.00
    6   40   40     -4.23      0.00
    8   40   40    -15.18      0.00
   10   40   40     -5.05      0.00
   12   40   40     21.79      0.00
   14   40   40     -6.53      0.00
   16   40   40    -17.51      0.00
   18   40   40      2.55      0.00
   20   40   40     -4.41      0.00
   22   40   40    -14.57      0.00
   24   40   40    -12.71      0.00
   26   40   40     -3.02      0.00
   28   40   40     -2.49      0.00
   30   40   40     -0.15      0.00
   32   40   40     -3.62      0.00
   34   40   40    -17.88      0.00
   36   40   40    -11.20      0.00
   38   40   40      9.78      0.00
   40   40   40     69.36      0.00
    1    3   41      3.18      0.00
    1    5   41     11.28      0.00
    3    5   41     -2.14      0.00
    1    7   41    -17.16      0.00
    3    7   41    -12.41      0.00
    5    7   41     -9.53      0.00
    1    9   41      7.66      0.00
    3    9   41    -35.51      0.00
    5    9   41     -7.86      0.00
    7    9   41      5.20      0.00
    1   11   41      1.90      0.00
    3   11   41     -0.88      0.00
    5   11   41      2.96      0.00
    7   11   41     12.83      0.00
    9   11   41    -17.78      0.00
    1   13   41    -27.36      0.00
    3   13   41     10.19      0.00
    5   13   41    -20.08      0.00
    7   13   41    -17.73      0.00
    9   13   41      1.47      0.00
   11   13   41      0.25      0.00
    1   15   41     23.41      0.00
    3   15   41     31.44      0.00
    5   15   41      5.89      0.00
    7   15   41      8.43      0.00
    9   15   41     -4.72      0.00
   11   15   41      1.86      0.00
   13   15   41     -4.80      0.00
    1   17   41     24.91      0.00
    3   17   41     14.37      0.00
    5   17   41      0.12      0.00
    7   17   41     11.71      0.00
    9   17   41     11.74      0.00
   11   17   41     18.64      0.00
   13   17   41    -14.61      0.00
   15   17   41     -0.80      0.00
    1   19   41      9.70      0.00
    3   19   41     13.15      0.00
    5   19   41    -13.24      0.00
    7   19   41     -7.69      0.00
    9   19   41     28.75      0.00
   11   19   41    -18.14      0.00
   13   19   41    -15.74      0.00
   15   19   41    -15.25      0.00
   17   19   41     -5.37      0.00
    1   21   41     22.37      0.00
    3   21   41     30.08      0.00
    5   21   41      6.58      0.00
    7   21   41    -14.88      0.00
    9   21   41     19.09      0.00
   11   21   41      8.53      0.00
   13   21   41      4.61      0.00
   15   21   41    -22.27      0.00
   17   21   41    -18.57      0.00
   19   21   41    -15.25      0.00
    1   23   41     19.09      0.00
    3   23   41      8.31      0.00
    5   23   41    -20.28      0.00
    7   23   41     -7.18      0.00
    9   23   41      1.33      0.00
   11   23   41     -1.50      0.00
   13   23   41      3.58      0.00
   15   23   41      9.24      0.00
   17   23   41     -6.89      0.00
   19   23   41     23.68      0.00
   21   23   41      6.21      0.00
    1   25   41      2.76      0.00
    3   25   41     -3.57      0.00
    5   25   41    -14.38      0.00
    7   25   41    -18.89      0.00
    9   25   41      3.62      0.00
   11   25   41    -11.72      0.00
   13   25   41     23.12      0.00
   15   25   41     11.10      0.00
   17   25   41    -11.57      0.00
   19   25   41      8.40      0.00
   21   25   41     12.42      0.00
   23   25   41      1.94      0.00
    1   27   41     19.33      0.00
    3   27   41     18.07      0.00
    5   27   41    -18.46      0.00
    7   27   41     12.02      0.00
    9   27   41     -7.67      0.00
   11   27   41     16.35      0.00
   13   27   41     -4.19      0.00
   15   27   41     12.06      0.00
   17   27   41     14.31      0.00
   19   27   41    -21.40      0.00
   21   27   41     -5.64      0.00
   23   27   41      6.97      0.00
   25   27   41     -5.56      0.00
    1   29   41      6.40      0.00
    3   29   41    -11.66      0.00
    5   29   41     -6.86      0.00
    7   29   41     -3.38      0.00
    9   29   41      0.33      0.00
   11   29   41     -5.35      0.00
   13   29   41     13.21      0.00
   15   29   41     -6.61      0.00
   17   29   41      4.02      0.00
   19   29   41     24.81      0.00
   21   29   41     -3.93      0.00
   23   29   41    -19.11      0.00
   25   29   41     -7.90      0.00
   27   29   41     -3.38      0.00
    1   31   41      4.46      0.00
    3   31   41     17.23      0.00
    5   31   41      5.11      0.00
    7   31   41     -5.10      0.00
    9   31   41     11.83      0.00
   11   31   41      7.91      0.00
   13   31   41     27.97      0.00
   15   31   41      0.23      0.00
   17   31   41      2.58      0.00
   19   31   41     -0.90      0.00
   21   31   41    -20.90      0.00
   23   31   41    -14.06      0.00
   25   31   41     10.42      0.00
   27   31   41     -8.39      0.00
   29   31   41     -7.17      0.00
    1   33   41     -0.95      0.00
    3   33   41     -1.04      0.00
    5   33   41     -3.08      0.00
    7   33   41      3.77      0.00
    9   33   41     11.41      0.00
   11   33   41      1.46      0.00
   13   33   41     -3.74      0.00
   15   33   41    -10.90      0.00
   17   33   41     -3.51      0.00
   19   33   41     -7.64      0.00
   21   33   41     -5.76      0.00
   23   33   41    -12.53      0.00
   25   33   41     -5.71      0.00
   27   33   41     12.58      0.00
   29   33   41    -12.19      0.00
   31   33   41     -0.68      0.00
    1   35   41      3.27      0.00
    3   35   41    -14.50      0.00
    5   35   41    -11.07      0.00
    7   35   41     -2.75      0.00
    9   35   41     -8.34      0.00
   11   35   41     -8.05      0.00
   13   35   41     -3.41      0.00
   15   35   41     -1.37      0.00
   17   35   41    -10.00      0.00
   19   35   41    -10.09      0.00
   21   35   41    -11.55      0.00
   23   35   41     -3.09      0.00
   25   35   41     12.00      0.00
   27   35   41     -5.51      0.00
   29   35   41      0.15      0.00
   31   35   41      7.37      0.00
   33   35   41      2.50      0.00
    1   37   41     16.88      0.00
    3   37   41     -5.60      0.00
    5   37   41      9.59      0.00
    7   37   41     -9.93      0.00
    9   37   41     -0.59      0.00
   11   37   41      2.56      0.00
   13   37   41      9.55      0.00
   15   37   41     -4.54      0.00
   17   37   41     -5.09      0.00
   19   37   41    -12.83      0.00
   21   37   41     -2.20      0.00
   23   37   41     10.27      0.00
   25   37   41      4.92      0.00
   27   37   41     -4.22      0.00
   29   37   41     -4.85      0.00
   31   37   41      0.62      0.00
   33   37   41     -0.27      0.00
   35   37   41      3.21      0.00
    1   39   41     -8.56      0.00
    3   39   41     10.39      0.00
    5   39   41     12.33      0.00
    7   39   41     16.06      0.00
    9   39   41     -1.33      0.00
   11   39   41     10.74      0.00
   13   39   41      3.45      0.00
   15   39   41     -4.11      0.00
   17   39   41     -3.89      0.00
   19   39   41     -6.96      0.00
   21   39   41      0.44      0.00
   23   39   41      6.52      0.00
   25   39   41      2.46      0.00
   27   39   41    -18.42      0.00
   29   39   41    -18.98      0.00
   31   39   41     -1.06      0.00
   33   39   41      8.72      0.00
   35   39   41     18.14      0.00
   37   39   41      2.44      0.00
    0    0   42     37.87      0.00
    0    2   42      3.05      0.00
    2    2   42     -3.91      0.00
    0    4   42     -8.61      0.00
    2    4   42      9.32      0.00
    4    4   42     -0.46      0.00
    0    6   42     -8.74      0.00
    2    6   42     12.68      0.00
    4    6   42     12.56      0.00
    6    6   42      3.82      0.00
    0    8   42    -47.81      0.00
    2    8   42     14.13      0.00
    4    8   42     17.53      0.00
    6    8   42    -16.72      0.00
    8    8   42    -22.89      0.00
    0   10   42     -9.78      0.00
    2   10   42    -16.98      0.00
    4   10   42      9.46      0.00
    6   10   42      8.67      0.00
    8   10   42     19.48      0.00
   10   10   42      5.48      0.00
    0   12   42    -26.44      0.00
    2   12   42    -22.33      0.00
    4   12   42     12.93      0.00
    6   12   42      0.08      0.00
    8   12   42     -6.84      0.00
   10   12   42      2.17      0.00
   12   12   42    -29.15      0.00
    0   14   42    -15.63      0.00
    2   14   42     -1.47      0.00
    4   14   42    -12.17      0.00
    6   14   42      3.64      0.00
    8   14   42    -12.82      0.00
   10   14   42     -5.65      0.00
   12   14   42     -2.23      0.00
   14   14   42     26.74      0.00
    0   16   42     28.52      0.00
    2   16   42     16.29      0.00
    4   16   42     -8.93      0.00
    6   16   42     -3.67      0.00
    8   16   42      5.50      0.00
   10   16   42    -10.67      0.00
   12   16   42      5.90      0.00
   14   16   42     -4.85      0.00
   16   16   42     -6.07      0.00
    0   18   42    -15.95      0.00
    2   18   42      1.98      0.00
    4   18   42     -5.64      0.00
    6   18   42    -17.49      0.00
    8   18   42    -34.82      0.00
   10   18   42      3.29      0.00
   12   18   42      2.28      0.00
   14   18   42     -9.31      0.00
   16   18   42    -11.99      0.00
   18   18   42    -16.95      0.00
    0   20   42    -24.46      0.00
    2   20   42    -24.12      0.00
    4   20   42     11.57      0.00
    6   20   42    -20.67      0.00
    8   20   42    -10.98      0.00
   10   20   42      2.22      0.00
   12   20   42     -2.83      0.00
   14   20   42     14.52      0.00
   16   20   42     -8.10      0.00
   18   20   42      1.50      0.00
   20   20   42     10.59      0.00
    0   22   42     12.35      0.00
    2   22   42    -14.88      0.00
    4   22   42     -9.08      0.00
    6   22   42     12.67      0.00
    8   22   42    -13.46      0.00
   10   22   42    -15.10      0.00
   12   22   42      8.07      0.00
   14   22   42     23.59      0.00
   16   22   42     -6.08      0.00
   18   22   42     17.89      0.00
   20   22   42     16.05      0.00
   22   22   42     -1.06      0.00
    0   24   42    -12.90      0.00
    2   24   42     -7.56      0.00
    4   24   42     -0.88      0.00
    6   24   42      6.69      0.00
    8   24   42      3.48      0.00
   10   24   42      2.13      0.00
   12   24   42      0.56      0.00
   14   24   42    -11.17      0.00
   16   24   42     18.51      0.00
   18   24   42     19.56      0.00
   20   24   42     -4.82      0.00
   22   24   42      1.63      0.00
   24   24   42     11.89      0.00
    0   26   42    -34.26      0.00
    2   26   42    -15.51      0.00
    4   26   42     -4.72      0.00
    6   26   42    -35.53      0.00
    8   26   42    -46.03      0.00
   10   26   42      0.10      0.00
   12   26   42    -33.13      0.00
   14   26   42     -9.35      0.00
   16   26   42     27.45      0.00
   18   26   42      2.80      0.00
   20   26   42     16.47      0.00
   22   26   42      3.60      0.00
   24   26   42      1.04      0.00
   26   26   42    -14.77      0.00
    0   28   42      6.36      0.00
    2   28   42     -0.49      0.00
    4   28   42      1.81      0.00
    6   28   42     -6.91      0.00
    8   28   42     -9.59      0.00
   10   28   42     15.05      0.00
   12   28   42    -10.48      0.00
   14   28   42     10.36      0.00
   16   28   42     20.32      0.00
   18   28   42      3.25      0.00
   20   28   42     -6.78      0.00
   22   28   42     -5.05      0.00
   24   28   42    -22.54      0.00
   26   28   42    -30.28      0.00
   28   28   42     -2.52      0.00
    0   30   42     13.07      0.00
    2   30   42     -0.24      0.00
    4   30   42      6.40      0.00
    6   30   42      1.64      0.00
    8   30   42     16.13      0.00
   10   30   42     -5.89      0.00
   12   30   42    -14.70      0.00
   14   30   42      2.52      0.00
   16   30   42     11.36      0.00
   18   30   42     -3.82      0.00
   20   30   42      9.22      0.00
   22   30   42     16.52      0.00
   24   30   42     11.58      0.00
   26   30   42     12.41      0.00
   28   30   42      1.58      0.00
   30   30   42    -21.31      0.00
    0   32   42     33.99      0.00
    2   32   42    -11.20      0.00
    4   32   42      9.08      0.00
    6   32   42     18.27      0.00
    8   32   42     -6.40      0.00
   10   32   42    -11.95      0.00
   12   32   42      8.22      0.00
   14   32   42     -8.65      0.00
   16   32   42      6.14      0.00
   18   32   42    -11.84      0.00
   20   32   42      2.24      0.00
   22   32   42      7.89      0.00
   24   32   42      9.16      0.00
   26   32   42    -19.45      0.00
   28   32   42      6.12      0.00
   30   32   42     -3.76      0.00
   32   32   42      1.76      0.00
    0   34   42      1.66      0.00
    2   34   42    -12.77      0.00
    4   34   42     22.77      0.00
    6   34   42      0.96      0.00
    8   34   42      5.21      0.00
   10   34   42     -7.91      0.00
   12   34   42      1.19      0.00
   14   34   42     10.92      0.00
   16   34   42     -2.43      0.00
   18   34   42     -0.61      0.00
   20   34   42     -6.79      0.00
   22   34   42    -11.23      0.00
   24   34   42     12.43      0.00
   26   34   42      6.80      0.00
   28   34   42     10.88      0.00
   30   34   42      8.59      0.00
   32   34   42     11.50      0.00
   34   34   42     -6.82      0.00
    0   36   42    -16.22      0.00
    2   36   42     -9.40      0.00
    4   36   42      7.73      0.00
    6   36   42     -2.20      0.00
    8   36   42      4.00      0.00
   10   36   42      6.39      0.00
   12   36   42     11.09      0.00
   14   36   42     -4.44      0.00
   16   36   42     -7.18      0.00
   18   36   42      2.09      0.00
   20   36   42    -14.39      0.00
   22   36   42     -1.03      0.00
   24   36   42      8.61      0.00
   26   36   42     -5.77      0.00
   28   36   42      9.23      0.00
   30   36   42    -21.89      0.00
   32   36   42    -10.59      0.00
   34   36   42     -1.34      0.00
   36   36   42    -36.11      0.00
    0   38   42    -28.44      0.00
    2   38   42      4.91      0.00
    4   38   42      9.58      0.00
    6   38   42      1.43      0.00
    8   38   42     -3.17      0.00
   10   38   42     17.89      0.00
   12   38   42      0.65      0.00
   14   38   42     -3.35      0.00
   16   38   42     -2.69      0.00
   18   38   42     -1.91      0.00
   20   38   42    -19.46      0.00
   22   38   42     -1.25      0.00
   24   38   42     -0.44      0.00
   26   38   42      2.54      0.00
   28   38   42     21.86      0.00
   30   38   42    -20.23      0.00
   32   38   42    -12.26      0.00
   34   38   42      7.07      0.00
   36   38   42     -3.64      0.00
   38   38   42     -2.99      0.00
    0   40   42     -6.15      0.00
    2   40   42     -3.78      0.00
    4   40   42     -0.24      0.00
    6   40   42    -24.48      0.00
    8   40   42     -6.11      0.00
   10   40   42     -5.99      0.00
   12   40   42    -23.17      0.00
   14   40   42      0.33      0.00
   16   40   42    -17.92      0.00
   18   40   42     15.50      0.00
   20   40   42      6.01      0.00
   22   40   42    -16.53      0.00
   24   40   42     13.27      0.00
   26   40   42     17.87      0.00
   28   40   42      7.14      0.00
   30   40   42     11.25      0.00
   32   40   42      5.21      0.00
   34   40   42     -2.65      0.00
   36   40   42     14.65      0.00
   38   40   42      0.24      0.00
   40   40   42     23.56      0.00
    0   42   42     25.13      0.00
    2   42   42      8.78      0.00
    4   42   42    -12.19      0.00
    6   42   42     -1.22      0.00
    8   42   42     -8.55      0.00
   10   42   42    -11.76      0.00
   12   42   42    -13.74      0.00
   14   42   42     -8.16      0.00
   16   42   42    -20.68      0.00
   18   42   42    -10.24      0.00
   20   42   42      2.56      0.00
   22   42   42      7.78      0.00
   24   42   42     13.08      0.00
   26   42   42      3.27      0.00
   28   42   42     -0.70      0.00
   30   42   42      0.00      0.00
   32   42   42     -3.31      0.00
   34   42   42     13.51      0.00
   36   42   42      4.74      0.00
   38   42   42     -8.06      0.00
   40   42   42     28.08      0.00
   42   42   42    -19.00      0.00
    1    3   43     -0.91      0.00
    1    5   43     -8.07      0.00
    3    5   43    -16.98      0.00
    1    7   43      5.08      0.00
    3    7   43      5.33      0.00
    5    7   43     -0.57      0.00
    1    9   43      9.16      0.00
    3    9   43    -21.15      0.00
    5    9   43     -1.84      0.00
    7    9   43     -2.62      0.00
    1   11   43    -10.69      0.00
    3   11   43    -15.93      0.00
    5   11   43    -11.45      0.00
    7   11   43     -7.84      0.00
    9   11   43     -4.74      0.00
    1   13   43     -7.75      0.00
    3   13   43     -1.15      0.00
    5   13   43    -28.21      0.00
    7   13   43     -3.98      0.00
    9   13   43     -0.68      0.00
   11   13   43      4.75      0.00
    1   15   43     20.52      0.00
    3   15   43      7.22      0.00
    5   15   43    -10.70      0.00
    7   15   43      5.65      0.00
    9   15   43    -29.31      0.00
   11   15   43    -10.50      0.00
   13   15   43    -20.51      0.00
    1   17   43     50.70      0.00
    3   17   43      8.91      0.00
    5   17   43     -0.97      0.00
    7   17   43     -8.45      0.00
    9   17   43     -6.73      0.00
   11   17   43      5.37      0.00
   13   17   43      3.57      0.00
   15   17   43     14.10      0.00
    1   19   43     32.53      0.00
    3   19   43     -0.28      0.00
    5   19   43      4.41      0.00
    7   19   43     16.61      0.00
    9   19   43    -27.67      0.00
   11   19   43      0.86      0.00
   13   19   43    -29.60      0.00
   15   19   43      8.34      0.00
   17   19   43      3.53      0.00
    1   21   43      8.07      0.00
    3   21   43      7.85      0.00
    5   21   43     -7.24      0.00
    7   21   43     -9.70      0.00
    9   21   43     -4.19      0.00
   11   21   43    -14.55      0.00
   13   21   43      7.31      0.00
   15   21   43     -6.45      0.00
   17   21   43     -9.77      0.00
   19   21   43     18.33      0.00
    1   23   43      0.19      0.00
    3   23   43     20.83      0.00
    5   23   43     -1.30      0.00
    7   23   43     -1.26      0.00
    9   23   43      5.21      0.00
   11   23   43      0.21      0.00
   13   23   43      6.86      0.00
   15   23   43     25.92      0.00
   17   23   43     29.54      0.00
   19   23   43     -4.14      0.00
   21   23   43    -14.15      0.00
    1   25   43      9.48      0.00
    3   25   43     -3.67      0.00
    5   25   43    -10.13      0.00
    7   25   43     11.01      0.00
    9   25   43     -8.88      0.00
   11   25   43    -20.75      0.00
   13   25   43     -5.18      0.00
   15   25   43     10.64      0.00
   17   25   43      1.48      0.00
   19   25   43     10.81      0.00
   21   25   43     -6.48      0.00
   23   25   43     -1.33      0.00
    1   27   43    -20.21      0.00
    3   27   43     26.30      0.00
    5   27   43     10.39      0.00
    7   27   43      1.38      0.00
    9   27   43    -15.93      0.00
   11   27   43     -2.35      0.00
   13   27   43      5.37      0.00
   15   27   43     -5.38      0.00
   17   27   43     10.22      0.00
   19   27   43     14.69      0.00
   21   27   43     11.51      0.00
   23   27   43     -4.59      0.00
   25   27   43      3.43      0.00
    1   29   43      5.81      0.00
    3   29   43     -1.14      0.00
    5   29   43      2.68      0.00
    7   29   43     -1.09      0.00
    9   29   43     13.04      0.00
   11   29   43     13.14      0.00
   13   29   43     31.79      0.00
   15   29   43      8.97      0.00
   17   29   43    -10.43      0.00
   19   29   43     20.75      0.00
   21   29   43      4.94      0.00
   23   29   43     21.93      0.00
   25   29   43     -2.27      0.00
   27   29   43    -11.56      0.00
    1   31   43     -8.49      0.00
    3   31   43     10.82      0.00
    5   31   43      1.61      0.00
    7   31   43      0.66      0.00
    9   31   43    -19.11      0.00
   11   31   43      2.20      0.00
   13   31   43     45.71      0.00
   15   31   43     -3.41      0.00
   17   31   43    -11.84      0.00
   19   31   43     -6.14      0.00
   21   31   43      8.67      0.00
   23   31   43     -1.35      0.00
   25   31   43      9.52      0.00
   27   31   43    -10.90      0.00
   29   31   43      2.79      0.00
    1   33   43     -0.96      0.00
    3   33   43      4.64      0.00
    5   33   43     21.10      0.00
    7   33   43     22.92      0.00
    9   33   43      0.00      0.00
   11   33   43     -2.50      0.00
   13   33   43     15.03      0.00
   15   33   43     10.37      0.00
   17   33   43      5.79      0.00
   19   33   43      6.49      0.00
   21   33   43    -11.24      0.00
   23   33   43     14.77      0.00
   25   33   43     12.85      0.00
   27   33   43    -10.67      0.00
   29   33   43     -6.45      0.00
   31   33   43      2.80      0.00
    1   35   43     -9.33      0.00
    3   35   43      9.53      0.00
    5   35   43     10.49      0.00
    7   35   43     10.38      0.00
    9   35   43      0.96      0.00
   11   35   43     -4.26      0.00
   13   35   43     11.03      0.00
   15   35   43      2.60      0.00
   17   35   43     -4.19      0.00
   19   35   43      4.35      0.00
   21   35   43     -1.63      0.00
   23   35   43      0.45      0.00
   25   35   43     -2.00      0.00
   27   35   43     -8.73      0.00
   29   35   43     -1.50      0.00
   31   35   43      8.94      0.00
   33   35   43      2.47      0.00
    1   37   43      0.54      0.00
    3   37   43      1.74      0.00
    5   37   43      0.35      0.00
    7   37   43      8.68      0.00
    9   37   43    -15.84      0.00
   11   37   43      3.21      0.00
   13   37   43     -2.78      0.00
   15   37   43      6.63      0.00
   17   37   43     -9.20      0.00
   19   37   43    -11.98      0.00
   21   37   43     -0.92      0.00
   23   37   43     -1.46      0.00
   25   37   43      0.08      0.00
   27   37   43      2.09      0.00
   29   37   43      5.78      0.00
   31   37   43      4.39      0.00
   33   37   43     -5.21      0.00
   35   37   43      4.16      0.00
    1   39   43    -10.98      0.00
    3   39   43    -14.20      0.00
    5   39   43     13.39      0.00
    7   39   43      3.67      0.00
    9   39   43     20.51      0.00
   11   39   43     -6.11      0.00
   13   39   43      8.87      0.00
   15   39   43     -4.16      0.00
   17   39   43      4.00      0.00
   19   39   43      0.45      0.00
   21   39   43    -23.04      0.00
   23   39   43     -5.54      0.00
   25   39   43     -2.78      0.00
   27   39   43      3.14      0.00
   29   39   43     12.33      0.00
   31   39   43      5.59      0.00
   33   39   43      2.53      0.00
   35   39   43      6.43      0.00
   37   39   43      1.31      0.00
    1   41   43     -0.75      0.00
    3   41   43     11.05      0.00
    5   41   43     -6.06      0.00
    7   41   43      1.22      0.00
    9   41   43      4.96      0.00
   11   41   43      3.79      0.00
   13   41   43    -12.42      0.00
   15   41   43     -6.47      0.00
   17   41   43     -0.53      0.00
   19   41   43     10.69      0.00
   21   41   43     -0.99      0.00
   23   41   43     -9.72      0.00
   25   41   43     15.19      0.00
   27   41   43      1.74      0.00
   29   41   43     -4.76      0.00
   31   41   43     -4.66      0.00
   33   41   43    -17.33      0.00
   35   41   43     10.45      0.00
   37   41   43      3.20      0.00
   39   41   43      1.71      0.00
    0    0   44     27.21      0.00
    0    2   44    -10.25      0.00
    2    2   44    -57.91      0.00
    0    4   44    -14.09      0.00
    2    4   44     -5.34      0.00
    4    4   44    -20.29      0.00
    0    6   44      9.60      0.00
    2    6   44      5.40      0.00
    4    6   44      5.38      0.00
    6    6   44    -13.01      0.00
    0    8   44     24.95      0.00
    2    8   44    -16.67      0.00
    4    8   44    -12.50      0.00
    6    8   44      3.40      0.00
    8    8   44     10.44      0.00
    0   10   44     22.43      0.00
    2   10   44     19.40      0.00
    4   10   44      2.10      0.00
    6   10   44      1.67      0.00
    8   10   44     -3.45      0.00
   10   10   44     27.84      0.00
    0   12   44      6.66      0.00
    2   12   44     38.04      0.00
    4   12   44     21.98      0.00
    6   12   44     -5.34      0.00
    8   12   44     -2.84      0.00
   10   12   44     -4.55      0.00
   12   12   44     18.77      0.00
    0   14   44     10.14      0.00
    2   14   44      9.60      0.00
    4   14   44      6.51      0.00
    6   14   44    -13.96      0.00
    8   14   44    -21.67      0.00
   10   14   44      6.26      0.00
   12   14   44     -1.29      0.00
   14   14   44    -20.30      0.00
    0   16   44     -4.91      0.00
    2   16   44      3.61      0.00
    4   16   44      0.81      0.00
    6   16   44      2.77      0.00
    8   16   44    -12.54      0.00
   10   16   44      2.02      0.00
   12   16   44     13.41      0.00
   14   16   44     -9.33      0.00
   16   16   44     16.91      0.00
    0   18   44     -7.08      0.00
    2   18   44     26.28      0.00
    4   18   44      6.58      0.00
    6   18   44     -5.79      0.00
    8   18   44     11.95      0.00
   10   18   44     -0.59      0.00
   12   18   44    -11.92      0.00
   14   18   44    -14.15      0.00
   16   18   44      1.78      0.00
   18   18   44    -18.49      0.00
    0   20   44     -7.13      0.00
    2   20   44     -6.72      0.00
    4   20   44     -1.67      0.00
    6   20   44      5.52      0.00
    8   20   44      6.54      0.00
   10   20   44      4.50      0.00
   12   20   44    -15.04      0.00
   14   20   44      3.59      0.00
   16   20   44     -0.18      0.00
   18   20   44     -1.09      0.00
   20   20   44     -2.29      0.00
    0   22   44     28.13      0.00
    2   22   44     -2.23      0.00
    4   22   44    -14.89      0.00
    6   22   44     12.67      0.00
    8   22   44      1.58      0.00
   10   22   44    -22.54      0.00
   12   22   44      9.15      0.00
   14   22   44      1.51      0.00
   16   22   44      7.47      0.00
   18   22   44    -11.32      0.00
   20   22   44      4.78      0.00
   22   22   44      5.45      0.00
    0   24   44    -10.27      0.00
    2   24   44      0.76      0.00
    4   24   44      0.03      0.00
    6   24   44     -3.58      0.00
    8   24   44     12.78      0.00
   10   24   44      1.34      0.00
   12   24   44     -8.02      0.00
   14   24   44    -11.17      0.00
   16   24   44     -5.54      0.00
   18   24   44     -7.63      0.00
   20   24   44      1.36      0.00
   22   24   44     -1.28      0.00
   24   24   44     -6.12      0.00
    0   26   44    -64.17      0.00
    2   26   44    -27.12      0.00
    4   26   44     19.54      0.00
    6   26   44      3.60      0.00
    8   26   44    -17.42      0.00
   10   26   44     14.07      0.00
   12   26   44     22.82      0.00
   14   26   44    -14.61      0.00
   16   26   44     -0.77      0.00
   18   26   44      0.47      0.00
   20   26   44      6.09      0.00
   22   26   44     35.18      0.00
   24   26   44     10.00      0.00
   26   26   44    -21.35      0.00
    0   28   44      4.07      0.00
    2   28   44     -2.30      0.00
    4   28   44    -18.30      0.00
    6   28   44     12.92      0.00
    8   28   44     -2.37      0.00
   10   28   44     26.98      0.00
   12   28   44      4.19      0.00
   14   28   44     -0.33      0.00
   16   28   44     16.80      0.00
   18   28   44      8.57      0.00
   20   28   44      7.20      0.00
   22   28   44     -0.96      0.00
   24   28   44     -8.81      0.00
   26   28   44     -6.10      0.00
   28   28   44      3.56      0.00
    0   30   44     16.33      0.00
    2   30   44    -22.67      0.00
    4   30   44      3.35      0.00
    6   30   44     -5.51      0.00
    8   30   44     14.59      0.00
   10   30   44      8.60      0.00
   12   30   44      9.07      0.00
   14   30   44    -18.46      0.00
   16   30   44     15.27      0.00
   18   30   44     -2.62      0.00
   20   30   44      8.59      0.00
   22   30   44      7.07      0.00
   24   30   44     13.53      0.00
   26   30   44      2.16      0.00
   28   30   44     -0.39      0.00
   30   30   44      8.20      0.00
    0   32   44     -2.43      0.00
    2   32   44    -34.77      0.00
    4   32   44     -1.65      0.00
    6   32   44     -0.61      0.00
    8   32   44      1.70      0.00
   10   32   44     -7.34      0.00
   12   32   44     11.38      0.00
   14   32   44     -7.49      0.00
   16   32   44      1.37      0.00
   18   32   44     -3.31      0.00
   20   32   44     -8.46      0.00
   22   32   44     -7.52      0.00
   24   32   44    -11.92      0.00
   26   32   44     -5.41      0.00
   28   32   44     -4.92      0.00
   30   32   44      3.57      0.00
   32   32   44     11.97      0.00
    0   34   44    -33.54      0.00
    2   34   44    -30.31      0.00
    4   34   44      9.84      0.00
    6   34   44     13.11      0.00
    8   34   44     -5.36      0.00
   10   34   44      1.16      0.00
   12   34   44     33.29      0.00
   14   34   44     24.06      0.00
   16   34   44     19.60      0.00
   18   34   44     -2.59      0.00
   20   34   44      5.48      0.00
   22   34   44      5.17      0.00
   24   34   44      8.49      0.00
   26   34   44    -10.85      0.00
   28   34   44     -4.21      0.00
   30   34   44     10.00      0.00
   32   34   44     -2.61      0.00
   34   34   44     -3.10      0.00
    0   36   44    -24.73      0.00
    2   36   44    -18.32      0.00
    4   36   44     -8.29      0.00
    6   36   44     -4.20      0.00
    8   36   44    -21.14      0.00
   10   36   44     17.15      0.00
   12   36   44     -2.03      0.00
   14   36   44     25.64      0.00
   16   36   44      1.33      0.00
   18   36   44    -11.64      0.00
   20   36   44      1.58      0.00
   22   36   44     14.20      0.00
   24   36   44      8.60      0.00
   26   36   44     -8.15      0.00
   28   36   44      7.42      0.00
   30   36   44     -3.89      0.00
   32   36   44      4.69      0.00
   34   36   44     12.01      0.00
   36   36   44     -5.75      0.00
    0   38   44     14.44      0.00
    2   38   44    -17.55      0.00
    4   38   44     -7.18      0.00
    6   38   44    -35.12      0.00
    8   38   44    -18.36      0.00
   10   38   44     -0.34      0.00
   12   38   44      3.40      0.00
   14   38   44      9.39      0.00
   16   38   44      7.90      0.00
   18   38   44     -6.97      0.00
   20   38   44    -12.60      0.00
   22   38   44      5.05      0.00
   24   38   44     -3.37      0.00
   26   38   44     -8.16      0.00
   28   38   44      2.87      0.00
   30   38   44     -0.48      0.00
   32   38   44    -19.53      0.00
   34   38   44     -2.10      0.00
   36   38   44      0.13      0.00
   38   38   44    -32.70      0.00
    0   40   44      6.05      0.00
    2   40   44     -1.58      0.00
    4   40   44      3.05      0.00
    6   40   44     10.43      0.00
    8   40   44     -2.42      0.00
   10   40   44     -9.87      0.00
   12   40   44     -7.63      0.00
   14   40   44     12.61      0.00
   16   40   44      5.29      0.00
   18   40   44      0.71      0.00
   20   40   44     -1.73      0.00
   22   40   44      9.17      0.00
   24   40   44     -3.52      0.00
   26   40   44      8.36      0.00
   28   40   44      1.00      0.00
   30   40   44      1.91      0.00
   32   40   44      2.05      0.00
   34   40   44      4.84      0.00
   36   40   44      5.23      0.00
   38   40   44    -15.97      0.00
   40   40   44     -0.95      0.00
    0   42   44      3.86      0.00
    2   42   44     -0.27      0.00
    4   42   44     -2.62      0.00
    6   42   44      8.20      0.00
    8   42   44     23.82      0.00
   10   42   44      4.83      0.00
   12   42   44     -8.46      0.00
   14   42   44      2.79      0.00
   16   42   44     -2.48      0.00
   18   42   44     -8.34      0.00
   20   42   44     -1.27      0.00
   22   42   44      3.61      0.00
   24   42   44      5.14      0.00
   26   42   44     -0.41      0.00
   28   42   44     -1.94      0.00
   30   42   44      0.49      0.00
   32   42   44      6.66      0.00
   34   42   44     -0.36      0.00
   36   42   44     -2.27      0.00
   38   42   44     -5.14      0.00
   40   42   44      4.92      0.00
    0   44   44      1.23      0.00
    2   44   44    -12.53      0.00
    4   44   44    -16.20      0.00
    6   44   44     -1.81      0.00
    8   44   44     -3.88      0.00
   10   44   44     15.00      0.00
   12   44   44    -13.05      0.00
   14   44   44      6.44      0.00
   16   44   44      9.80      0.00
   18   44   44     -3.67      0.00
   20   44   44     -9.30      0.00
   22   44   44     -0.58      0.00
   24   44   44     -3.70      0.00
   26   44   44    -11.86      0.00
   28   44   44     -2.61      0.00
   30   44   44      5.15      0.00
   32   44   44      3.35      0.00
   34   44   44     -2.08      0.00
   36   44   44    -17.70      0.00
   38   44   44      6.32      0.00
    1    3   45      1.29      0.00
    1    5   45      7.43      0.00
    3    5   45      4.48      0.00
    1    7   45     -4.05      0.00
    3    7   45     -3.85      0.00
    5    7   45      3.23      0.00
    1    9   45     -0.60      0.00
    3    9   45      0.17      0.00
    5    9   45      2.65      0.00
    7    9   45      0.19      0.00
    1   11   45     34.90      0.00
    3   11   45    -19.96      0.00
    5   11   45     -7.69      0.00
    7   11   45      7.55      0.00
    9   11   45     -1.55      0.00
    1   13   45     -9.64      0.00
    3   13   45    -13.68      0.00
    5   13   45    -15.38      0.00
    7   13   45    -20.77      0.00
    9   13   45      8.39      0.00
   11   13   45      3.22      0.00
    1   15   45    -21.34      0.00
    3   15   45    -20.79      0.00
    5   15   45    -17.36      0.00
    7   15   45     -3.26      0.00
    9   15   45     -0.95      0.00
   11   15   45     16.61      0.00
   13   15   45     -5.49      0.00
    1   17   45     22.23      0.00
    3   17   45     -9.12      0.00
    5   17   45     -4.48      0.00
    7   17   45     10.56      0.00
    9   17   45     -3.70      0.00
   11   17   45     58.50      0.00
   13   17   45      6.04      0.00
   15   17   45     15.75      0.00
    1   19   45      3.25      0.00
    3   19   45    -17.53      0.00
    5   19   45     19.09      0.00
    7   19   45     14.61      0.00
    9   19   45      1.67      0.00
   11   19   45     23.02      0.00
   13   19   45     11.61      0.00
   15   19   45    -14.27      0.00
   17   19   45     -1.36      0.00
    1   21   45    -11.23      0.00
    3   21   45    -11.73      0.00
    5   21   45     -3.99      0.00
    7   21   45     -1.79      0.00
    9   21   45    -21.39      0.00
   11   21   45      6.44      0.00
   13   21   45    -10.01      0.00
   15   21   45    -17.63      0.00
   17   21   45     -9.40      0.00
   19   21   45    -11.36      0.00
    1   23   45    -10.30      0.00
    3   23   45     -8.08      0.00
    5   23   45    -10.76      0.00
    7   23   45     -4.11      0.00
    9   23   45     -4.16      0.00
   11   23   45     -0.06      0.00
   13   23   45      8.04      0.00
   15   23   45      0.34      0.00
   17   23   45    -15.47      0.00
   19   23   45     -7.03      0.00
   21   23   45    -36.16      0.00
    1   25   45    -16.06      0.00
    3   25   45     -6.47      0.00
    5   25   45    -24.99      0.00
    7   25   45     -2.12      0.00
    9   25   45      8.84      0.00
   11   25   45     17.54      0.00
   13   25   45     17.19      0.00
   15   25   45    -12.95      0.00
   17   25   45     -1.78      0.00
   19   25   45     -5.44      0.00
   21   25   45     -0.92      0.00
   23   25   45    -20.16      0.00
    1   27   45     -0.96      0.00
    3   27   45     -0.68      0.00
    5   27   45      6.99      0.00
    7   27   45     -8.80      0.00
    9   27   45     11.52      0.00
   11   27   45     18.42      0.00
   13   27   45     -5.77      0.00
   15   27   45     -6.53      0.00
   17   27   45     17.77      0.00
   19   27   45      1.41      0.00
   21   27   45    -11.86      0.00
   23   27   45     -1.98      0.00
   25   27   45     -4.29      0.00
    1   29   45     -1.95      0.00
    3   29   45     -5.49      0.00
    5   29   45      3.24      0.00
    7   29   45    -13.20      0.00
    9   29   45      2.55      0.00
   11   29   45     53.87      0.00
   13   29   45      6.92      0.00
   15   29   45    -33.37      0.00
   17   29   45      3.48      0.00
   19   29   45     10.90      0.00
   21   29   45     25.78      0.00
   23   29   45     -1.82      0.00
   25   29   45     17.67      0.00
   27   29   45     -2.50      0.00
    1   31   45      1.54      0.00
    3   31   45      4.86      0.00
    5   31   45      1.94      0.00
    7   31   45     -1.39      0.00
    9   31   45      0.01      0.00
   11   31   45     -3.02      0.00
   13   31   45     -0.19      0.00
   15   31   45     -6.32      0.00
   17   31   45     12.16      0.00
   19   31   45      8.03      0.00
   21   31   45      0.24      0.00
   23   31   45     19.25      0.00
   25   31   45     -8.39      0.00
   27   31   45      2.23      0.00
   29   31   45     17.21      0.00
    1   33   45      1.54      0.00
    3   33   45      7.95      0.00
    5   33   45    -11.11      0.00
    7   33   45      3.42      0.00
    9   33   45      2.81      0.00
   11   33   45      9.58      0.00
   13   33   45     -8.56      0.00
   15   33   45    -12.57      0.00
   17   33   45      2.17      0.00
   19   33   45      0.26      0.00
   21   33   45     -2.99      0.00
   23   33   45     -5.18      0.00
   25   33   45     -3.87      0.00
   27   33   45     24.93      0.00
   29   33   45     16.14      0.00
   31   33   45     -1.45      0.00
    1   35   45     12.28      0.00
    3   35   45      6.51      0.00
    5   35   45     23.06      0.00
    7   35   45      1.28      0.00
    9   35   45      7.56      0.00
   11   35   45     24.95      0.00
   13   35   45     -9.08      0.00
   15   35   45    -12.16      0.00
   17   35   45     -7.51      0.00
   19   35   45     -0.35      0.00
   21   35   45    -15.45      0.00
   23   35   45    -10.92      0.00
   25   35   45      2.75      0.00
   27   35   45     17.63      0.00
   29   35   45     13.77      0.00
   31   35   45     -3.41      0.00
   33   35   45     -3.71      0.00
    1   37   45     10.92      0.00
    3   37   45     12.10      0.00
    5   37   45     10.05      0.00
    7   37   45     10.67      0.00
    9   37   45     -2.51      0.00
   11   37   45     -5.82      0.00
   13   37   45      4.78      0.00
   15   37   45     -0.80      0.00
   17   37   45      2.44      0.00
   19   37   45      4.63      0.00
   21   37   45     17.82      0.00
   23   37   45     18.05      0.00
   25   37   45      7.17      0.00
   27   37   45      9.18      0.00
   29   37   45      0.49      0.00
   31   37   45     -9.90      0.00
   33   37   45     -5.16      0.00
   35   37   45      4.27      0.00
    1   39   45     -5.41      0.00
    3   39   45     -0.68      0.00
    5   39   45      5.92      0.00
    7   39   45      6.60      0.00
    9   39   45     -6.58      0.00
   11   39   45    -14.31      0.00
   13   39   45     -1.63      0.00
   15   39   45      5.62      0.00
   17   39   45     -2.27      0.00
   19   39   45    -15.09      0.00
   21   39   45      2.95      0.00
   23   39   45      1.03      0.00
   25   39   45     15.37      0.00
   27   39   45      6.09      0.00
   29   39   45     -7.56      0.00
   31   39   45      4.42      0.00
   33   39   45     -1.71      0.00
   35   39   45     -3.07      0.00
   37   39   45     -4.23      0.00
    1   41   45      7.67      0.00
    3   41   45      2.14      0.00
    5   41   45      8.29      0.00
    7   41   45      4.87      0.00
    9   41   45    -15.46      0.00
   11   41   45      2.53      0.00
   13   41   45    -10.43      0.00
   15   41   45     -9.35      0.00
   17   41   45      6.39      0.00
   19   41   45    -11.04      0.00
   21   41   45     -9.12      0.00
   23   41   45      3.14      0.00
   25   41   45      0.69      0.00
   27   41   45     -2.85      0.00
   29   41   45    -13.65      0.00
   31   41   45      2.99      0.00
   33   41   45    -19.10      0.00
   35   41   45     -7.24      0.00
   37   41   45      5.63      0.00
   39   41   45     13.36      0.00
    1   43   45    -13.29      0.00
    3   43   45     -3.49      0.00
    5   43   45     18.07      0.00
    7   43   45     15.29      0.00
    9   43   45     -0.54      0.00
   11   43   45      6.33      0.00
   13   43   45    -16.34      0.00
   15   43   45      5.98      0.00
   17   43   45     -0.31      0.00
   19   43   45     -0.86      0.00
   21   43   45    -10.21      0.00
   23   43   45     -7.78      0.00
   25   43   45     -8.80      0.00
   27   43   45    -14.89      0.00
   29   43   45    -10.25      0.00
   31   43   45     -4.78      0.00
   33   43   45     -1.59      0.00
   35   43   45      5.10      0.00
   37   43   45      6.10      0.00
    0    0   46    -36.48      0.00
    0    2   46    -65.03      0.00
    2    2   46    -28.24      0.00
    0    4   46     19.15      0.00
    2    4   46      2.58      0.00
    4    4   46     17.16      0.00
    0    6   46     16.44      0.00
    2    6   46      3.83      0.00
    4    6   46     -2.45      0.00
    6    6   46     21.97      0.00
    0    8   46     -9.94      0.00
    2    8   46    -20.22      0.00
    4    8   46     17.76      0.00
    6    8   46     33.04      0.00
    8    8   46     37.34      0.00
    0   10   46    -32.81      0.00
    2   10   46    -18.30      0.00
    4   10   46     -8.47      0.00
    6   10   46      1.71      0.00
    8   10   46      7.06      0.00
   10   10   46    -24.63      0.00
    0   12   46    -23.84      0.00
    2   12   46      1.31      0.00
    4   12   46     17.47      0.00
    6   12   46     -5.35      0.00
    8   12   46    -13.67      0.00
   10   12   46     -1.65      0.00
   12   12   46    -43.79      0.00
    0   14   46     23.04      0.00
    2   14   46     43.78      0.00
    4   14   46      4.87      0.00
    6   14   46     11.43      0.00
    8   14   46     -5.98      0.00
   10   14   46     -7.44      0.00
   12   14   46     -9.25      0.00
   14   14   46    -41.08      0.00
    0   16   46    -23.71      0.00
    2   16   46     20.42      0.00
    4   16   46     12.78      0.00
    6   16   46    -15.73      0.00
    8   16   46    -12.92      0.00
   10   16   46     -1.82      0.00
   12   16   46      8.05      0.00
   14   16   46    -11.72      0.00
   16   16   46     14.02      0.00
    0   18   46    -25.81      0.00
    2   18   46      1.63      0.00
    4   18   46      2.87      0.00
    6   18   46     -3.73      0.00
    8   18   46      2.29      0.00
   10   18   46      6.99      0.00
   12   18   46      8.15      0.00
   14   18   46      3.52      0.00
   16   18   46     -3.08      0.00
   18   18   46     -3.84      0.00
    0   20   46    -11.23      0.00
    2   20   46    -17.68      0.00
    4   20   46    -10.40      0.00
    6   20   46     24.72      0.00
    8   20   46      5.87      0.00
   10   20   46      7.00      0.00
   12   20   46     -0.52      0.00
   14   20   46      3.63      0.00
   16   20   46      3.16      0.00
   18   20   46      8.92      0.00
   20   20   46     10.74      0.00
    0   22   46     -3.50      0.00
    2   22   46     -2.75      0.00
    4   22   46      2.71      0.00
    6   22   46     23.01      0.00
    8   22   46     32.23      0.00
   10   22   46     -1.09      0.00
   12   22   46    -13.96      0.00
   14   22   46    -20.31      0.00
   16   22   46     -7.71      0.00
   18   22   46    -10.87      0.00
   20   22   46     -0.52      0.00
   22   22   46     10.88      0.00
    0   24   46    -13.87      0.00
    2   24   46     18.84      0.00
    4   24   46     -3.03      0.00
    6   24   46    -17.20      0.00
    8   24   46     -2.89      0.00
   10   24   46     -8.63      0.00
   12   24   46     -8.97      0.00
   14   24   46      7.07      0.00
   16   24   46     20.76      0.00
   18   24   46     -1.21      0.00
   20   24   46      2.19      0.00
   22   24   46     -5.35      0.00
   24   24   46    -24.33      0.00
    0   26   46     -5.13      0.00
    2   26   46     13.98      0.00
    4   26   46     21.90      0.00
    6   26   46     23.39      0.00
    8   26   46    -24.20      0.00
   10   26   46     -2.71      0.00
   12   26   46      5.93      0.00
   14   26   46    -12.53      0.00
   16   26   46      0.33      0.00
   18   26   46    -13.86      0.00
   20   26   46    -11.72      0.00
   22   26   46      3.02      0.00
   24   26   46    -11.32      0.00
   26   26   46      8.29      0.00
    0   28   46    -22.58      0.00
    2   28   46    -14.83      0.00
    4   28   46     12.37      0.00
    6   28   46     -0.57      0.00
    8   28   46    -16.60      0.00
   10   28   46    -16.53      0.00
   12   28   46    -15.30      0.00
   14   28   46     -0.55      0.00
   16   28   46      8.66      0.00
   18   28   46     13.46      0.00
   20   28   46     -7.33      0.00
   22   28   46      1.99      0.00
   24   28   46      6.08      0.00
   26   28   46      6.52      0.00
   28   28   46      1.90      0.00
    0   30   46    -16.78      0.00
    2   30   46      6.62      0.00
    4   30   46      4.34      0.00
    6   30   46     11.50      0.00
    8   30   46     17.80      0.00
   10   30   46    -13.96      0.00
   12   30   46     -0.75      0.00
   14   30   46     16.52      0.00
   16   30   46     10.02      0.00
   18   30   46     16.99      0.00
   20   30   46     -2.75      0.00
   22   30   46     -5.58      0.00
   24   30   46     -5.04      0.00
   26   30   46    -11.01      0.00
   28   30   46     -3.11      0.00
   30   30   46     -9.48      0.00
    0   32   46    -11.71      0.00
    2   32   46      3.45      0.00
    4   32   46     -0.81      0.00
    6   32   46      3.96      0.00
    8   32   46    -11.80      0.00
   10   32   46    -10.66      0.00
   12   32   46      7.82      0.00
   14   32   46     -8.69      0.00
   16   32   46      3.88      0.00
   18   32   46    -13.90      0.00
   20   32   46     -4.14      0.00
   22   32   46     -1.50      0.00
   24   32   46    -11.37      0.00
   26   32   46     -6.24      0.00
   28   32   46      7.76      0.00
   30   32   46     13.32      0.00
   32   32   46    -21.00      0.00
    0   34   46      0.69      0.00
    2   34   46     -2.77      0.00
    4   34   46     -3.82      0.00
    6   34   46     12.55      0.00
    8   34   46    -10.12      0.00
   10   34   46      5.85      0.00
   12   34   46      2.54      0.00
   14   34   46     -2.85      0.00
   16   34   46      6.99      0.00
   18   34   46      1.76      0.00
   20   34   46      8.96      0.00
   22   34   46      1.18      0.00
   24   34   46      1.52      0.00
   26   34   46     -3.99      0.00
   28   34   46     -4.64      0.00
   30   34   46      5.41      0.00
   32   34   46     -1.20      0.00
   34   34   46      9.88      0.00
    0   36   46     11.58      0.00
    2   36   46      7.28      0.00
    4   36   46     12.67      0.00
    6   36   46     19.02      0.00
    8   36   46     -3.15      0.00
   10   36   46      0.66      0.00
   12   36   46      0.34      0.00
   14   36   46     -1.04      0.00
   16   36   46     -4.77      0.00
   18   36   46     10.99      0.00
   20   36   46      0.69      0.00
   22   36   46     -3.17      0.00
   24   36   46      4.30      0.00
   26   36   46     -3.70      0.00
   28   36   46      7.10      0.00
   30   36   46     -6.35      0.00
   32   36   46      4.99      0.00
   34   36   46      4.31      0.00
   36   36   46     -9.40      0.00
    0   38   46     -0.42      0.00
    2   38   46      0.58      0.00
    4   38   46    -20.30      0.00
    6   38   46     -4.20      0.00
    8   38   46     -6.71      0.00
   10   38   46     12.69      0.00
   12   38   46     -0.30      0.00
   14   38   46     -3.14      0.00
   16   38   46     14.84      0.00
   18   38   46      9.59      0.00
   20   38   46    -19.40      0.00
   22   38   46     -2.98      0.00
   24   38   46    -18.16      0.00
   26   38   46     -2.94      0.00
   28   38   46      3.80      0.00
   30   38   46     -3.69      0.00
   32   38   46     -5.38      0.00
   34   38   46     -3.78      0.00
   36   38   46      1.10      0.00
   38   38   46      7.40      0.00
    0   40   46     22.04      0.00
    2   40   46     -3.03      0.00
    4   40   46      4.02      0.00
    6   40   46      8.55      0.00
    8   40   46     -4.49      0.00
   10   40   46     -1.20      0.00
   12   40   46     10.01      0.00
   14   40   46     14.96      0.00
   16   40   46     10.60      0.00
   18   40   46     15.37      0.00
   20   40   46    -11.13      0.00
   22   40   46    -22.03      0.00
   24   40   46    -11.76      0.00
   26   40   46     11.67      0.00
   28   40   46     -7.88      0.00
   30   40   46     -7.29      0.00
   32   40   46      2.65      0.00
   34   40   46     -1.65      0.00
   36   40   46      2.85      0.00
   38   40   46     -3.94      0.00
   40   40   46     -5.21      0.00
    0   42   46      3.35      0.00
    2   42   46      0.23      0.00
    4   42   46     10.14      0.00
    6   42   46      2.81      0.00
    8   42   46     -1.33      0.00
   10   42   46      5.27      0.00
   12   42   46     -5.62      0.00
   14   42   46     -4.89      0.00
   16   42   46     -9.06      0.00
   18   42   46      0.47      0.00
   20   42   46      4.18      0.00
   22   42   46     -5.02      0.00
   24   42   46    -13.11      0.00
   26   42   46     15.51      0.00
   28   42   46      4.06      0.00
   30   42   46     -0.47      0.00
   32   42   46     11.26      0.00
   34   42   46     -0.05      0.00
   36   42   46    -11.20      0.00
   38   42   46     10.71      0.00
    0   44   46     16.35      0.00
    2   44   46      6.43      0.00
    4   44   46     14.52      0.00
    6   44   46     -7.59      0.00
    8   44   46     -1.19      0.00
   10   44   46     -5.40      0.00
   12   44   46     -3.67      0.00
   14   44   46     -6.74      0.00
   16   44   46      6.36      0.00
   18   44   46      0.10      0.00
   20   44   46     -9.89      0.00
   22   44   46      3.87      0.00
   24   44   46      4.80      0.00
   26   44   46     -7.45      0.00
   28   44   46     -2.45      0.00
   30   44   46     -0.38      0.00
   32   44   46     22.72      0.00
   34   44   46      9.01      0.00
   36   44   46      5.55      0.00
    0   46   46      4.95      0.00
    2   46   46      0.19      0.00
    4   46   46     -9.88      0.00
    6   46   46     -4.47      0.00
    8   46   46      1.09      0.00
   10   46   46      8.35      0.00
   12   46   46     29.40      0.00
   14   46   46     11.13      0.00
   16   46   46      0.52      0.00
   18   46   46     14.62      0.00
   20   46   46     -2.85      0.00
   22   46   46     -8.58      0.00
   24   46   46      0.19      0.00
   26   46   46    -16.49      0.00
   28   46   46    -17.32      0.00
   30   46   46     -3.64      0.00
   32   46   46      9.11      0.00
    1    3   47    -24.82      0.00
    1    5   47     -1.21      0.00
    3    5   47     -9.70      0.00
    1    7   47    -17.80      0.00
    3    7   47    -12.29      0.00
    5    7   47     -6.32      0.00
    1    9   47    -17.05      0.00
    3    9   47    -32.06      0.00
    5    9   47     -3.81      0.00
    7    9   47     11.56      0.00
    1   11   47     -2.38      0.00
    3   11   47     -0.47      0.00
    5   11   47      6.22      0.00
    7   11   47      7.82      0.00
    9   11   47      3.74      0.00
    1   13   47     -8.08      0.00
    3   13   47     21.57      0.00
    5   13   47     12.95      0.00
    7   13   47     -5.82      0.00
    9   13   47     -6.21      0.00
   11   13   47      0.86      0.00
    1   15   47    -12.71      0.00
    3   15   47     13.04      0.00
    5   15   47      8.77      0.00
    7   15   47    -15.55      0.00
    9   15   47    -14.22      0.00
   11   15   47      5.15      0.00
   13   15   47      7.08      0.00
    1   17   47      1.90      0.00
    3   17   47      9.26      0.00
    5   17   47      1.58      0.00
    7   17   47    -20.16      0.00
    9   17   47    -10.92      0.00
   11   17   47      0.49      0.00
   13   17   47     17.65      0.00
   15   17   47     10.11      0.00
    1   19   47    -11.59      0.00
    3   19   47     12.61      0.00
    5   19   47     -4.39      0.00
    7   19   47      4.34      0.00
    9   19   47     -5.32      0.00
   11   19   47     -1.98      0.00
   13   19   47      0.12      0.00
   15   19   47      6.17      0.00
   17   19   47      9.15      0.00
    1   21   47     -3.61      0.00
    3   21   47      1.39      0.00
    5   21   47     -2.81      0.00
    7   21   47     -3.70      0.00
    9   21   47    -14.27      0.00
   11   21   47      1.43      0.00
   13   21   47     12.75      0.00
   15   21   47    -12.78      0.00
   17   21   47     -9.08      0.00
   19   21   47     24.17      0.00
    1   23   47      4.74      0.00
    3   23   47     25.13      0.00
    5   23   47      2.46      0.00
    7   23   47    -11.98      0.00
    9   23   47      4.00      0.00
   11   23   47     -6.82      0.00
   13   23   47     22.41      0.00
   15   23   47     12.24      0.00
   17   23   47     15.16      0.00
   19   23   47     16.83      0.00
   21   23   47     18.54      0.00
    1   25   47      2.15      0.00
    3   25   47     11.48      0.00
    5   25   47    -18.19      0.00
    7   25   47      3.61      0.00
    9   25   47     -7.26      0.00
   11   25   47    -22.56      0.00
   13   25   47     28.72      0.00
   15   25   47      3.23      0.00
   17   25   47     -5.67      0.00
   19   25   47     15.67      0.00
   21   25   47     10.29      0.00
   23   25   47      3.68      0.00
    1   27   47      4.22      0.00
    3   27   47     26.69      0.00
    5   27   47      5.34      0.00
    7   27   47    -22.62      0.00
    9   27   47      0.08      0.00
   11   27   47      1.27      0.00
   13   27   47     13.29      0.00
   15   27   47      9.54      0.00
   17   27   47     -0.09      0.00
   19   27   47     -1.71      0.00
   21   27   47      1.40      0.00
   23   27   47     -2.65      0.00
   25   27   47     19.64      0.00
    1   29   47     -5.57      0.00
    3   29   47     -5.40      0.00
    5   29   47     -1.85      0.00
    7   29   47     -2.16      0.00
    9   29   47     -0.23      0.00
   11   29   47     25.49      0.00
   13   29   47      4.51      0.00
   15   29   47     -6.21      0.00
   17   29   47      7.33      0.00
   19   29   47    -14.59      0.00
   21   29   47      3.62      0.00
   23   29   47     -0.82      0.00
   25   29   47      3.92      0.00
   27   29   47     -1.87      0.00
    1   31   47    -20.49      0.00
    3   31   47      9.38      0.00
    5   31   47     15.20      0.00
    7   31   47    -20.36      0.00
    9   31   47     -9.10      0.00
   11   31   47     -6.46      0.00
   13   31   47    -24.36      0.00
   15   31   47     -2.94      0.00
   17   31   47      4.13      0.00
   19   31   47     -3.90      0.00
   21   31   47     -5.71      0.00
   23   31   47      0.00      0.00
   25   31   47      5.56      0.00
   27   31   47     -2.98      0.00
   29   31   47      0.78      0.00
    1   33   47     15.54      0.00
    3   33   47      5.04      0.00
    5   33   47      1.18      0.00
    7   33   47      1.72      0.00
    9   33   47      0.09      0.00
   11   33   47    -12.68      0.00
   13   33   47    -12.33      0.00
   15   33   47     -5.56      0.00
   17   33   47      4.22      0.00
   19   33   47      4.15      0.00
   21   33   47      8.95      0.00
   23   33   47      0.92      0.00
   25   33   47    -13.41      0.00
   27   33   47     -4.61      0.00
   29   33   47     -5.92      0.00
   31   33   47    -20.19      0.00
    1   35   47     26.88      0.00
    3   35   47      4.19      0.00
    5   35   47      3.99      0.00
    7   35   47     16.20      0.00
    9   35   47     -4.49      0.00
   11   35   47     15.12      0.00
   13   35   47     -8.22      0.00
   15   35   47      0.03      0.00
   17   35   47      0.46      0.00
   19   35   47      8.96      0.00
   21   35   47     -3.41      0.00
   23   35   47    -20.18      0.00
   25   35   47    -15.82      0.00
   27   35   47     -9.03      0.00
   29   35   47    -12.13      0.00
   31   35   47      2.57      0.00
   33   35   47    -11.79      0.00
    1   37   47     -2.40      0.00
    3   37   47     -4.68      0.00
    5   37   47      6.86      0.00
    7   37   47    -27.36      0.00
    9   37   47      6.35      0.00
   11   37   47      2.80      0.00
   13   37   47     -6.08      0.00
   15   37   47     -1.25      0.00
   17   37   47     -1.72      0.00
   19   37   47     -0.33      0.00
   21   37   47     14.65      0.00
   23   37   47     -7.29      0.00
   25   37   47    -16.35      0.00
   27   37   47    -13.59      0.00
   29   37   47     -7.06      0.00
   31   37   47     -1.12      0.00
   33   37   47     19.35      0.00
   35   37   47      7.12      0.00
    1   39   47     -4.44      0.00
    3   39   47     -9.18      0.00
    5   39   47     -5.57      0.00
    7   39   47     11.58      0.00
    9   39   47    -16.52      0.00
   11   39   47     -7.29      0.00
   13   39   47     -2.96      0.00
   15   39   47     -2.21      0.00
   17   39   47     -2.20      0.00
   19   39   47    -20.55      0.00
   21   39   47      0.51      0.00
   23   39   47     -7.09      0.00
   25   39   47      1.85      0.00
   27   39   47      8.71      0.00
   29   39   47     -6.33      0.00
   31   39   47     11.73      0.00
   33   39   47      8.06      0.00
   35   39   47     -2.43      0.00
   37   39   47     -0.32      0.00
    1   41   47     -2.78      0.00
    3   41   47     11.91      0.00
    5   41   47     -2.76      0.00
    7   41   47     -8.37      0.00
    9   41   47     -5.08      0.00
   11   41   47      8.16      0.00
   13   41   47      6.90      0.00
   15   41   47      7.53      0.00
   17   41   47     -6.67      0.00
   19   41   47     -2.05      0.00
   21   41   47     -9.70      0.00
   23   41   47     -1.55      0.00
   25   41   47      0.62      0.00
   27   41   47     -1.19      0.00
   29   41   47      1.18      0.00
   31   41   47     14.73      0.00
   33   41   47     -4.35      0.00
   35   41   47    -21.29      0.00
   37   41   47     -6.21      0.00
    1   43   47      8.66      0.00
    3   43   47      5.27      0.00
    5   43   47     -1.47      0.00
    7   43   47      2.50      0.00
    9   43   47     -7.47      0.00
   11   43   47     12.89      0.00
   13   43   47    -12.80      0.00
   15   43   47     -0.45      0.00
   17   43   47      7.19      0.00
   19   43   47    -14.16      0.00
   21   43   47      2.27      0.00
   23   43   47      6.01      0.00
   25   43   47     -3.56      0.00
   27   43   47      7.33      0.00
   29   43   47     -1.64      0.00
   31   43   47      3.36      0.00
   33   43   47      6.18      0.00
   35   43   47     13.65      0.00
    1   45   47     -6.68      0.00
    3   45   47      1.46      0.00
    5   45   47     -0.84      0.00
    7   45   47     -3.91      0.00
    9   45   47     -3.12      0.00
   11   45   47     -6.61      0.00
   13   45   47     -7.92      0.00
   15   45   47      2.64      0.00
   17   45   47      1.27      0.00
   19   45   47     -4.24      0.00
   21   45   47     -6.79      0.00
   23   45   47      4.73      0.00
   25   45   47      5.28      0.00
   27   45   47      4.34      0.00
   29   45   47     -1.41      0.00
   31   45   47      3.81      0.00
   33   45   47     -2.56      0.00
    0    0   48     38.27      0.00
    0    2   48     27.70      0.00
    2    2   48     -8.92      0.00
    0    4   48     -0.10      0.00
    2    4   48     -9.15      0.00
    4    4   48    -37.20      0.00
    0    6   48      1.50      0.00
    2    6   48      2.20      0.00
    4    6   48     -0.29      0.00
    6    6   48    -30.91      0.00
    0    8   48    -11.01      0.00
    2    8   48    -21.17      0.00
    4    8   48     12.39      0.00
    6    8   48    -10.86      0.00
    8    8   48    -18.08      0.00
    0   10   48    -30.11      0.00
    2   10   48    -16.10      0.00
    4   10   48     -4.18      0.00
    6   10   48     -6.77      0.00
    8   10   48     -0.56      0.00
   10   10   48      5.13      0.00
    0   12   48    -10.86      0.00
    2   12   48      6.44      0.00
    4   12   48     18.08      0.00
    6   12   48     11.23      0.00
    8   12   48     -0.82      0.00
   10   12   48     -2.68      0.00
   12   12   48    -30.32      0.00
    0   14   48      0.12      0.00
    2   14   48    -11.00      0.00
    4   14   48     -5.17      0.00
    6   14   48    -13.69      0.00
    8   14   48     10.13      0.00
   10   14   48     13.20      0.00
   12   14   48     -4.35      0.00
   14   14   48      1.92      0.00
    0   16   48      7.39      0.00
    2   16   48      8.31      0.00
    4   16   48     -6.86      0.00
    6   16   48     15.34      0.00
    8   16   48    -16.96      0.00
   10   16   48      9.43      0.00
   12   16   48     -1.01      0.00
   14   16   48     11.57      0.00
   16   16   48     -9.42      0.00
    0   18   48     -4.24      0.00
    2   18   48    -10.87      0.00
    4   18   48      5.90      0.00
    6   18   48      5.52      0.00
    8   18   48     -6.92      0.00
   10   18   48      8.41      0.00
   12   18   48    -10.46      0.00
   14   18   48     -3.23      0.00
   16   18   48    -14.43      0.00
   18   18   48    -11.78      0.00
    0   20   48     -0.64      0.00
    2   20   48    -12.43      0.00
    4   20   48     12.47      0.00
    6   20   48      5.63      0.00
    8   20   48    -16.88      0.00
   10   20   48      9.06      0.00
   12   20   48      2.44      0.00
   14   20   48      9.46      0.00
   16   20   48     20.67      0.00
   18   20   48      3.30      0.00
   20   20   48    -17.47      0.00
    0   22   48      9.14      0.00
    2   22   48     -3.87      0.00
    4   22   48      4.55      0.00
    6   22   48     59.35      0.00
    8   22   48     16.73      0.00
   10   22   48      2.30      0.00
   12   22   48     -8.95      0.00
   14   22   48      3.97      0.00
   16   22   48     -7.32      0.00
   18   22   48     -5.61      0.00
   20   22   48      2.30      0.00
   22   22   48      2.88      0.00
    0   24   48      1.24      0.00
    2   24   48     -0.46      0.00
    4   24   48    -14.76      0.00
    6   24   48    -18.68      0.00
    8   24   48    -12.19      0.00
   10   24   48     -9.09      0.00
   12   24   48     -4.08      0.00
   14   24   48     -8.23      0.00
   16   24   48     29.84      0.00
   18   24   48     -9.49      0.00
   20   24   48     -8.11      0.00
   22   24   48     10.58      0.00
   24   24   48    -13.25      0.00
    0   26   48      8.85      0.00
    2   26   48     15.84      0.00
    4   26   48      3.58      0.00
    6   26   48     -0.25      0.00
    8   26   48    -11.20      0.00
   10   26   48     12.07      0.00
   12   26   48     -1.92      0.00
   14   26   48     16.03      0.00
   16   26   48    -14.25      0.00
   18   26   48     -0.80      0.00
   20   26   48    -11.98      0.00
   22   26   48      6.51      0.00
   24   26   48     -2.21      0.00
   26   26   48    -10.55      0.00
    0   28   48      9.19      0.00
    2   28   48      5.64      0.00
    4   28   48    -10.09      0.00
    6   28   48     37.43      0.00
    8   28   48     23.89      0.00
   10   28   48      5.77      0.00
   12   28   48     -3.81      0.00
   14   28   48     23.24      0.00
   16   28   48     -1.13      0.00
   18   28   48     10.95      0.00
   20   28   48      3.40      0.00
   22   28   48      2.98      0.00
   24   28   48     -0.04      0.00
   26   28   48     -0.19      0.00
   28   28   48     -7.48      0.00
    0   30   48    -41.60      0.00
    2   30   48      7.51      0.00
    4   30   48      0.15      0.00
    6   30   48      8.16      0.00
    8   30   48     17.58      0.00
   10   30   48     -7.50      0.00
   12   30   48    -13.24      0.00
   14   30   48     10.81      0.00
   16   30   48    -11.72      0.00
   18   30   48     -0.40      0.00
   20   30   48     -3.79      0.00
   22   30   48     -3.48      0.00
   24   30   48     -6.39      0.00
   26   30   48     -6.73      0.00
   28   30   48      0.54      0.00
   30   30   48     12.55      0.00
    0   32   48      2.87      0.00
    2   32   48     -0.82      0.00
    4   32   48     -2.78      0.00
    6   32   48     23.12      0.00
    8   32   48     26.52      0.00
   10   32   48    -20.41      0.00
   12   32   48     20.61      0.00
   14   32   48      1.77      0.00
   16   32   48     -4.61      0.00
   18   32   48     -9.11      0.00
   20   32   48     -1.87      0.00
   22   32   48      1.93      0.00
   24   32   48     -7.09      0.00
   26   32   48      2.89      0.00
   28   32   48      4.91      0.00
   30   32   48    -19.83      0.00
   32   32   48    -23.56      0.00
    0   34   48    -15.18      0.00
    2   34   48      7.69      0.00
    4   34   48      3.90      0.00
    6   34   48     25.74      0.00
    8   34   48     -2.68      0.00
   10   34   48      6.62      0.00
   12   34   48     -6.25      0.00
   14   34   48      9.11      0.00
   16   34   48      2.27      0.00
   18   34   48      2.83      0.00
   20   34   48     10.99      0.00
   22   34   48     10.44      0.00
   24   34   48     -0.62      0.00
   26   34   48    -20.67      0.00
   28   34   48      1.50      0.00
   30   34   48      0.51      0.00
   32   34   48     13.79      0.00
   34   34   48     13.08      0.00
    0   36   48    -14.34      0.00
    2   36   48      1.30      0.00
    4   36   48     -3.76      0.00
    6   36   48     28.79      0.00
    8   36   48    -22.69      0.00
   10   36   48    -17.01      0.00
   12   36   48     -6.99      0.00
   14   36   48    -24.72      0.00
   16   36   48     -7.56      0.00
   18   36   48      4.41      0.00
   20   36   48     -0.87      0.00
   22   36   48     -3.53      0.00
   24   36   48      5.64      0.00
   26   36   48    -11.26      0.00
   28   36   48     -6.03      0.00
   30   36   48     -4.90      0.00
   32   36   48      1.48      0.00
   34   36   48      8.68      0.00
   36   36   48    -14.77      0.00
    0   38   48     -2.02      0.00
    2   38   48    -18.07      0.00
    4   38   48      0.37      0.00
    6   38   48     16.66      0.00
    8   38   48     12.28      0.00
   10   38   48     15.42      0.00
   12   38   48     -7.23      0.00
   14   38   48     -4.51      0.00
   16   38   48    -12.90      0.00
   18   38   48      1.02      0.00
   20   38   48    -20.23      0.00
   22   38   48      3.78      0.00
   24   38   48      3.24      0.00
   26   38   48     -9.46      0.00
   28   38   48     -5.10      0.00
   30   38   48     -4.48      0.00
   32   38   48      1.58      0.00
   34   38   48     -7.49      0.00
   36   38   48     -4.51      0.00
   38   38   48      3.86      0.00
    0   40   48     -8.91      0.00
    2   40   48     -9.19      0.00
    4   40   48     -5.32      0.00
    6   40   48     -8.01      0.00
    8   40   48     25.35      0.00
   10   40   48     11.39      0.00
   12   40   48     -1.45      0.00
   14   40   48      0.41      0.00
   16   40   48     11.82      0.00
   18   40   48     -2.27      0.00
   20   40   48    -13.06      0.00
   22   40   48      5.83      0.00
   24   40   48     -8.50      0.00
   26   40   48     11.93      0.00
   28   40   48     -1.15      0.00
   30   40   48     -1.84      0.00
   32   40   48     -4.56      0.00
   34   40   48    -12.99      0.00
   36   40   48     -0.45      0.00
   38   40   48     -6.63      0.00
    0   42   48    -21.61      0.00
    2   42   48     -9.48      0.00
    4   42   48     -4.50      0.00
    6   42   48     -2.13      0.00
    8   42   48     -7.31      0.00
   10   42   48      5.18      0.00
   12   42   48    -10.55      0.00
   14   42   48      0.04      0.00
   16   42   48      4.99      0.00
   18   42   48     -9.07      0.00
   20   42   48     -2.26      0.00
   22   42   48      0.02      0.00
   24   42   48     -1.85      0.00
   26   42   48      0.68      0.00
   28   42   48     -0.41      0.00
   30   42   48     -9.04      0.00
   32   42   48     -2.68      0.00
   34   42   48     -1.49      0.00
    0   44   48    -12.07      0.00
    2   44   48      1.43      0.00
    4   44   48     11.48      0.00
    6   44   48     -4.15      0.00
    8   44   48     -3.84      0.00
   10   44   48    -10.75      0.00
   12   44   48    -12.39      0.00
   14   44   48      4.84      0.00
   16   44   48      6.62      0.00
   18   44   48    -16.18      0.00
   20   44   48      4.12      0.00
   22   44   48      2.55      0.00
   24   44   48      0.26      0.00
   26   44   48     -0.90      0.00
   28   44   48      1.74      0.00
   30   44   48      0.47      0.00
   32   44   48      0.36      0.00
    0   46   48      0.88      0.00
    2   46   48     -5.98      0.00
    4   46   48     -5.24      0.00
    6   46   48     -3.34      0.00
    8   46   48     -1.92      0.00
   10   46   48     -9.85      0.00
   12   46   48     15.87      0.00
   14   46   48      3.35      0.00
   16   46   48      1.99      0.00
   18   46   48      0.92      0.00
   20   46   48     -4.97      0.00
   22   46   48      1.27      0.00
   24   46   48      0.23      0.00
   26   46   48     -8.94      0.00
   28   46   48      3.81      0.00
   30   46   48     -0.51      0.00
    0   48   48     14.55      0.00
    2   48   48      0.18      0.00
    4   48   48     10.38      0.00
    6   48   48     -8.78      0.00
    8   48   48      9.28      0.00
   10   48   48      6.26      0.00
   12   48   48      3.95      0.00
   14   48   48     20.95      0.00
   16   48   48    -15.87      0.00
   18   48   48      2.55      0.00
   20   48   48     -0.98      0.00
   22   48   48     -9.56      0.00
   24   48   48      7.71      0.00
   26   48   48      8.73      0.00
    1    3   49      4.51      0.00
    1    5   49     32.43      0.00
    3    5   49     10.61      0.00
    1    7   49     -5.28      0.00
    3    7   49      4.39      0.00
    5    7   49      3.08      0.00
    1    9   49    -15.78      0.00
    3    9   49      3.37      0.00
    5    9   49     -8.32      0.00
    7    9   49      3.78      0.00
    1   11   49     22.21      0.00
    3   11   49      5.89      0.00
    5   11   49     -3.71      0.00
    7   11   49      7.82      0.00
    9   11   49     -2.86      0.00
    1   13   49     -9.15      0.00
    3   13   49     16.72      0.00
    5   13   49     13.03      0.00
    7   13   49     -7.62      0.00
    9   13   49    -17.46      0.00
   11   13   49      5.21      0.00
    1   15   49      5.38      0.00
    3   15   49     -8.59      0.00
    5   15   49     -2.81      0.00
    7   15   49      8.46      0.00
    9   15   49    -17.57      0.00
   11   15   49    -16.64      0.00
   13   15   49     18.13      0.00
    1   17   49     -2.52      0.00
    3   17   49     11.81      0.00
    5   17   49     -5.05      0.00
    7   17   49     -2.89      0.00
    9   17   49    -17.88      0.00
   11   17   49    -10.28      0.00
   13   17   49     11.86      0.00
   15   17   49      2.01      0.00
    1   19   49      2.27      0.00
    3   19   49      0.98      0.00
    5   19   49      8.94      0.00
    7   19   49     -4.65      0.00
    9   19   49      8.43      0.00
   11   19   49     -8.27      0.00
   13   19   49      0.25      0.00
   15   19   49    -31.81      0.00
   17   19   49     -1.64      0.00
    1   21   49    -12.98      0.00
    3   21   49      2.39      0.00
    5   21   49     -9.86      0.00
    7   21   49     -1.57      0.00
    9   21   49      7.59      0.00
   11   21   49      6.62      0.00
   13   21   49    -14.00      0.00
   15   21   49    -50.81      0.00
   17   21   49    -16.36      0.00
   19   21   49     -2.90      0.00
    1   23   49     -4.56      0.00
    3   23   49      4.37      0.00
    5   23   49    -13.51      0.00
    7   23   49      0.80      0.00
    9   23   49     13.56      0.00
   11   23   49     34.45      0.00
   13   23   49     -6.76      0.00
   15   23   49    -32.01      0.00
   17   23   49     -0.05      0.00
   19   23   49     -8.76      0.00
   21   23   49    -33.14      0.00
    1   25   49    -16.31      0.00
    3   25   49     19.52      0.00
    5   25   49      1.58      0.00
    7   25   49     -7.27      0.00
    9   25   49     16.83      0.00
   11   25   49     11.97      0.00
   13   25   49     19.58      0.00
   15   25   49      2.25      0.00
   17   25   49    -11.26      0.00
   19   25   49     -3.63      0.00
   21   25   49      0.56      0.00
   23   25   49      1.27      0.00
    1   27   49    -13.57      0.00
    3   27   49     -6.62      0.00
    5   27   49    -11.79      0.00
    7   27   49      0.45      0.00
    9   27   49     -8.29      0.00
   11   27   49     -8.15      0.00
   13   27   49      7.88      0.00
   15   27   49    -15.12      0.00
   17   27   49      4.40      0.00
   19   27   49      6.86      0.00
   21   27   49     17.75      0.00
   23   27   49     10.98      0.00
   25   27   49      5.07      0.00
    1   29   49     -3.43      0.00
    3   29   49      2.46      0.00
    5   29   49      6.49      0.00
    7   29   49    -14.58      0.00
    9   29   49      2.01      0.00
   11   29   49     -8.18      0.00
   13   29   49    -11.35      0.00
   15   29   49     -6.73      0.00
   17   29   49     -7.25      0.00
   19   29   49     11.28      0.00
   21   29   49     18.06      0.00
   23   29   49     -4.92      0.00
   25   29   49    -19.91      0.00
   27   29   49     -6.01      0.00
    1   31   49     -3.45      0.00
    3   31   49     -6.03      0.00
    5   31   49    -18.22      0.00
    7   31   49      5.68      0.00
    9   31   49      4.92      0.00
   11   31   49     -7.13      0.00
   13   31   49    -10.13      0.00
   15   31   49      5.98      0.00
   17   31   49     23.71      0.00
   19   31   49    -15.92      0.00
   21   31   49     -5.25      0.00
   23   31   49     -2.54      0.00
   25   31   49    -10.51      0.00
   27   31   49     14.64      0.00
   29   31   49     -2.12      0.00
    1   33   49      7.78      0.00
    3   33   49     -5.09      0.00
    5   33   49     -5.57      0.00
    7   33   49      5.64      0.00
    9   33   49      1.67      0.00
   11   33   49      3.36      0.00
   13   33   49      1.49      0.00
   15   33   49     14.86      0.00
   17   33   49     -4.36      0.00
   19   33   49     -0.28      0.00
   21   33   49     -7.14      0.00
   23   33   49     -5.99      0.00
   25   33   49     -1.52      0.00
   27   33   49    -12.04      0.00
   29   33   49     -2.54      0.00
   31   33   49    -10.05      0.00
    1   35   49      1.92      0.00
    3   35   49      8.79      0.00
    5   35   49     -1.91      0.00
    7   35   49      0.41      0.00
    9   35   49      7.23      0.00
   11   35   49     -2.95      0.00
   13   35   49    -10.18      0.00
   15   35   49     10.23      0.00
   17   35   49     -0.39      0.00
   19   35   49     -9.61      0.00
   21   35   49      1.37      0.00
   23   35   49      4.96      0.00
   25   35   49      6.44      0.00
   27   35   49     -3.23      0.00
   29   35   49      1.49      0.00
   31   35   49     -0.55      0.00
   33   35   49      4.75      0.00
    1   37   49     10.19      0.00
    3   37   49    -11.84      0.00
    5   37   49      1.48      0.00
    7   37   49     -2.20      0.00
    9   37   49     -3.14      0.00
   11   37   49     18.16      0.00
   13   37   49     -6.90      0.00
   15   37   49     -0.79      0.00
   17   37   49      0.14      0.00
   19   37   49      4.09      0.00
   21   37   49     17.06      0.00
   23   37   49     -7.76      0.00
   25   37   49     -9.15      0.00
   27   37   49    -12.24      0.00
   29   37   49    -22.68      0.00
   31   37   49      4.91      0.00
   33   37   49      0.92      0.00
   35   37   49     -6.35      0.00
    1   39   49     -3.31      0.00
    3   39   49     15.53      0.00
    5   39   49      2.80      0.00
    7   39   49     -4.10      0.00
    9   39   49      4.27      0.00
   11   39   49      0.12      0.00
   13   39   49      1.92      0.00
   15   39   49      0.08      0.00
   17   39   49     -6.42      0.00
   19   39   49      7.46      0.00
   21   39   49      6.05      0.00
   23   39   49      3.11      0.00
   25   39   49    -14.67      0.00
   27   39   49     -1.22      0.00
   29   39   49     -4.95      0.00
   31   39   49     -5.56      0.00
   33   39   49     -3.97      0.00
   35   39   49     -4.75      0.00
   37   39   49     -2.76      0.00
    1   41   49     -5.02      0.00
    3   41   49      6.71      0.00
    5   41   49     -4.19      0.00
    7   41   49      7.22      0.00
    9   41   49      5.83      0.00
   11   41   49      9.73      0.00
   13   41   49     -2.15      0.00
   15   41   49      2.93      0.00
   17   41   49    -13.09      0.00
   19   41   49     -2.00      0.00
   21   41   49      7.90      0.00
   23   41   49     -5.44      0.00
   25   41   49    -17.34      0.00
   27   41   49     -2.70      0.00
   29   41   49      4.29      0.00
   31   41   49     -2.52      0.00
   33   41   49      2.20      0.00
   35   41   49     -1.04      0.00
    1   43   49     -1.43      0.00
    3   43   49      9.74      0.00
    5   43   49     -4.34      0.00
    7   43   49     -6.59      0.00
    9   43   49      0.48      0.00
   11   43   49      9.10      0.00
   13   43   49     -4.32      0.00
   15   43   49     -3.35      0.00
   17   43   49     -3.55      0.00
   19   43   49     10.18      0.00
   21   43   49     -2.35      0.00
   23   43   49     -8.67      0.00
   25   43   49      1.69      0.00
   27   43   49      1.92      0.00
   29   43   49     -8.14      0.00
   31   43   49      6.24      0.00
   33   43   49      6.86      0.00
    1   45   49      4.50      0.00
    3   45   49     12.92      0.00
    5   45   49     -2.59      0.00
    7   45   49      2.66      0.00
    9   45   49     10.21      0.00
   11   45   49    -13.05      0.00
   13   45   49     -4.53      0.00
   15   45   49     -7.06      0.00
   17   45   49     22.93      0.00
   19   45   49      4.46      0.00
   21   45   49      3.23      0.00
   23   45   49     -8.37      0.00
   25   45   49     -1.65      0.00
   27   45   49     13.90      0.00
   29   45   49      2.08      0.00
    1   47   49      3.24      0.00
    3   47   49     -3.28      0.00
    5   47   49     -3.70      0.00
    7   47   49     -0.36      0.00
    9   47   49     26.39      0.00
   11   47   49     -8.85      0.00
   13   47   49     -9.10      0.00
   15   47   49     -2.75      0.00
   17   47   49      4.14      0.00
   19   47   49      5.71      0.00
   21   47   49      2.97      0.00
   23   47   49    -14.89      0.00
   25   47   49      6.77      0.00
   27   47   49      2.41      0.00
    0    0   50      2.30      0.00
    0    2   50    -35.69      0.00
    2    2   50    -26.12      0.00
    0    4   50    -50.47      0.00
    2    4   50    -19.68      0.00
    4    4   50     -0.65      0.00
    0    6   50    -11.32      0.00
    2    6   50     -6.72      0.00
    4    6   50     18.92      0.00
    6    6   50     20.64      0.00
    0    8   50    -20.10      0.00
    2    8   50      4.52      0.00
    4    8   50      7.55      0.00
    6    8   50      5.71      0.00
    8    8   50      8.52      0.00
    0   10   50      5.48      0.00
    2   10   50     -9.32      0.00
    4   10   50      8.47      0.00
    6   10   50    -11.57      0.00
    8   10   50     18.60      0.00
   10   10   50     21.18      0.00
    0   12   50     -2.16      0.00
    2   12   50     14.73      0.00
    4   12   50      7.22      0.00
    6   12   50      5.33      0.00
    8   12   50     14.21      0.00
   10   12   50     -4.84      0.00
   12   12   50    -17.55      0.00
    0   14   50    -21.51      0.00
    2   14   50    -26.90      0.00
    4   14   50    -12.68      0.00
    6   14   50     -0.70      0.00
    8   14   50      6.14      0.00
   10   14   50     17.50      0.00
   12   14   50    -20.34      0.00
   14   14   50     26.24      0.00
    0   16   50     10.47      0.00
    2   16   50     10.62      0.00
    4   16   50     15.85      0.00
    6   16   50    -22.88      0.00
    8   16   50      7.07      0.00
   10   16   50     18.30      0.00
   12   16   50      2.99      0.00
   14   16   50      5.65      0.00
   16   16   50      3.34      0.00
    0   18   50     13.26      0.00
    2   18   50      9.98      0.00
    4   18   50      8.26      0.00
    6   18   50     -3.13      0.00
    8   18   50     -7.26      0.00
   10   18   50     19.78      0.00
   12   18   50     -8.22      0.00
   14   18   50     -5.30      0.00
   16   18   50     -7.68      0.00
   18   18   50    -12.81      0.00
    0   20   50     34.68      0.00
    2   20   50      9.28      0.00
    4   20   50     -3.80      0.00
    6   20   50      5.20      0.00
    8   20   50     -9.91      0.00
   10   20   50     16.46      0.00
   12   20   50    -13.03      0.00
   14   20   50      7.04      0.00
   16   20   50     -3.67      0.00
   18   20   50    -14.58      0.00
   20   20   50    -11.35      0.00
    0   22   50      6.01      0.00
    2   22   50    -12.88      0.00
    4   22   50     13.60      0.00
    6   22   50     12.16      0.00
    8   22   50     -6.47      0.00
   10   22   50    -12.50      0.00
   12   22   50      7.77      0.00
   14   22   50    -15.46      0.00
   16   22   50    -14.42      0.00
   18   22   50      2.83      0.00
   20   22   50     -1.10      0.00
   22   22   50     14.12      0.00
    0   24   50     -2.17      0.00
    2   24   50     11.64      0.00
    4   24   50      4.16      0.00
    6   24   50     11.04      0.00
    8   24   50     -4.36      0.00
   10   24   50     -6.54      0.00
   12   24   50     -0.07      0.00
   14   24   50     -8.93      0.00
   16   24   50    -22.72      0.00
   18   24   50     -5.74      0.00
   20   24   50      1.21      0.00
   22   24   50     -0.26      0.00
   24   24   50     -7.23      0.00
    0   26   50     12.23      0.00
    2   26   50     -7.22      0.00
    4   26   50      3.37      0.00
    6   26   50     43.14      0.00
    8   26   50    -35.97      0.00
   10   26   50      6.48      0.00
   12   26   50     11.09      0.00
   14   26   50    -16.53      0.00
   16   26   50    -12.77      0.00
   18   26   50      4.96      0.00
   20   26   50     -7.29      0.00
   22   26   50      3.35      0.00
   24   26   50     -0.50      0.00
   26   26   50     -2.37      0.00
    0   28   50    -11.89      0.00
    2   28   50      1.59      0.00
    4   28   50     -9.93      0.00
    6   28   50     10.82      0.00
    8   28   50     -1.37      0.00
   10   28   50      3.25      0.00
   12   28   50     -5.28      0.00
   14   28   50    -10.05      0.00
   16   28   50     -6.02      0.00
   18   28   50      8.87      0.00
   20   28   50      6.57      0.00
   22   28   50     -4.12      0.00
   24   28   50     -5.35      0.00
   26   28   50     -1.01      0.00
   28   28   50    -13.55      0.00
    0   30   50    -14.60      0.00
    2   30   50    -10.78      0.00
    4   30   50    -15.46      0.00
    6   30   50    -12.10      0.00
    8   30   50     12.90      0.00
   10   30   50     -2.78      0.00
   12   30   50     -4.78      0.00
   14   30   50      6.65      0.00
   16   30   50     -1.39      0.00
   18   30   50      5.47      0.00
   20   30   50      8.33      0.00
   22   30   50     -4.59      0.00
   24   30   50     -1.12      0.00
   26   30   50      8.75      0.00
   28   30   50     -3.24      0.00
   30   30   50      1.33      0.00
    0   32   50     -8.71      0.00
    2   32   50     -7.98      0.00
    4   32   50     -4.57      0.00
    6   32   50      2.01      0.00
    8   32   50     -8.37      0.00
   10   32   50      0.32      0.00
   12   32   50     10.21      0.00
   14   32   50      9.68      0.00
   16   32   50      1.74      0.00
   18   32   50     -9.63      0.00
   20   32   50     -0.77      0.00
   22   32   50     -5.59      0.00
   24   32   50     -3.75      0.00
   26   32   50     -4.76      0.00
   28   32   50    -10.74      0.00
   30   32   50    -14.64      0.00
   32   32   50     -7.47      0.00
    0   34   50     -3.10      0.00
    2   34   50    -14.54      0.00
    4   34   50      9.61      0.00
    6   34   50      7.75      0.00
    8   34   50    -13.73      0.00
   10   34   50     -2.05      0.00
   12   34   50      3.64      0.00
   14   34   50     -4.17      0.00
   16   34   50     18.20      0.00
   18   34   50     -9.39      0.00
   20   34   50     -5.87      0.00
   22   34   50    -17.62      0.00
   24   34   50      1.87      0.00
   26   34   50      1.23      0.00
   28   34   50     -3.82      0.00
   30   34   50     -7.55      0.00
   32   34   50      5.78      0.00
   34   34   50      8.83      0.00
    0   36   50     -3.85      0.00
    2   36   50     -5.93      0.00
    4   36   50     31.20      0.00
    6   36   50      7.96      0.00
    8   36   50     -5.34      0.00
   10   36   50     10.69      0.00
   12   36   50      1.69      0.00
   14   36   50     10.90      0.00
   16   36   50      0.39      0.00
   18   36   50      1.82      0.00
   20   36   50      3.92      0.00
   22   36   50     -2.26      0.00
   24   36   50      8.36      0.00
   26   36   50      2.08      0.00
   28   36   50     -0.11      0.00
   30   36   50     -6.09      0.00
   32   36   50     12.09      0.00
   34   36   50      4.54      0.00
   36   36   50     16.28      0.00
    0   38   50      4.56      0.00
    2   38   50      4.23      0.00
    4   38   50      8.69      0.00
    6   38   50      5.81      0.00
    8   38   50      5.79      0.00
   10   38   50      5.43      0.00
   12   38   50     14.42      0.00
   14   38   50     14.55      0.00
   16   38   50      5.09      0.00
   18   38   50     -1.39      0.00
   20   38   50     -2.03      0.00
   22   38   50      6.02      0.00
   24   38   50      8.64      0.00
   26   38   50     -1.45      0.00
   28   38   50      2.44      0.00
   30   38   50      3.34      0.00
   32   38   50     -3.04      0.00
   34   38   50     -0.78      0.00
   36   38   50     16.28      0.00
    0   40   50     -3.36      0.00
    2   40   50      3.28      0.00
    4   40   50      0.50      0.00
    6   40   50     10.75      0.00
    8   40   50     -1.09      0.00
   10   40   50      2.19      0.00
   12   40   50     -2.58      0.00
   14   40   50      6.18      0.00
   16   40   50      0.72      0.00
   18   40   50     -5.32      0.00
   20   40   50     -1.05      0.00
   22   40   50      1.38      0.00
   24   40   50     -5.50      0.00
   26   40   50     -1.47      0.00
   28   40   50     -2.31      0.00
   30   40   50      3.66      0.00
   32   40   50     -0.93      0.00
   34   40   50     11.77      0.00
    0   42   50     10.85      0.00
    2   42   50     -5.63      0.00
    4   42   50      3.59      0.00
    6   42   50    -12.16      0.00
    8   42   50     -2.39      0.00
   10   42   50     -1.11      0.00
   12   42   50      0.11      0.00
   14   42   50     -0.64      0.00
   16   42   50      7.64      0.00
   18   42   50     -2.12      0.00
   20   42   50      8.03      0.00
   22   42   50      4.00      0.00
   24   42   50     -0.95      0.00
   26   42   50      8.83      0.00
   28   42   50      7.59      0.00
   30   42   50      1.64      0.00
   32   42   50      7.11      0.00
    0   44   50     -1.32      0.00
    2   44   50      2.01      0.00
    4   44   50      5.22      0.00
    6   44   50     -3.46      0.00
    8   44   50      0.90      0.00
   10   44   50     -2.41      0.00
   12   44   50     -3.95      0.00
   14   44   50      4.31      0.00
   16   44   50    -15.50      0.00
   18   44   50     -2.39      0.00
   20   44   50     -6.28      0.00
   22   44   50    -11.45      0.00
   24   44   50     -3.55      0.00
   26   44   50     -4.12      0.00
   28   44   50     20.02      0.00
   30   44   50      5.91      0.00
    0   46   50     -0.46      0.00
    2   46   50      5.73      0.00
    4   46   50      9.52      0.00
    6   46   50     -6.08      0.00
    8   46   50     -8.04      0.00
   10   46   50    -15.09      0.00
   12   46   50    -15.20      0.00
   14   46   50     -1.56      0.00
   16   46   50    -12.19      0.00
   18   46   50      6.37      0.00
   20   46   50     -1.39      0.00
   22   46   50    -18.58      0.00
   24   46   50      1.03      0.00
   26   46   50      4.99      0.00
    0   48   50     -6.59      0.00
    2   48   50     11.42      0.00
    4   48   50     -2.38      0.00
    6   48   50      5.85      0.00
    8   48   50     -9.48      0.00
   10   48   50     -3.14      0.00
   12   48   50     -1.29      0.00
   14   48   50     -6.14      0.00
   16   48   50      6.43      0.00
   18   48   50      6.17      0.00
   20   48   50     -9.71      0.00
   22   48   50     -8.47      0.00
    0   50   50     13.52      0.00
    2   50   50      5.71      0.00
    4   50   50     17.14      0.00
    6   50   50     10.81      0.00
    8   50   50      6.74      0.00
   10   50   50     -0.78      0.00
   12   50   50      4.49      0.00
   14   50   50      5.53      0.00
   16   50   50    -16.04      0.00
   18   50   50      0.94      0.00
    1    3   51    -11.69      0.00
    1    5   51     -2.19      0.00
    3    5   51      5.55      0.00
    1    7   51    -14.11      0.00
    3    7   51     18.22      0.00
    5    7   51     15.73      0.00
    1    9   51     -4.68      0.00
    3    9   51     12.46      0.00
    5    9   51     -3.82      0.00
    7    9   51      5.45      0.00
    1   11   51     10.08      0.00
    3   11   51     -4.12      0.00
    5   11   51    -11.44      0.00
    7   11   51      0.91      0.00
    9   11   51      2.31      0.00
    1   13   51      8.01      0.00
    3   13   51    -13.02      0.00
    5   13   51    -10.47      0.00
    7   13   51      0.04      0.00
    9   13   51      0.33      0.00
   11   13   51     -0.03      0.00
    1   15   51     10.38      0.00
    3   15   51    -10.31      0.00
    5   15   51      9.52      0.00
    7   15   51      9.35      0.00
    9   15   51      1.81      0.00
   11   15   51     -7.73      0.00
   13   15   51    -20.15      0.00
    1   17   51     18.15      0.00
    3   17   51      3.13      0.00
    5   17   51     26.74      0.00
    7   17   51     19.59      0.00
    9   17   51     14.76      0.00
   11   17   51     -7.02      0.00
   13   17   51     13.06      0.00
   15   17   51      0.96      0.00
    1   19   51     11.20      0.00
    3   19   51     16.24      0.00
    5   19   51     -4.98      0.00
    7   19   51     14.16      0.00
    9   19   51     19.99      0.00
   11   19   51      5.16      0.00
   13   19   51     10.11      0.00
   15   19   51     -3.55      0.00
   17   19   51    -11.44      0.00
    1   21   51     10.00      0.00
    3   21   51     -6.34      0.00
    5   21   51     -0.66      0.00
    7   21   51      9.46      0.00
    9   21   51      5.27      0.00
   11   21   51    -11.08      0.00
   13   21   51    -29.52      0.00
   15   21   51     -6.48      0.00
   17   21   51      0.98      0.00
   19   21   51     -2.18      0.00
    1   23   51     -3.40      0.00
    3   23   51    -20.71      0.00
    5   23   51    -36.59      0.00
    7   23   51     -6.83      0.00
    9   23   51     20.53      0.00
   11   23   51     -8.11      0.00
   13   23   51    -47.88      0.00
   15   23   51      4.77      0.00
   17   23   51      7.21      0.00
   19   23   51     11.38      0.00
   21   23   51      3.00      0.00
    1   25   51      6.62      0.00
    3   25   51     -8.84      0.00
    5   25   51    -10.04      0.00
    7   25   51     -7.01      0.00
    9   25   51     -4.31      0.00
   11   25   51      0.10      0.00
   13   25   51     -5.43      0.00
   15   25   51      0.40      0.00
   17   25   51     14.69      0.00
   19   25   51     -1.71      0.00
   21   25   51     -0.34      0.00
   23   25   51     -2.86      0.00
    1   27   51     15.49      0.00
    3   27   51      7.01      0.00
    5   27   51     11.75      0.00
    7   27   51     -4.19      0.00
    9   27   51     -2.21      0.00
   11   27   51      2.88      0.00
   13   27   51     -1.08      0.00
   15   27   51      6.70      0.00
   17   27   51    -10.88      0.00
   19   27   51    -13.56      0.00
   21   27   51      5.16      0.00
   23   27   51      8.68      0.00
   25   27   51     -4.68      0.00
    1   29   51     31.19      0.00
    3   29   51     -5.97      0.00
    5   29   51      7.85      0.00
    7   29   51     -2.34      0.00
    9   29   51    -14.28      0.00
   11   29   51     -0.08      0.00
   13   29   51     14.16      0.00
   15   29   51     -2.44      0.00
   17   29   51    -11.95      0.00
   19   29   51    -14.62      0.00
   21   29   51      6.23      0.00
   23   29   51     -8.10      0.00
   25   29   51     -3.73      0.00
   27   29   51     24.65      0.00
    1   31   51     -7.81      0.00
    3   31   51      7.82      0.00
    5   31   51     -3.16      0.00
    7   31   51     -3.45      0.00
    9   31   51      5.92      0.00
   11   31   51      7.31      0.00
   13   31   51      5.52      0.00
   15   31   51     11.20      0.00
   17   31   51     -0.32      0.00
   19   31   51    -13.40      0.00
   21   31   51      0.88      0.00
   23   31   51     -2.15      0.00
   25   31   51      0.61      0.00
   27   31   51     -0.93      0.00
   29   31   51     -0.62      0.00
    1   33   51     -7.55      0.00
    3   33   51     12.29      0.00
    5   33   51     -8.17      0.00
    7   33   51      5.96      0.00
    9   33   51     -2.13      0.00
   11   33   51      2.77      0.00
   13   33   51     -2.50      0.00
   15   33   51     -8.62      0.00
   17   33   51      4.40      0.00
   19   33   51     -9.63      0.00
   21   33   51     10.82      0.00
   23   33   51     16.56      0.00
   25   33   51    -21.57      0.00
   27   33   51      6.28      0.00
   29   33   51     -4.34      0.00
   31   33   51    -19.28      0.00
    1   35   51      0.75      0.00
    3   35   51     -2.05      0.00
    5   35   51     10.72      0.00
    7   35   51      0.26      0.00
    9   35   51    -17.25      0.00
   11   35   51     -8.00      0.00
   13   35   51    -11.26      0.00
   15   35   51     -1.24      0.00
   17   35   51      2.83      0.00
   19   35   51      4.81      0.00
   21   35   51      9.94      0.00
   23   35   51      0.76      0.00
   25   35   51     15.46      0.00
   27   35   51      1.03      0.00
   29   35   51    -13.59      0.00
   31   35   51     -4.31      0.00
   33   35   51     -2.06      0.00
    1   37   51     -3.89      0.00
    3   37   51      7.74      0.00
    5   37   51     -0.57      0.00
    7   37   51      1.89      0.00
    9   37   51      1.73      0.00
   11   37   51     -6.90      0.00
   13   37   51    -16.80      0.00
   15   37   51      3.07      0.00
   17   37   51      1.57      0.00
   19   37   51     20.39      0.00
   21   37   51     -1.73      0.00
   23   37   51     -4.99      0.00
   25   37   51      5.91      0.00
   27   37   51     -0.37      0.00
   29   37   51     -3.55      0.00
   31   37   51      0.27      0.00
   33   37   51     -5.22      0.00
   35   37   51     -8.30      0.00
    1   39   51     13.62      0.00
    3   39   51    -13.91      0.00
    5   39   51      4.03      0.00
    7   39   51     12.08      0.00
    9   39   51    -20.75      0.00
   11   39   51    -16.16      0.00
   13   39   51     -8.86      0.00
   15   39   51     -8.43      0.00
   17   39   51    -11.79      0.00
   19   39   51     -7.53      0.00
   21   39   51    -10.84      0.00
   23   39   51     -5.29      0.00
   25   39   51    -20.26      0.00
   27   39   51      9.46      0.00
   29   39   51      3.57      0.00
   31   39   51     -1.73      0.00
   33   39   51      6.84      0.00
   35   39   51    -11.84      0.00
    1   41   51      6.65      0.00
    3   41   51     13.70      0.00
    5   41   51      2.13      0.00
    7   41   51      9.54      0.00
    9   41   51     -3.76      0.00
   11   41   51      4.98      0.00
   13   41   51    -22.38      0.00
   15   41   51     -8.36      0.00
   17   41   51    -16.78      0.00
   19   41   51    -10.88      0.00
   21   41   51     -8.04      0.00
   23   41   51      7.15      0.00
   25   41   51     -1.04      0.00
   27   41   51     -0.55      0.00
   29   41   51      4.20      0.00
   31   41   51      4.23      0.00
    1   43   51     -5.27      0.00
    3   43   51     -0.89      0.00
    5   43   51     -2.39      0.00
    7   43   51      3.00      0.00
    9   43   51      1.31      0.00
   11   43   51     -0.65      0.00
   13   43   51     -6.75      0.00
   15   43   51      0.76      0.00
   17   43   51     -3.28      0.00
   19   43   51     -7.85      0.00
   21   43   51      4.39      0.00
   23   43   51     -1.22      0.00
   25   43   51      9.77      0.00
   27   43   51      9.61      0.00
   29   43   51      3.15      0.00
    1   45   51     14.30      0.00
    3   45   51      8.56      0.00
    5   45   51     19.06      0.00
    7   45   51     -8.21      0.00
    9   45   51     11.81      0.00
   11   45   51    -11.30      0.00
   13   45   51    -10.09      0.00
   15   45   51    -11.32      0.00
   17   45   51    -14.19      0.00
   19   45   51     -3.18      0.00
   21   45   51      6.39      0.00
   23   45   51    -16.94      0.00
   25   45   51      8.28      0.00
   27   45   51     -4.17      0.00
    1   47   51      9.56      0.00
    3   47   51      3.99      0.00
    5   47   51     -6.01      0.00
    7   47   51     -1.42      0.00
    9   47   51     15.51      0.00
   11   47   51     -5.13      0.00
   13   47   51     -1.18      0.00
   15   47   51     -7.56      0.00
   17   47   51      6.01      0.00
   19   47   51     -6.76      0.00
   21   47   51     10.85      0.00
   23   47   51      2.72      0.00
    1   49   51      3.87      0.00
    3   49   51     -4.82      0.00
    5   49   51      4.27      0.00
    7   49   51     -0.83      0.00
    9   49   51      9.26      0.00
   11   49   51     -4.28      0.00
   13   49   51      1.76      0.00
   15   49   51      5.21      0.00
   17   49   51     -0.87      0.00
    0    0   52    -68.53      0.00
    0    2   52    -51.98      0.00
    2    2   52    -16.29      0.00
    0    4   52      9.07      0.00
    2    4   52     10.47      0.00
    4    4   52      6.08      0.00
    0    6   52      0.55      0.00
    2    6   52     -0.92      0.00
    4    6   52    -21.72      0.00
    6    6   52    -22.10      0.00
    0    8   52     -7.03      0.00
    2    8   52    -17.00      0.00
    4    8   52     -5.91      0.00
    6    8   52     -1.93      0.00
    8    8   52     18.74      0.00
    0   10   52    -31.37      0.00
    2   10   52     -4.67      0.00
    4   10   52    -18.02      0.00
    6   10   52     11.22      0.00
    8   10   52      4.33      0.00
   10   10   52      3.50      0.00
    0   12   52    -34.83      0.00
    2   12   52    -22.00      0.00
    4   12   52      5.62      0.00
    6   12   52    -21.50      0.00
    8   12   52     -9.89      0.00
   10   12   52     -6.92      0.00
   12   12   52     -2.98      0.00
    0   14   52    -28.32      0.00
    2   14   52     16.13      0.00
    4   14   52     25.91      0.00
    6   14   52      1.01      0.00
    8   14   52      4.49      0.00
   10   14   52    -35.94      0.00
   12   14   52     -0.09      0.00
   14   14   52      6.66      0.00
    0   16   52      2.07      0.00
    2   16   52     18.20      0.00
    4   16   52     18.75      0.00
    6   16   52     14.91      0.00
    8   16   52     -4.42      0.00
   10   16   52     -8.86      0.00
   12   16   52     -0.69      0.00
   14   16   52    -10.44      0.00
   16   16   52    -14.52      0.00
    0   18   52    -13.71      0.00
    2   18   52      6.41      0.00
    4   18   52      9.00      0.00
    6   18   52    -12.29      0.00
    8   18   52      6.96      0.00
   10   18   52     -2.42      0.00
   12   18   52    -11.97      0.00
   14   18   52      4.45      0.00
   16   18   52     -3.32      0.00
   18   18   52      5.91      0.00
    0   20   52     10.02      0.00
    2   20   52      0.17      0.00
    4   20   52      5.28      0.00
    6   20   52    -20.32      0.00
    8   20   52     26.89      0.00
   10   20   52     -9.82      0.00
   12   20   52     -8.29      0.00
   14   20   52      9.17      0.00
   16   20   52     -7.31      0.00
   18   20   52     16.72      0.00
   20   20   52    -23.43      0.00
    0   22   52     -0.24      0.00
    2   22   52     15.28      0.00
    4   22   52    -10.06      0.00
    6   22   52     -1.97      0.00
    8   22   52      6.69      0.00
   10   22   52    -16.47      0.00
   12   22   52      9.08      0.00
   14   22   52     22.63      0.00
   16   22   52    -10.71      0.00
   18   22   52     -8.34      0.00
   20   22   52     -8.84      0.00
   22   22   52    -17.56      0.00
    0   24   52    -11.22      0.00
    2   24   52     10.31      0.00
    4   24   52      8.54      0.00
    6   24   52     16.66      0.00
    8   24   52     -8.26      0.00
   10   24   52    -12.27      0.00
   12   24   52     14.44      0.00
   14   24   52     -2.16      0.00
   16   24   52     -8.85      0.00
   18   24   52      2.72      0.00
   20   24   52     -7.18      0.00
   22   24   52     -6.04      0.00
   24   24   52    -13.44      0.00
    0   26   52    -11.50      0.00
    2   26   52      3.42      0.00
    4   26   52      5.67      0.00
    6   26   52      3.50      0.00
    8   26   52     -7.61      0.00
   10   26   52     -4.25      0.00
   12   26   52     10.76      0.00
   14   26   52    -18.87      0.00
   16   26   52      8.75      0.00
   18   26   52      5.62      0.00
   20   26   52     -2.15      0.00
   22   26   52      2.56      0.00
   24   26   52     -4.53      0.00
   26   26   52     -4.98      0.00
    0   28   52      2.27      0.00
    2   28   52      3.77      0.00
    4   28   52    -12.76      0.00
    6   28   52     -1.00      0.00
    8   28   52    -16.51      0.00
   10   28   52      0.23      0.00
   12   28   52    -23.65      0.00
   14   28   52      4.70      0.00
   16   28   52      0.94      0.00
   18   28   52     11.87      0.00
   20   28   52     -2.88      0.00
   22   28   52     11.08      0.00
   24   28   52      8.96      0.00
   26   28   52     -4.98      0.00
   28   28   52     -2.76      0.00
    0   30   52    -10.91      0.00
    2   30   52      0.74      0.00
    4   30   52     -9.82      0.00
    6   30   52     -5.36      0.00
    8   30   52     24.05      0.00
   10   30   52     -7.24      0.00
   12   30   52     -1.28      0.00
   14   30   52     -1.41      0.00
   16   30   52      6.54      0.00
   18   30   52      0.50      0.00
   20   30   52      5.13      0.00
   22   30   52      2.69      0.00
   24   30   52      6.61      0.00
   26   30   52      1.42      0.00
   28   30   52    -10.23      0.00
   30   30   52      8.91      0.00
    0   32   52     23.72      0.00
    2   32   52     -9.86      0.00
    4   32   52     -0.44      0.00
    6   32   52      7.39      0.00
    8   32   52     12.89      0.00
   10   32   52    -10.67      0.00
   12   32   52     11.00      0.00
   14   32   52     -2.12      0.00
   16   32   52      0.53      0.00
   18   32   52      2.03      0.00
   20   32   52      5.38      0.00
   22   32   52     -5.54      0.00
   24   32   52     13.14      0.00
   26   32   52     -0.22      0.00
   28   32   52     -7.61      0.00
   30   32   52      6.62      0.00
   32   32   52     12.34      0.00
    0   34   52      2.37      0.00
    2   34   52    -18.52      0.00
    4   34   52      0.04      0.00
    6   34   52    -14.22      0.00
    8   34   52      1.57      0.00
   10   34   52      0.24      0.00
   12   34   52      4.78      0.00
   14   34   52      3.67      0.00
   16   34   52      3.83      0.00
   18   34   52     -2.35      0.00
   20   34   52     11.43      0.00
   22   34   52     -6.25      0.00
   24   34   52      9.01      0.00
   26   34   52      9.30      0.00
   28   34   52      5.12      0.00
   30   34   52     -4.78      0.00
   32   34   52      3.63      0.00
   34   34   52    -17.39      0.00
    0   36   52     -2.58      0.00
    2   36   52     -7.98      0.00
    4   36   52      0.84      0.00
    6   36   52      4.41      0.00
    8   36   52     -1.37      0.00
   10   36   52     16.15      0.00
   12   36   52      6.51      0.00
   14   36   52     -6.26      0.00
   16   36   52    -16.12      0.00
   18   36   52      9.35      0.00
   20   36   52     11.43      0.00
   22   36   52    -13.87      0.00
   24   36   52      2.44      0.00
   26   36   52    -13.08      0.00
   28   36   52     -2.16      0.00
   30   36   52     -0.41      0.00
   32   36   52      6.38      0.00
   34   36   52      0.67      0.00
   36   36   52     -7.11      0.00
    0   38   52      1.88      0.00
    2   38   52     -7.00      0.00
    4   38   52     10.24      0.00
    6   38   52    -13.05      0.00
    8   38   52    -16.01      0.00
   10   38   52    -13.96      0.00
   12   38   52      8.77      0.00
   14   38   52      9.61      0.00
   16   38   52     -0.59      0.00
   18   38   52     -2.73      0.00
   20   38   52     -0.97      0.00
   22   38   52      6.12      0.00
   24   38   52     -0.54      0.00
   26   38   52      4.10      0.00
   28   38   52     -0.01      0.00
   30   38   52     11.53      0.00
   32   38   52      7.19      0.00
   34   38   52     -9.08      0.00
    0   40   52     19.06      0.00
    2   40   52     -3.84      0.00
    4   40   52      1.71      0.00
    6   40   52     -5.46      0.00
    8   40   52      8.76      0.00
   10   40   52      0.77      0.00
   12   40   52      2.86      0.00
   14   40   52      2.65      0.00
   16   40   52     -2.70      0.00
   18   40   52      1.21      0.00
   20   40   52     -4.30      0.00
   22   40   52      6.95      0.00
   24   40   52     -5.10      0.00
   26   40   52     -8.53      0.00
   28   40   52     -1.36      0.00
   30   40   52     -2.16      0.00
   32   40   52      1.15      0.00
    0   42   52     -3.10      0.00
    2   42   52     -0.40      0.00
    4   42   52     -2.49      0.00
    6   42   52      4.14      0.00
    8   42   52     -8.72      0.00
   10   42   52     -5.92      0.00
   12   42   52     -0.56      0.00
   14   42   52      0.12      0.00
   16   42   52     -6.88      0.00
   18   42   52      3.84      0.00
   20   42   52     -0.26      0.00
   22   42   52     -0.23      0.00
   24   42   52      2.00      0.00
   26   42   52     -0.70      0.00
   28   42   52      9.26      0.00
    0   44   52     -7.02      0.00
    2   44   52     -2.29      0.00
    4   44   52     -7.76      0.00
    6   44   52     -6.69      0.00
    8   44   52     -6.78      0.00
   10   44   52     -1.43      0.00
   12   44   52     -1.55      0.00
   14   44   52      6.73      0.00
   16   44   52     -1.02      0.00
   18   44   52      4.90      0.00
   20   44   52      7.36      0.00
   22   44   52      2.55      0.00
   24   44   52    -11.22      0.00
   26   44   52      0.02      0.00
    0   46   52    -21.56      0.00
    2   46   52      5.76      0.00
    4   46   52      2.91      0.00
    6   46   52    -16.39      0.00
    8   46   52     -0.65      0.00
   10   46   52     -7.88      0.00
   12   46   52      3.57      0.00
   14   46   52      9.25      0.00
   16   46   52     -1.11      0.00
   18   46   52     24.55      0.00
   20   46   52      2.02      0.00
   22   46   52      3.42      0.00
    0   48   52     -6.80      0.00
    2   48   52     -3.92      0.00
    4   48   52      0.62      0.00
    6   48   52     -0.08      0.00
    8   48   52     -4.95      0.00
   10   48   52     -4.98      0.00
   12   48   52     -2.17      0.00
   14   48   52      6.14      0.00
   16   48   52     -1.88      0.00
   18   48   52      2.47      0.00
    0   50   52     -1.90      0.00
    2   50   52     -8.06      0.00
    4   50   52     -7.18      0.00
    6   50   52     -3.19      0.00
    8   50   52     -2.92      0.00
   10   50   52     -1.68      0.00
   12   50   52      1.11      0.00
    1    3   53     -0.64      0.00
    1    5   53     -9.14      0.00
    3    5   53     -8.56      0.00
    1    7   53     21.48      0.00
    3    7   53      2.60      0.00
    5    7   53     -3.56      0.00
    1    9   53      4.11      0.00
    3    9   53      5.55      0.00
    5    9   53     -0.84      0.00
    7    9   53     -1.46      0.00
    1   11   53     -3.57      0.00
    3   11   53      0.59      0.00
    5   11   53      4.07      0.00
    7   11   53      6.91      0.00
    9   11   53      6.07      0.00
    1   13   53      6.04      0.00
    3   13   53     -9.99      0.00
    5   13   53      2.51      0.00
    7   13   53    -20.05      0.00
    9   13   53      3.68      0.00
   11   13   53     10.75      0.00
    1   15   53      3.24      0.00
    3   15   53    -30.84      0.00
    5   15   53    -19.36      0.00
    7   15   53    -21.79      0.00
    9   15   53     -0.16      0.00
   11   15   53     13.02      0.00
   13   15   53    -17.28      0.00
    1   17   53      2.31      0.00
    3   17   53     10.03      0.00
    5   17   53      6.98      0.00
    7   17   53     -3.75      0.00
    9   17   53     -6.00      0.00
   11   17   53      5.72      0.00
   13   17   53    -12.57      0.00
   15   17   53      0.10      0.00
    1   19   53      1.87      0.00
    3   19   53      0.31      0.00
    5   19   53     -7.22      0.00
    7   19   53    -12.61      0.00
    9   19   53      4.97      0.00
   11   19   53      3.77      0.00
   13   19   53      9.36      0.00
   15   19   53     12.87      0.00
   17   19   53     -6.67      0.00
    1   21   53     -9.42      0.00
    3   21   53      6.83      0.00
    5   21   53    -17.62      0.00
    7   21   53     -7.95      0.00
    9   21   53      9.91      0.00
   11   21   53     -0.46      0.00
   13   21   53      7.46      0.00
   15   21   53     29.11      0.00
   17   21   53    -19.54      0.00
   19   21   53      8.96      0.00
    1   23   53     -3.34      0.00
    3   23   53      7.91      0.00
    5   23   53     -4.60      0.00
    7   23   53      0.84      0.00
    9   23   53     17.47      0.00
   11   23   53     22.15      0.00
   13   23   53     -9.65      0.00
   15   23   53     11.78      0.00
   17   23   53      2.57      0.00
   19   23   53    -20.75      0.00
   21   23   53     10.05      0.00
    1   25   53      4.98      0.00
    3   25   53     21.21      0.00
    5   25   53      5.92      0.00
    7   25   53      0.82      0.00
    9   25   53      3.41      0.00
   11   25   53      1.90      0.00
   13   25   53      5.60      0.00
   15   25   53     18.40      0.00
   17   25   53    -13.92      0.00
   19   25   53    -18.05      0.00
   21   25   53    -29.90      0.00
   23   25   53      1.04      0.00
    1   27   53    -10.52      0.00
    3   27   53     13.51      0.00
    5   27   53     24.72      0.00
    7   27   53      1.20      0.00
    9   27   53      5.32      0.00
   11   27   53      5.36      0.00
   13   27   53     14.58      0.00
   15   27   53     14.23      0.00
   17   27   53     11.97      0.00
   19   27   53     -0.18      0.00
   21   27   53     -5.09      0.00
   23   27   53     -5.39      0.00
   25   27   53     17.74      0.00
    1   29   53      1.05      0.00
    3   29   53     19.83      0.00
    5   29   53      0.83      0.00
    7   29   53     -7.98      0.00
    9   29   53     -2.67      0.00
   11   29   53      8.50      0.00
   13   29   53      5.45      0.00
   15   29   53      8.91      0.00
   17   29   53     -3.03      0.00
   19   29   53    -20.59      0.00
   21   29   53      0.92      0.00
   23   29   53      0.95      0.00
   25   29   53    -12.04      0.00
   27   29   53     14.54      0.00
    1   31   53     -1.41      0.00
    3   31   53     12.77      0.00
    5   31   53      4.70      0.00
    7   31   53     -4.23      0.00
    9   31   53      5.56      0.00
   11   31   53      1.50      0.00
   13   31   53     -8.13      0.00
   15   31   53     -4.71      0.00
   17   31   53      7.42      0.00
   19   31   53      1.70      0.00
   21   31   53     -8.33      0.00
   23   31   53     13.48      0.00
   25   31   53    -15.06      0.00
   27   31   53     -7.76      0.00
   29   31   53      0.93      0.00
    1   33   53    -16.93      0.00
    3   33   53      1.37      0.00
    5   33   53     -5.16      0.00
    7   33   53      2.51      0.00
    9   33   53      2.89      0.00
   11   33   53      1.05      0.00
   13   33   53     -2.97      0.00
   15   33   53     -1.35      0.00
   17   33   53      7.46      0.00
   19   33   53      5.22      0.00
   21   33   53     15.87      0.00
   23   33   53     -0.57      0.00
   25   33   53     -3.20      0.00
   27   33   53     -0.22      0.00
   29   33   53     15.34      0.00
   31   33   53      4.51      0.00
    1   35   53     -3.76      0.00
    3   35   53     11.92      0.00
    5   35   53    -27.28      0.00
    7   35   53     -3.92      0.00
    9   35   53     13.79      0.00
   11   35   53     -6.48      0.00
   13   35   53      3.62      0.00
   15   35   53     14.88      0.00
   17   35   53      2.19      0.00
   19   35   53      0.51      0.00
   21   35   53      1.24      0.00
   23   35   53     -4.14      0.00
   25   35   53    -14.31      0.00
   27   35   53     -3.73      0.00
   29   35   53     13.91      0.00
   31   35   53     10.73      0.00
   33   35   53      6.59      0.00
    1   37   53      2.15      0.00
    3   37   53    -11.27      0.00
    5   37   53     -8.24      0.00
    7   37   53      8.89      0.00
    9   37   53      4.73      0.00
   11   37   53     -4.99      0.00
   13   37   53     -1.78      0.00
   15   37   53     -6.33      0.00
   17   37   53     13.16      0.00
   19   37   53      0.50      0.00
   21   37   53      0.32      0.00
   23   37   53     -6.72      0.00
   25   37   53     -1.82      0.00
   27   37   53     12.40      0.00
   29   37   53      1.04      0.00
   31   37   53      1.40      0.00
   33   37   53     -0.55      0.00
    1   39   53      2.76      0.00
    3   39   53     -2.18      0.00
    5   39   53      4.92      0.00
    7   39   53     -0.99      0.00
    9   39   53     -5.08      0.00
   11   39   53      0.24      0.00
   13   39   53     -7.32      0.00
   15   39   53      2.13      0.00
   17   39   53      2.37      0.00
   19   39   53      9.06      0.00
   21   39   53     -1.07      0.00
   23   39   53      6.42      0.00
   25   39   53      4.25      0.00
   27   39   53    -10.18      0.00
   29   39   53     -0.68      0.00
   31   39   53      3.16      0.00
    1   41   53      8.71      0.00
    3   41   53     14.80      0.00
    5   41   53     -4.21      0.00
    7   41   53      6.54      0.00
    9   41   53      1.55      0.00
   11   41   53     -1.53      0.00
   13   41   53    -13.42      0.00
   15   41   53      2.57      0.00
   17   41   53     -3.30      0.00
   19   41   53      6.14      0.00
   21   41   53     -3.42      0.00
   23   41   53     12.23      0.00
   25   41   53      1.18      0.00
   27   41   53      1.90      0.00
   29   41   53     -1.34      0.00
    1   43   53    -13.95      0.00
    3   43   53      7.87      0.00
    5   43   53     -0.99      0.00
    7   43   53     -8.96      0.00
    9   43   53     -4.20      0.00
   11   43   53      0.78      0.00
   13   43   53      6.74      0.00
   15   43   53     14.39      0.00
   17   43   53      0.94      0.00
   19   43   53      6.69      0.00
   21   43   53      3.57      0.00
   23   43   53     -2.50      0.00
   25   43   53      6.40      0.00
    1   45   53      3.70      0.00
    3   45   53     -1.91      0.00
    5   45   53      3.87      0.00
    7   45   53      5.08      0.00
    9   45   53     -1.99      0.00
   11   45   53      1.29      0.00
   13   45   53     -1.91      0.00
   15   45   53     -9.17      0.00
   17   45   53     14.96      0.00
   19   45   53      5.49      0.00
   21   45   53      5.86      0.00
    1   47   53     -8.17      0.00
    3   47   53     -9.45      0.00
    5   47   53      2.63      0.00
    7   47   53     -3.64      0.00
    9   47   53      3.35      0.00
   11   47   53    -10.38      0.00
   13   47   53     -5.84      0.00
   15   47   53     -8.72      0.00
   17   47   53     12.12      0.00
    1   49   53      2.94      0.00
    3   49   53     -6.11      0.00
    5   49   53     -1.86      0.00
    7   49   53      3.37      0.00
    9   49   53     -1.21      0.00
   11   49   53     -7.41      0.00
    0    0   54     19.60      0.00
    0    2   54     10.54      0.00
    2    2   54      4.24      0.00
    0    4   54      7.04      0.00
    2    4   54      0.14      0.00
    4    4   54      5.57      0.00
    0    6   54     23.93      0.00
    2    6   54    -14.22      0.00
    4    6   54     -1.08      0.00
    6    6   54     12.80      0.00
    0    8   54    -11.43      0.00
    2    8   54     -5.74      0.00
    4    8   54      7.29      0.00
    6    8   54     26.50      0.00
    8    8   54      3.15      0.00
    0   10   54    -11.86      0.00
    2   10   54      0.93      0.00
    4   10   54     -1.94      0.00
    6   10   54      3.63      0.00
    8   10   54      9.51      0.00
   10   10   54     13.04      0.00
    0   12   54      6.50      0.00
    2   12   54     19.43      0.00
    4   12   54     -3.39      0.00
    6   12   54     -2.03      0.00
    8   12   54    -17.16      0.00
   10   12   54     12.42      0.00
   12   12   54     47.78      0.00
    0   14   54     44.03      0.00
    2   14   54     10.60      0.00
    4   14   54     12.88      0.00
    6   14   54     -0.55      0.00
    8   14   54    -21.84      0.00
   10   14   54     -6.05      0.00
   12   14   54      3.24      0.00
   14   14   54     -2.28      0.00
    0   16   54     12.41      0.00
    2   16   54     -0.25      0.00
    4   16   54      5.73      0.00
    6   16   54    -16.07      0.00
    8   16   54     -0.06      0.00
   10   16   54     -6.68      0.00
   12   16   54      9.88      0.00
   14   16   54     -0.73      0.00
   16   16   54     -3.19      0.00
    0   18   54     19.28      0.00
    2   18   54      0.68      0.00
    4   18   54      6.14      0.00
    6   18   54      2.86      0.00
    8   18   54     -3.96      0.00
   10   18   54      1.85      0.00
   12   18   54      1.29      0.00
   14   18   54     -6.95      0.00
   16   18   54      6.10      0.00
   18   18   54      2.86      0.00
    0   20   54     -3.72      0.00
    2   20   54      6.91      0.00
    4   20   54     -9.44      0.00
    6   20   54      0.68      0.00
    8   20   54      9.56      0.00
   10   20   54      2.16      0.00
   12   20   54    -18.52      0.00
   14   20   54     -6.48      0.00
   16   20   54      9.96      0.00
   18   20   54      5.79      0.00
   20   20   54      6.83      0.00
    0   22   54     36.75      0.00
    2   22   54     -1.43      0.00
    4   22   54      4.75      0.00
    6   22   54     15.38      0.00
    8   22   54     16.67      0.00
   10   22   54     -2.56      0.00
   12   22   54     10.63      0.00
   14   22   54     11.00      0.00
   16   22   54     -5.86      0.00
   18   22   54     -2.01      0.00
   20   22   54      1.55      0.00
   22   22   54     -0.47      0.00
    0   24   54     20.00      0.00
    2   24   54      7.00      0.00
    4   24   54      7.08      0.00
    6   24   54     -4.45      0.00
    8   24   54      1.74      0.00
   10   24   54     -7.78      0.00
   12   24   54    -14.17      0.00
   14   24   54      6.64      0.00
   16   24   54     14.73      0.00
   18   24   54     -8.16      0.00
   20   24   54     -6.98      0.00
   22   24   54     18.21      0.00
   24   24   54      4.20      0.00
    0   26   54      9.54      0.00
    2   26   54     13.74      0.00
    4   26   54    -11.72      0.00
    6   26   54     -5.33      0.00
    8   26   54    -15.11      0.00
   10   26   54     16.83      0.00
   12   26   54      7.07      0.00
   14   26   54      5.40      0.00
   16   26   54     -0.46      0.00
   18   26   54      4.98      0.00
   20   26   54    -18.79      0.00
   22   26   54      7.22      0.00
   24   26   54      2.17      0.00
   26   26   54    -15.54      0.00
    0   28   54     -0.79      0.00
    2   28   54      2.94      0.00
    4   28   54      3.43      0.00
    6   28   54     -5.06      0.00
    8   28   54      2.37      0.00
   10   28   54      1.37      0.00
   12   28   54      4.57      0.00
   14   28   54     21.21      0.00
   16   28   54     16.99      0.00
   18   28   54     -7.07      0.00
   20   28   54     -7.57      0.00
   22   28   54      1.29      0.00
   24   28   54     -8.28      0.00
   26   28   54    -15.96      0.00
   28   28   54    -17.33      0.00
    0   30   54    -18.97      0.00
    2   30   54     -6.22      0.00
    4   30   54      2.44      0.00
    6   30   54     -9.90      0.00
    8   30   54     -3.76      0.00
   10   30   54     -8.33      0.00
   12   30   54     -4.65      0.00
   14   30   54     -6.73      0.00
   16   30   54      6.94      0.00
   18   30   54     10.19      0.00
   20   30   54     -4.30      0.00
   22   30   54     -1.89      0.00
   24   30   54      6.05      0.00
   26   30   54    -21.21      0.00
   28   30   54     -6.96      0.00
   30   30   54     19.74      0.00
    0   32   54     13.59      0.00
    2   32   54     11.13      0.00
    4   32   54      2.86      0.00
    6   32   54     -1.21      0.00
    8   32   54      1.10      0.00
   10   32   54    -23.44      0.00
   12   32   54     -2.03      0.00
   14   32   54     -1.20      0.00
   16   32   54    -11.59      0.00
   18   32   54      8.09      0.00
   20   32   54     -2.90      0.00
   22   32   54     -6.52      0.00
   24   32   54      3.23      0.00
   26   32   54     -2.18      0.00
   28   32   54     -1.32      0.00
   30   32   54      0.77      0.00
   32   32   54     16.65      0.00
    0   34   54     20.49      0.00
    2   34   54      8.20      0.00
    4   34   54     -7.99      0.00
    6   34   54     -8.92      0.00
    8   34   54     -4.13      0.00
   10   34   54     -1.42      0.00
   12   34   54     -1.18      0.00
   14   34   54     -2.53      0.00
   16   34   54     -8.21      0.00
   18   34   54     -1.94      0.00
   20   34   54     -4.47      0.00
   22   34   54     -8.39      0.00
   24   34   54      7.27      0.00
   26   34   54      6.38      0.00
   28   34   54     -5.82      0.00
   30   34   54     -6.76      0.00
   32   34   54     -0.81      0.00
   34   34   54    -10.93      0.00
    0   36   54    -12.57      0.00
    2   36   54    -16.83      0.00
    4   36   54      6.92      0.00
    6   36   54    -11.42      0.00
    8   36   54     -8.30      0.00
   10   36   54      1.04      0.00
   12   36   54      2.66      0.00
   14   36   54    -11.97      0.00
   16   36   54    -11.95      0.00
   18   36   54      0.86      0.00
   20   36   54      0.15      0.00
   22   36   54     -1.14      0.00
   24   36   54      1.51      0.00
   26   36   54     -0.30      0.00
   28   36   54      4.20      0.00
   30   36   54     -3.35      0.00
   32   36   54     -1.68      0.00
    0   38   54    -11.82      0.00
    2   38   54     -3.50      0.00
    4   38   54     -0.60      0.00
    6   38   54     -2.23      0.00
    8   38   54      2.49      0.00
   10   38   54      1.45      0.00
   12   38   54    -11.70      0.00
   14   38   54     -6.25      0.00
   16   38   54     -4.08      0.00
   18   38   54      2.25      0.00
   20   38   54     -9.33      0.00
   22   38   54      1.88      0.00
   24   38   54     -0.88      0.00
   26   38   54     -8.08      0.00
   28   38   54      8.82      0.00
   30   38   54     -0.73      0.00
    0   40   54     13.82      0.00
    2   40   54      5.29      0.00
    4   40   54     -4.22      0.00
    6   40   54    -12.18      0.00
    8   40   54      2.34      0.00
   10   40   54     15.95      0.00
   12   40   54      5.30      0.00
   14   40   54     -4.10      0.00
   16   40   54     -2.99      0.00
   18   40   54      2.33      0.00
   20   40   54      0.71      0.00
   22   40   54     14.16      0.00
   24   40   54     -1.77      0.00
   26   40   54     -1.48      0.00
   28   40   54    -14.34      0.00
    0   42   54      2.79      0.00
    2   42   54     -0.16      0.00
    4   42   54     -3.30      0.00
    6   42   54     -8.27      0.00
    8   42   54     -2.43      0.00
   10   42   54      7.10      0.00
   12   42   54     -6.69      0.00
   14   42   54     -3.67      0.00
   16   42   54     -8.19      0.00
   18   42   54      6.96      0.00
   20   42   54      1.11      0.00
   22   42   54      8.04      0.00
   24   42   54      1.21      0.00
   26   42   54     -1.36      0.00
    0   44   54      2.36      0.00
    2   44   54     12.99      0.00
    4   44   54      8.85      0.00
    6   44   54     -7.80      0.00
    8   44   54      5.00      0.00
   10   44   54      5.25      0.00
   12   44   54     -0.95      0.00
   14   44   54      1.02      0.00
   16   44   54     -6.20      0.00
   18   44   54      0.78      0.00
   20   44   54     11.98      0.00
   22   44   54      9.25      0.00
    0   46   54     12.32      0.00
    2   46   54      5.02      0.00
    4   46   54     -4.99      0.00
    6   46   54     -7.03      0.00
    8   46   54      2.98      0.00
   10   46   54     16.77      0.00
   12   46   54     -5.75      0.00
   14   46   54     -6.30      0.00
   16   46   54     -3.87      0.00
   18   46   54      5.11      0.00
    0   48   54     -9.38      0.00
    2   48   54      4.40      0.00
    4   48   54     -5.62      0.00
    6   48   54    -19.04      0.00
    8   48   54     10.67      0.00
   10   48   54      1.92      0.00
    1    3   55     -4.09      0.00
    1    5   55    -17.03      0.00
    3    5   55     -5.63      0.00
    1    7   55      3.55      0.00
    3    7   55      8.06      0.00
    5    7   55     -5.11      0.00
    1    9   55     -1.88      0.00
    3    9   55      5.27      0.00
    5    9   55    -10.43      0.00
    7    9   55    -16.31      0.00
    1   11   55      6.02      0.00
    3   11   55     11.54      0.00
    5   11   55      2.85      0.00
    7   11   55    -10.97      0.00
    9   11   55     -6.77      0.00
    1   13   55      5.25      0.00
    3   13   55     -0.84      0.00
    5   13   55     -5.32      0.00
    7   13   55     -5.88      0.00
    9   13   55    -21.82      0.00
   11   13   55     -6.65      0.00
    1   15   55     12.26      0.00
    3   15   55     -0.39      0.00
    5   15   55     -7.70      0.00
    7   15   55      4.55      0.00
    9   15   55     -1.10      0.00
   11   15   55     16.90      0.00
   13   15   55      8.56      0.00
    1   17   55      3.78      0.00
    3   17   55    -12.21      0.00
    5   17   55     23.73      0.00
    7   17   55     11.87      0.00
    9   17   55     -2.24      0.00
   11   17   55      9.65      0.00
   13   17   55     -7.75      0.00
   15   17   55      0.78      0.00
    1   19   55    -13.55      0.00
    3   19   55     -8.53      0.00
    5   19   55      5.92      0.00
    7   19   55      8.81      0.00
    9   19   55     -8.38      0.00
   11   19   55      7.16      0.00
   13   19   55    -12.36      0.00
   15   19   55     -7.86      0.00
   17   19   55     -2.89      0.00
    1   21   55     -1.53      0.00
    3   21   55     12.35      0.00
    5   21   55      6.70      0.00
    7   21   55     -5.62      0.00
    9   21   55     -0.84      0.00
   11   21   55      4.06      0.00
   13   21   55    -23.94      0.00
   15   21   55    -17.09      0.00
   17   21   55      4.43      0.00
   19   21   55     -4.86      0.00
    1   23   55    -14.21      0.00
    3   23   55      1.02      0.00
    5   23   55    -10.64      0.00
    7   23   55      3.55      0.00
    9   23   55     -1.18      0.00
   11   23   55      3.92      0.00
   13   23   55     -5.99      0.00
   15   23   55     -7.97      0.00
   17   23   55      1.16      0.00
   19   23   55     11.88      0.00
   21   23   55     -5.20      0.00
    1   25   55     -1.44      0.00
    3   25   55      3.73      0.00
    5   25   55      7.60      0.00
    7   25   55      2.41      0.00
    9   25   55     10.37      0.00
   11   25   55     18.12      0.00
   13   25   55     -0.99      0.00
   15   25   55     -8.73      0.00
   17   25   55     16.85      0.00
   19   25   55    -11.59      0.00
   21   25   55     -1.28      0.00
   23   25   55     -8.08      0.00
    1   27   55    -28.99      0.00
    3   27   55      2.51      0.00
    5   27   55     14.05      0.00
    7   27   55     11.71      0.00
    9   27   55     -2.71      0.00
   11   27   55     -9.33      0.00
   13   27   55      2.30      0.00
   15   27   55     10.44      0.00
   17   27   55      9.54      0.00
   19   27   55      3.17      0.00
   21   27   55      9.06      0.00
   23   27   55     21.62      0.00
   25   27   55     -7.95      0.00
    1   29   55     -6.26      0.00
    3   29   55      8.77      0.00
    5   29   55      1.03      0.00
    7   29   55     -1.14      0.00
    9   29   55     -3.80      0.00
   11   29   55    -10.07      0.00
   13   29   55    -10.32      0.00
   15   29   55     -3.69      0.00
   17   29   55     -4.86      0.00
   19   29   55     12.68      0.00
   21   29   55      3.38      0.00
   23   29   55      4.68      0.00
   25   29   55     -4.34      0.00
   27   29   55      7.75      0.00
    1   31   55      2.87      0.00
    3   31   55      5.26      0.00
    5   31   55      3.28      0.00
    7   31   55     10.12      0.00
    9   31   55     -9.55      0.00
   11   31   55      2.14      0.00
   13   31   55     -9.18      0.00
   15   31   55     -6.58      0.00
   17   31   55      7.20      0.00
   19   31   55      2.90      0.00
   21   31   55      4.97      0.00
   23   31   55    -14.65      0.00
   25   31   55     -5.51      0.00
   27   31   55      3.54      0.00
   29   31   55      1.83      0.00
    1   33   55     -8.34      0.00
    3   33   55    -22.54      0.00
    5   33   55     -0.22      0.00
    7   33   55     16.19      0.00
    9   33   55     -5.34      0.00
   11   33   55     -4.78      0.00
   13   33   55     -8.34      0.00
   15   33   55     -0.47      0.00
   17   33   55      0.46      0.00
   19   33   55     13.75      0.00
   21   33   55    -14.35      0.00
   23   33   55    -15.74      0.00
   25   33   55    -15.07      0.00
   27   33   55     -4.65      0.00
   29   33   55      5.53      0.00
   31   33   55     -4.81      0.00
    1   35   55     -3.71      0.00
    3   35   55     -0.51      0.00
    5   35   55      3.32      0.00
    7   35   55      3.02      0.00
    9   35   55     -0.61      0.00
   11   35   55     -8.60      0.00
   13   35   55      6.04      0.00
   15   35   55      2.01      0.00
   17   35   55      3.07      0.00
   19   35   55     -0.58      0.00
   21   35   55     20.27      0.00
   23   35   55     -5.96      0.00
   25   35   55     -5.58      0.00
   27   35   55      5.38      0.00
   29   35   55      9.09      0.00
   31   35   55      6.15      0.00
   33   35   55     13.89      0.00
    1   37   55      4.80      0.00
    3   37   55      2.20      0.00
    5   37   55     12.77      0.00
    7   37   55      0.37      0.00
    9   37   55      5.41      0.00
   11   37   55    -17.09      0.00
   13   37   55     -4.30      0.00
   15   37   55     -0.46      0.00
   17   37   55      1.04      0.00
   19   37   55      0.12      0.00
   21   37   55     -5.90      0.00
   23   37   55     -3.27      0.00
   25   37   55      9.96      0.00
   27   37   55      0.18      0.00
   29   37   55     16.24      0.00
   31   37   55      4.14      0.00
    1   39   55     10.64      0.00
    3   39   55     -0.29      0.00
    5   39   55     15.74      0.00
    7   39   55     -1.73      0.00
    9   39   55     -7.63      0.00
   11   39   55     -0.50      0.00
   13   39   55     -2.12      0.00
   15   39   55      4.79      0.00
   17   39   55     11.78      0.00
   19   39   55     -4.84      0.00
   21   39   55     -2.30      0.00
   23   39   55     10.16      0.00
   25   39   55     -1.56      0.00
   27   39   55     -3.96      0.00
    1   41   55     -4.16      0.00
    3   41   55     20.39      0.00
    5   41   55      6.23      0.00
    7   41   55      0.22      0.00
    9   41   55     -0.21      0.00
   11   41   55     -0.97      0.00
   13   41   55     -5.73      0.00
   15   41   55     -9.75      0.00
   17   41   55      4.07      0.00
   19   41   55     -5.63      0.00
   21   41   55      6.25      0.00
   23   41   55     -5.69      0.00
   25   41   55     -5.87      0.00
    1   43   55     -7.30      0.00
    3   43   55     -1.17      0.00
    5   43   55     -1.34      0.00
    7   43   55     -1.22      0.00
    9   43   55     -6.67      0.00
   11   43   55      1.36      0.00
   13   43   55      4.29      0.00
   15   43   55     -5.14      0.00
   17   43   55    -13.86      0.00
   19   43   55     21.81      0.00
   21   43   55      2.20      0.00
    1   45   55     -4.54      0.00
    3   45   55      0.10      0.00
    5   45   55     -3.69      0.00
    7   45   55     -1.17      0.00
    9   45   55     -1.40      0.00
   11   45   55     -5.92      0.00
   13   45   55     -4.32      0.00
   15   45   55     -9.82      0.00
   17   45   55     -1.93      0.00
    1   47   55     -2.69      0.00
    3   47   55     -2.43      0.00
    5   47   55      6.23      0.00
    7   47   55      2.69      0.00
    9   47   55     -5.95      0.00
   11   47   55      5.04      0.00
    0    0   56      0.26      0.00
    0    2   56     -9.62      0.00
    2    2   56     12.44      0.00
    0    4   56     -8.45      0.00
    2    4   56      8.12      0.00
    4    4   56     39.60      0.00
    0    6   56     -1.63      0.00
    2    6   56    -10.26      0.00
    4    6   56      5.23      0.00
    6    6   56     -3.81      0.00
    0    8   56    -22.96      0.00
    2    8   56      0.26      0.00
    4    8   56     -8.24      0.00
    6    8   56    -16.55      0.00
    8    8   56     -1.00      0.00
    0   10   56     -2.82      0.00
    2   10   56     -2.85      0.00
    4   10   56    -32.15      0.00
    6   10   56    -15.45      0.00
    8   10   56     -3.54      0.00
   10   10   56     23.63      0.00
    0   12   56     19.30      0.00
    2   12   56     -0.30      0.00
    4   12   56     -0.58      0.00
    6   12   56      1.80      0.00
    8   12   56      3.59      0.00
   10   12   56     -5.75      0.00
   12   12   56      2.09      0.00
    0   14   56      4.77      0.00
    2   14   56      5.38      0.00
    4   14   56      0.25      0.00
    6   14   56     -3.51      0.00
    8   14   56     25.45      0.00
   10   14   56     -5.44      0.00
   12   14   56     18.29      0.00
   14   14   56      3.01      0.00
    0   16   56      1.26      0.00
    2   16   56     -6.89      0.00
    4   16   56     -2.85      0.00
    6   16   56      4.57      0.00
    8   16   56    -10.42      0.00
   10   16   56     10.95      0.00
   12   16   56     -8.86      0.00
   14   16   56    -17.33      0.00
   16   16   56      7.35      0.00
    0   18   56      0.45      0.00
    2   18   56      0.56      0.00
    4   18   56     -5.14      0.00
    6   18   56      1.64      0.00
    8   18   56      1.32      0.00
   10   18   56      7.40      0.00
   12   18   56      5.26      0.00
   14   18   56     -3.65      0.00
   16   18   56    -11.18      0.00
   18   18   56    -22.50      0.00
    0   20   56     27.01      0.00
    2   20   56    -17.39      0.00
    4   20   56     -8.57      0.00
    6   20   56      7.06      0.00
    8   20   56     -4.85      0.00
   10   20   56     -4.70      0.00
   12   20   56     -4.88      0.00
   14   20   56      0.09      0.00
   16   20   56      0.32      0.00
   18   20   56     -3.71      0.00
   20   20   56      4.41      0.00
    0   22   56      5.57      0.00
    2   22   56      4.10      0.00
    4   22   56     -4.53      0.00
    6   22   56     11.21      0.00
    8   22   56      1.52      0.00
   10   22   56      4.26      0.00
   12   22   56     -2.94      0.00
   14   22   56     -7.19      0.00
   16   22   56      2.59      0.00
   18   22   56      1.26      0.00
   20   22   56     -7.89      0.00
   22   22   56     27.51      0.00
    0   24   56     33.55      0.00
    2   24   56      0.82      0.00
    4   24   56     -0.15      0.00
    6   24   56     19.93      0.00
    8   24   56    -10.28      0.00
   10   24   56     -2.88      0.00
   12   24   56      1.70      0.00
   14   24   56      9.24      0.00
   16   24   56     12.85      0.00
   18   24   56     -1.15      0.00
   20   24   56      3.55      0.00
   22   24   56      7.29      0.00
   24   24   56     -6.05      0.00
    0   26   56     41.25      0.00
    2   26   56     -1.53      0.00
    4   26   56     -9.49      0.00
    6   26   56      2.32      0.00
    8   26   56      6.02      0.00
   10   26   56      4.14      0.00
   12   26   56     -3.51      0.00
   14   26   56      7.61      0.00
   16   26   56     -5.22      0.00
   18   26   56     -2.01      0.00
   20   26   56     -9.55      0.00
   22   26   56      5.62      0.00
   24   26   56      7.00      0.00
   26   26   56      1.29      0.00
    0   28   56      9.93      0.00
    2   28   56     -1.86      0.00
    4   28   56      6.90      0.00
    6   28   56     21.81      0.00
    8   28   56      8.78      0.00
   10   28   56      3.29      0.00
   12   28   56     -5.72      0.00
   14   28   56      7.27      0.00
   16   28   56     -8.40      0.00
   18   28   56     -1.45      0.00
   20   28   56     -7.85      0.00
   22   28   56     -1.42      0.00
   24   28   56     -4.17      0.00
   26   28   56      0.35      0.00
   28   28   56     21.83      0.00
    0   30   56     11.76      0.00
    2   30   56     16.89      0.00
    4   30   56      5.45      0.00
    6   30   56     10.63      0.00
    8   30   56     10.86      0.00
   10   30   56     10.71      0.00
   12   30   56      2.13      0.00
   14   30   56      5.71      0.00
   16   30   56      1.76      0.00
   18   30   56      0.88      0.00
   20   30   56      2.05      0.00
   22   30   56      7.83      0.00
   24   30   56     -7.71      0.00
   26   30   56      8.29      0.00
   28   30   56      7.70      0.00
   30   30   56     -3.39      0.00
    0   32   56      3.27      0.00
    2   32   56     -6.74      0.00
    4   32   56     -0.68      0.00
    6   32   56     -3.46      0.00
    8   32   56     -8.67      0.00
   10   32   56     -1.29      0.00
   12   32   56     10.44      0.00
   14   32   56      1.61      0.00
   16   32   56      5.39      0.00
   18   32   56     -3.54      0.00
   20   32   56     -2.14      0.00
   22   32   56     -5.93      0.00
   24   32   56      6.32      0.00
   26   32   56      0.54      0.00
   28   32   56     -1.63      0.00
   30   32   56     -8.27      0.00
   32   32   56     -2.79      0.00
    0   34   56    -10.53      0.00
    2   34   56      6.46      0.00
    4   34   56      0.29      0.00
    6   34   56     -1.07      0.00
    8   34   56    -11.51      0.00
   10   34   56    -20.89      0.00
   12   34   56    -16.09      0.00
   14   34   56     -6.04      0.00
   16   34   56    -16.79      0.00
   18   34   56    -12.86      0.00
   20   34   56     -4.50      0.00
   22   34   56     -8.67      0.00
   24   34   56     -8.22      0.00
   26   34   56      4.37      0.00
   28   34   56     -2.17      0.00
   30   34   56    -17.88      0.00
   32   34   56     11.44      0.00
    0   36   56      0.04      0.00
    2   36   56     16.93      0.00
    4   36   56      6.98      0.00
    6   36   56      6.82      0.00
    8   36   56     -4.78      0.00
   10   36   56     -7.73      0.00
   12   36   56     -9.39      0.00
   14   36   56     -1.90      0.00
   16   36   56     -0.93      0.00
   18   36   56      7.48      0.00
   20   36   56      2.19      0.00
   22   36   56      9.08      0.00
   24   36   56      2.95      0.00
   26   36   56     -1.65      0.00
   28   36   56      4.25      0.00
   30   36   56     -2.77      0.00
    0   38   56      0.42      0.00
    2   38   56     -6.53      0.00
    4   38   56     -2.20      0.00
    6   38   56      2.32      0.00
    8   38   56     18.43      0.00
   10   38   56      8.97      0.00
   12   38   56     -2.76      0.00
   14   38   56      1.47      0.00
   16   38   56      4.54      0.00
   18   38   56     12.72      0.00
   20   38   56      1.17      0.00
   22   38   56      3.19      0.00
   24   38   56    -18.36      0.00
   26   38   56     -8.45      0.00
    0   40   56     13.66      0.00
    2   40   56      5.03      0.00
    4   40   56    -22.65      0.00
    6   40   56    -17.85      0.00
    8   40   56     12.50      0.00
   10   40   56      3.64      0.00
   12   40   56      7.81      0.00
   14   40   56     10.77      0.00
   16   40   56      0.30      0.00
   18   40   56      2.36      0.00
   20   40   56    -13.27      0.00
   22   40   56     -7.21      0.00
   24   40   56     10.36      0.00
    0   42   56     16.31      0.00
    2   42   56      3.13      0.00
    4   42   56      2.12      0.00
    6   42   56     -4.42      0.00
    8   42   56     -6.55      0.00
   10   42   56      4.50      0.00
   12   42   56     -0.13      0.00
   14   42   56      9.81      0.00
   16   42   56      3.43      0.00
   18   42   56     10.28      0.00
   20   42   56     -5.46      0.00
    0   44   56      3.13      0.00
    2   44   56      0.34      0.00
    4   44   56      2.00      0.00
    6   44   56     -2.20      0.00
    8   44   56      1.61      0.00
   10   44   56     -2.52      0.00
   12   44   56     -6.03      0.00
   14   44   56      9.33      0.00
   16   44   56     -4.76      0.00
    0   46   56     -2.33      0.00
    2   46   56      4.46      0.00
    4   46   56     -0.34      0.00
    6   46   56     -3.67      0.00
    8   46   56      8.09      0.00
   10   46   56      0.34      0.00
    1    3   57      5.68      0.00
    1    5   57     -8.27      0.00
    3    5   57      5.38      0.00
    1    7   57     -0.34      0.00
    3    7   57      6.41      0.00
    5    7   57     22.50      0.00
    1    9   57      3.77      0.00
    3    9   57     13.41      0.00
    5    9   57      1.29      0.00
    7    9   57      0.43      0.00
    1   11   57     -8.36      0.00
    3   11   57      6.33      0.00
    5   11   57      2.19      0.00
    7   11   57      6.72      0.00
    9   11   57      1.27      0.00
    1   13   57    -13.45      0.00
    3   13   57      7.45      0.00
    5   13   57     -4.53      0.00
    7   13   57      1.04      0.00
    9   13   57     -4.66      0.00
   11   13   57     -9.94      0.00
    1   15   57     -5.06      0.00
    3   15   57     -4.29      0.00
    5   15   57     -4.85      0.00
    7   15   57    -17.15      0.00
    9   15   57     -9.76      0.00
   11   15   57     -1.08      0.00
   13   15   57     -2.50      0.00
    1   17   57     16.26      0.00
    3   17   57     -3.67      0.00
    5   17   57     -2.70      0.00
    7   17   57     -4.56      0.00
    9   17   57     -9.68      0.00
   11   17   57      4.19      0.00
   13   17   57    -12.54      0.00
   15   17   57     -9.15      0.00
    1   19   57     21.47      0.00
    3   19   57      7.01      0.00
    5   19   57      4.96      0.00
    7   19   57    -12.79      0.00
    9   19   57      5.74      0.00
   11   19   57      2.44      0.00
   13   19   57    -15.62      0.00
   15   19   57     -1.70      0.00
   17   19   57      4.31      0.00
    1   21   57     16.49      0.00
    3   21   57      1.87      0.00
    5   21   57     -4.16      0.00
    7   21   57     -5.57      0.00
    9   21   57     -3.75      0.00
   11   21   57     -1.83      0.00
   13   21   57     -9.52      0.00
   15   21   57      9.07      0.00
   17   21   57      8.37      0.00
   19   21   57     -3.73      0.00
    1   23   57    -15.34      0.00
    3   23   57     -7.89      0.00
    5   23   57     -5.55      0.00
    7   23   57    -14.16      0.00
    9   23   57     -0.83      0.00
   11   23   57      3.63      0.00
   13   23   57     -1.31      0.00
   15   23   57     27.69      0.00
   17   23   57     51.39      0.00
   19   23   57      1.29      0.00
   21   23   57     19.15      0.00
    1   25   57      0.84      0.00
    3   25   57     -0.09      0.00
    5   25   57     -5.71      0.00
    7   25   57     -7.58      0.00
    9   25   57      9.01      0.00
   11   25   57      6.09      0.00
   13   25   57     -5.05      0.00
   15   25   57     -2.44      0.00
   17   25   57      9.96      0.00
   19   25   57     -3.93      0.00
   21   25   57     -1.10      0.00
   23   25   57      1.74      0.00
    1   27   57      1.38      0.00
    3   27   57      8.80      0.00
    5   27   57      2.49      0.00
    7   27   57    -16.24      0.00
    9   27   57     -7.86      0.00
   11   27   57      1.97      0.00
   13   27   57    -10.97      0.00
   15   27   57    -12.05      0.00
   17   27   57    -17.08      0.00
   19   27   57    -19.49      0.00
   21   27   57      1.38      0.00
   23   27   57     13.37      0.00
   25   27   57      2.01      0.00
    1   29   57     12.91      0.00
    3   29   57      8.00      0.00
    5   29   57     -0.57      0.00
    7   29   57     -2.88      0.00
    9   29   57     -2.31      0.00
   11   29   57      5.73      0.00
   13   29   57     -4.04      0.00
   15   29   57      1.12      0.00
   17   29   57     -2.50      0.00
   19   29   57     -4.57      0.00
   21   29   57      8.65      0.00
   23   29   57     11.28      0.00
   25   29   57      1.06      0.00
   27   29   57      4.20      0.00
    1   31   57     10.72      0.00
    3   31   57     -3.84      0.00
    5   31   57      3.65      0.00
    7   31   57     -1.00      0.00
    9   31   57      7.93      0.00
   11   31   57     32.14      0.00
   13   31   57     -8.04      0.00
   15   31   57      1.63      0.00
   17   31   57     -1.79      0.00
   19   31   57     10.47      0.00
   21   31   57    -15.95      0.00
   23   31   57      4.03      0.00
   25   31   57      3.78      0.00
   27   31   57     -2.48      0.00
   29   31   57     -1.21      0.00
    1   33   57      6.40      0.00
    3   33   57     -8.24      0.00
    5   33   57      1.91      0.00
    7   33   57     -4.19      0.00
    9   33   57     -5.87      0.00
   11   33   57      8.02      0.00
   13   33   57     -5.04      0.00
   15   33   57     -6.60      0.00
   17   33   57     -6.94      0.00
   19   33   57     -1.78      0.00
   21   33   57     -2.20      0.00
   23   33   57     -9.52      0.00
   25   33   57     10.27      0.00
   27   33   57     -7.21      0.00
   29   33   57     -0.24      0.00
   31   33   57      3.33      0.00
    1   35   57      6.62      0.00
    3   35   57      0.49      0.00
    5   35   57     -6.09      0.00
    7   35   57      1.83      0.00
    9   35   57      0.75      0.00
   11   35   57      2.29      0.00
   13   35   57      1.75      0.00
   15   35   57     -7.18      0.00
   17   35   57     -6.88      0.00
   19   35   57      8.07      0.00
   21   35   57      2.90      0.00
   23   35   57      8.42      0.00
   25   35   57     10.46      0.00
   27   35   57     -2.67      0.00
   29   35   57     -6.19      0.00
    1   37   57      2.87      0.00
    3   37   57     -4.07      0.00
    5   37   57     15.91      0.00
    7   37   57      0.41      0.00
    9   37   57     13.04      0.00
   11   37   57      6.55      0.00
   13   37   57      5.61      0.00
   15   37   57     -3.01      0.00
   17   37   57      6.55      0.00
   19   37   57      8.29      0.00
   21   37   57      2.13      0.00
   23   37   57      2.09      0.00
   25   37   57      7.08      0.00
   27   37   57     -6.53      0.00
    1   39   57     -7.22      0.00
    3   39   57    -10.35      0.00
    5   39   57      6.19      0.00
    7   39   57      4.19      0.00
    9   39   57     16.66      0.00
   11   39   57      0.67      0.00
   13   39   57     10.77      0.00
   15   39   57      2.28      0.00
   17   39   57      7.06      0.00
   19   39   57    -10.48      0.00
   21   39   57     -4.89      0.00
   23   39   57      3.87      0.00
    1   41   57     -3.83      0.00
    3   41   57     -9.47      0.00
    5   41   57     -3.49      0.00
    7   41   57     -6.56      0.00
    9   41   57     -2.18      0.00
   11   41   57     -5.20      0.00
   13   41   57     -1.92      0.00
   15   41   57      1.10      0.00
   17   41   57     -2.85      0.00
   19   41   57      6.31      0.00
    1   43   57      1.32      0.00
    3   43   57      1.25      0.00
    5   43   57     -9.18      0.00
    7   43   57     -4.89      0.00
    9   43   57     -3.04      0.00
   11   43   57     -5.27      0.00
   13   43   57      3.85      0.00
   15   43   57      2.16      0.00
    1   45   57      2.79      0.00
    3   45   57     -9.09      0.00
    5   45   57     -5.98      0.00
    7   45   57      4.78      0.00
    9   45   57     -1.72      0.00
    0    0   58     18.23      0.00
    0    2   58     15.73      0.00
    2    2   58      0.32      0.00
    0    4   58      0.74      0.00
    2    4   58     -0.80      0.00
    4    4   58     10.25      0.00
    0    6   58     -3.87      0.00
    2    6   58     -5.64      0.00
    4    6   58     11.66      0.00
    6    6   58     18.11      0.00
    0    8   58     -6.38      0.00
    2    8   58      4.01      0.00
    4    8   58     -0.85      0.00
    6    8   58      0.82      0.00
    8    8   58    -16.12      0.00
    0   10   58    -14.69      0.00
    2   10   58     -2.68      0.00
    4   10   58    -14.83      0.00
    6   10   58     11.40      0.00
    8   10   58      4.38      0.00
   10   10   58     -3.24      0.00
    0   12   58    -15.96      0.00
    2   12   58      2.75      0.00
    4   12   58     -0.26      0.00
    6   12   58      4.26      0.00
    8   12   58     10.61      0.00
   10   12   58     -3.41      0.00
   12   12   58      6.53      0.00
    0   14   58    -17.78      0.00
    2   14   58    -14.48      0.00
    4   14   58     -8.41      0.00
    6   14   58     -5.35      0.00
    8   14   58      6.36      0.00
   10   14   58      8.64      0.00
   12   14   58     12.49      0.00
   14   14   58     18.19      0.00
    0   16   58     -9.90      0.00
    2   16   58      2.82      0.00
    4   16   58     -8.44      0.00
    6   16   58     -7.40      0.00
    8   16   58      6.60      0.00
   10   16   58     -3.69      0.00
   12   16   58      1.84      0.00
   14   16   58     -9.26      0.00
   16   16   58    -13.81      0.00
    0   18   58     -8.08      0.00
    2   18   58     10.34      0.00
    4   18   58    -23.80      0.00
    6   18   58     -3.80      0.00
    8   18   58      7.50      0.00
   10   18   58      0.26      0.00
   12   18   58      4.09      0.00
   14   18   58     -5.79      0.00
   16   18   58      5.30      0.00
   18   18   58     -7.98      0.00
    0   20   58    -22.43      0.00
    2   20   58     22.50      0.00
    4   20   58    -16.49      0.00
    6   20   58    -12.31      0.00
    8   20   58     -6.86      0.00
   10   20   58     -1.34      0.00
   12   20   58      4.10      0.00
   14   20   58     -5.09      0.00
   16   20   58     -9.62      0.00
   18   20   58      7.60      0.00
   20   20   58     -4.60      0.00
    0   22   58     15.63      0.00
    2   22   58     -2.51      0.00
    4   22   58     11.56      0.00
    6   22   58      3.38      0.00
    8   22   58    -10.13      0.00
   10   22   58     11.05      0.00
   12   22   58      5.69      0.00
   14   22   58    -10.30      0.00
   16   22   58     -3.16      0.00
   18   22   58      4.38      0.00
   20   22   58      5.58      0.00
   22   22   58      0.96      0.00
    0   24   58    -13.38      0.00
    2   24   58     10.35      0.00
    4   24   58     12.42      0.00
    6   24   58     -7.85      0.00
    8   24   58      4.07      0.00
   10   24   58     11.60      0.00
   12   24   58      9.99      0.00
   14   24   58     -6.42      0.00
   16   24   58     -9.45      0.00
   18   24   58     -1.66      0.00
   20   24   58    -13.56      0.00
   22   24   58     -5.22      0.00
   24   24   58     -8.11      0.00
    0   26   58     -6.41      0.00
    2   26   58     -1.04      0.00
    4   26   58    -10.91      0.00
    6   26   58    -17.46      0.00
    8   26   58     -6.32      0.00
   10   26   58     10.05      0.00
   12   26   58      5.97      0.00
   14   26   58     -0.74      0.00
   16   26   58    -20.19      0.00
   18   26   58      5.16      0.00
   20   26   58     -5.61      0.00
   22   26   58      0.12      0.00
   24   26   58     10.76      0.00
   26   26   58     21.75      0.00
    0   28   58      4.66      0.00
    2   28   58      1.42      0.00
    4   28   58     -6.94      0.00
    6   28   58      5.38      0.00
    8   28   58      4.76      0.00
   10   28   58     -3.43      0.00
   12   28   58     -5.77      0.00
   14   28   58      3.26      0.00
   16   28   58     10.91      0.00
   18   28   58    -13.47      0.00
   20   28   58     -1.22      0.00
   22   28   58      2.17      0.00
   24   28   58      1.22      0.00
   26   28   58      0.56      0.00
   28   28   58     -0.80      0.00
    0   30   58     21.76      0.00
    2   30   58     -0.03      0.00
    4   30   58     10.21      0.00
    6   30   58      2.81      0.00
    8   30   58      3.93      0.00
   10   30   58     14.91      0.00
   12   30   58    -14.22      0.00
   14   30   58    -15.06      0.00
   16   30   58      1.01      0.00
   18   30   58     -4.01      0.00
   20   30   58     -2.52      0.00
   22   30   58     -9.04      0.00
   24   30   58      6.06      0.00
   26   30   58     -6.41      0.00
   28   30   58     -8.93      0.00
   30   30   58     -7.22      0.00
    0   32   58    -14.19      0.00
    2   32   58      0.56      0.00
    4   32   58     -0.84      0.00
    6   32   58      6.82      0.00
    8   32   58      2.73      0.00
   10   32   58     -1.11      0.00
   12   32   58      1.15      0.00
   14   32   58     -2.20      0.00
   16   32   58      5.65      0.00
   18   32   58     -0.48      0.00
   20   32   58      8.47      0.00
   22   32   58      6.74      0.00
   24   32   58      7.93      0.00
   26   32   58      0.98      0.00
   28   32   58    -11.31      0.00
   30   32   58     -0.50      0.00
    0   34   58     -0.61      0.00
    2   34   58     -3.65      0.00
    4   34   58     -2.06      0.00
    6   34   58     20.39      0.00
    8   34   58      6.98      0.00
   10   34   58     -9.71      0.00
   12   34   58    -14.95      0.00
   14   34   58      2.24      0.00
   16   34   58      6.92      0.00
   18   34   58      1.14      0.00
   20   34   58      7.29      0.00
   22   34   58     -3.58      0.00
   24   34   58     19.62      0.00
   26   34   58      6.89      0.00
   28   34   58     -3.25      0.00
    0   36   58     -1.37      0.00
    2   36   58      9.63      0.00
    4   36   58     13.59      0.00
    6   36   58      8.61      0.00
    8   36   58      0.82      0.00
   10   36   58     -3.60      0.00
   12   36   58      0.47      0.00
   14   36   58     -6.66      0.00
   16   36   58      0.02      0.00
   18   36   58      1.94      0.00
   20   36   58     -5.85      0.00
   22   36   58     -9.78      0.00
   24   36   58      7.57      0.00
   26   36   58     18.05      0.00
    0   38   58      3.57      0.00
    2   38   58      7.47      0.00
    4   38   58     -0.13      0.00
    6   38   58      1.27      0.00
    8   38   58      6.67      0.00
   10   38   58     -7.70      0.00
   12   38   58      0.94      0.00
   14   38   58     -4.47      0.00
   16   38   58     -3.05      0.00
   18   38   58      3.49      0.00
   20   38   58    -10.51      0.00
   22   38   58    -10.58      0.00
    0   40   58      5.81      0.00
    2   40   58     -1.85      0.00
    4   40   58      6.20      0.00
    6   40   58     -7.41      0.00
    8   40   58      6.49      0.00
   10   40   58      4.50      0.00
   12   40   58     -2.08      0.00
   14   40   58      3.63      0.00
   16   40   58     -3.98      0.00
   18   40   58      1.90      0.00
    0   42   58    -11.24      0.00
    2   42   58      8.52      0.00
    4   42   58      4.91      0.00
    6   42   58     -5.69      0.00
    8   42   58     10.47      0.00
   10   42   58      3.18      0.00
   12   42   58     -2.87      0.00
   14   42   58      1.91      0.00
    0   44   58     -6.01      0.00
    2   44   58     -7.18      0.00
    4   44   58      3.94      0.00
    6   44   58      3.32      0.00
    1    3   59      2.57      0.00
    1    5   59      1.69      0.00
    3    5   59      1.85      0.00
    1    7   59      0.36      0.00
    3    7   59     -4.29      0.00
    5    7   59      7.67      0.00
    1    9   59      9.17      0.00
    3    9   59     -1.72      0.00
    5    9   59      3.88      0.00
    7    9   59    -10.21      0.00
    1   11   59      3.24      0.00
    3   11   59      7.45      0.00
    5   11   59      7.99      0.00
    7   11   59     10.45      0.00
    9   11   59     -5.14      0.00
    1   13   59     15.86      0.00
    3   13   59     14.11      0.00
    5   13   59      9.19      0.00
    7   13   59     -8.20      0.00
    9   13   59     -7.64      0.00
   11   13   59     -1.24      0.00
    1   15   59    -10.81      0.00
    3   15   59     -7.43      0.00
    5   15   59      7.22      0.00
    7   15   59     -4.89      0.00
    9   15   59    -12.98      0.00
   11   15   59      0.54      0.00
   13   15   59      7.58      0.00
    1   17   59      0.98      0.00
    3   17   59     -6.89      0.00
    5   17   59     21.77      0.00
    7   17   59      8.19      0.00
    9   17   59     -1.82      0.00
   11   17   59     -3.20      0.00
   13   17   59     -2.71      0.00
   15   17   59     -9.91      0.00
    1   19   59     -3.87      0.00
    3   19   59    -17.56      0.00
    5   19   59     10.23      0.00
    7   19   59     -4.54      0.00
    9   19   59    -16.19      0.00
   11   19   59     -8.00      0.00
   13   19   59      8.34      0.00
   15   19   59     -1.77      0.00
   17   19   59      7.66      0.00
    1   21   59     -9.47      0.00
    3   21   59     -2.43      0.00
    5   21   59     -8.07      0.00
    7   21   59      3.73      0.00
    9   21   59     -7.31      0.00
   11   21   59     -4.01      0.00
   13   21   59      6.90      0.00
   15   21   59      0.16      0.00
   17   21   59      2.06      0.00
   19   21   59     -4.15      0.00
    1   23   59     -6.48      0.00
    3   23   59      2.89      0.00
    5   23   59      6.66      0.00
    7   23   59      4.32      0.00
    9   23   59     -8.67      0.00
   11   23   59     -7.76      0.00
   13   23   59      3.48      0.00
   15   23   59      4.81      0.00
   17   23   59      0.26      0.00
   19   23   59     -8.12      0.00
   21   23   59     13.53      0.00
    1   25   59    -19.34      0.00
    3   25   59     -2.55      0.00
    5   25   59      1.24      0.00
    7   25   59     -4.55      0.00
    9   25   59     -5.62      0.00
   11   25   59      6.23      0.00
   13   25   59     -0.89      0.00
   15   25   59    -13.73      0.00
   17   25   59      1.00      0.00
   19   25   59      3.20      0.00
   21   25   59     20.79      0.00
   23   25   59      4.41      0.00
    1   27   59      5.76      0.00
    3   27   59     -1.12      0.00
    5   27   59     10.82      0.00
    7   27   59     -3.09      0.00
    9   27   59     14.28      0.00
   11   27   59      8.91      0.00
   13   27   59     11.47      0.00
   15   27   59     -3.56      0.00
   17   27   59    -13.15      0.00
   19   27   59     10.34      0.00
   21   27   59      2.54      0.00
   23   27   59      6.24      0.00
   25   27   59      7.90      0.00
    1   29   59      9.16      0.00
    3   29   59     -1.66      0.00
    5   29   59     -5.10      0.00
    7   29   59     -3.62      0.00
    9   29   59     -3.03      0.00
   11   29   59     18.81      0.00
   13   29   59      3.89      0.00
   15   29   59     -8.48      0.00
   17   29   59    -16.91      0.00
   19   29   59      0.27      0.00
   21   29   59     -2.31      0.00
   23   29   59      6.38      0.00
   25   29   59    -14.84      0.00
   27   29   59      2.71      0.00
    1   31   59     -8.29      0.00
    3   31   59     -8.72      0.00
    5   31   59     -0.58      0.00
    7   31   59      1.46      0.00
    9   31   59     -8.27      0.00
   11   31   59      1.79      0.00
   13   31   59     -1.14      0.00
   15   31   59     -6.84      0.00
   17   31   59    -14.75      0.00
   19   31   59    -10.87      0.00
   21   31   59     -7.79      0.00
   23   31   59     -3.88      0.00
   25   31   59     -1.89      0.00
   27   31   59     -3.24      0.00
   29   31   59      0.86      0.00
    1   33   59     -0.99      0.00
    3   33   59     -2.34      0.00
    5   33   59      3.76      0.00
    7   33   59     -2.48      0.00
    9   33   59     -3.80      0.00
   11   33   59     -2.54      0.00
   13   33   59    -12.75      0.00
   15   33   59      9.40      0.00
   17   33   59     -0.41      0.00
   19   33   59     -0.41      0.00
   21   33   59      7.31      0.00
   23   33   59      3.24      0.00
   25   33   59     -0.98      0.00
   27   33   59      0.74      0.00
    1   35   59      4.18      0.00
    3   35   59      2.21      0.00
    5   35   59    -10.32      0.00
    7   35   59     -2.28      0.00
    9   35   59      7.02      0.00
   11   35   59      0.79      0.00
   13   35   59     -3.78      0.00
   15   35   59      6.29      0.00
   17   35   59      2.72      0.00
   19   35   59     -2.73      0.00
   21   35   59     -4.07      0.00
   23   35   59     -1.96      0.00
   25   35   59      2.88      0.00
    1   37   59     -1.03      0.00
    3   37   59     -3.54      0.00
    5   37   59     -9.73      0.00
    7   37   59     -8.64      0.00
    9   37   59     -0.61      0.00
   11   37   59     -3.25      0.00
   13   37   59      8.07      0.00
   15   37   59     -4.30      0.00
   17   37   59     -2.93      0.00
   19   37   59     14.65      0.00
   21   37   59     -3.18      0.00
    1   39   59     -1.04      0.00
    3   39   59      0.13      0.00
    5   39   59      7.03      0.00
    7   39   59     -1.57      0.00
    9   39   59      6.78      0.00
   11   39   59     -0.92      0.00
   13   39   59      3.55      0.00
   15   39   59     -3.93      0.00
   17   39   59     -8.09      0.00
    1   41   59     -3.08      0.00
    3   41   59      9.70      0.00
    5   41   59     -8.32      0.00
    7   41   59     -7.34      0.00
    9   41   59     10.91      0.00
   11   41   59      0.78      0.00
   13   41   59      7.79      0.00
    1   43   59     -2.58      0.00
    3   43   59      0.14      0.00
    5   43   59    -12.40      0.00
    0    0   60      4.53      0.00
    0    2   60    -15.86      0.00
    2    2   60     13.57      0.00
    0    4   60     -1.33      0.00
    2    4   60      2.96      0.00
    4    4   60     -5.26      0.00
    0    6   60    -18.00      0.00
    2    6   60    -15.05      0.00
    4    6   60    -11.08      0.00
    6    6   60     20.98      0.00
    0    8   60     -5.10      0.00
    2    8   60     10.06      0.00
    4    8   60     -1.78      0.00
    6    8   60     24.37      0.00
    8    8   60    -16.55      0.00
    0   10   60     -5.01      0.00
    2   10   60     14.59      0.00
    4   10   60     13.54      0.00
    6   10   60      7.97      0.00
    8   10   60     -0.87      0.00
   10   10   60     12.63      0.00
    0   12   60     11.40      0.00
    2   12   60     10.51      0.00
    4   12   60     10.62      0.00
    6   12   60      3.74      0.00
    8   12   60    -18.38      0.00
   10   12   60      7.09      0.00
   12   12   60     10.50      0.00
    0   14   60      6.08      0.00
    2   14   60      6.96      0.00
    4   14   60      2.36      0.00
    6   14   60     -2.28      0.00
    8   14   60    -10.18      0.00
   10   14   60     -4.66      0.00
   12   14   60      8.92      0.00
   14   14   60     -8.38      0.00
    0   16   60    -22.12      0.00
    2   16   60      8.56      0.00
    4   16   60      3.43      0.00
    6   16   60      8.07      0.00
    8   16   60      9.42      0.00
   10   16   60     17.44      0.00
   12   16   60     -4.03      0.00
   14   16   60     -9.25      0.00
   16   16   60     19.03      0.00
    0   18   60     -6.99      0.00
    2   18   60      8.48      0.00
    4   18   60     -3.88      0.00
    6   18   60     13.00      0.00
    8   18   60      0.62      0.00
   10   18   60      4.42      0.00
   12   18   60     -1.50      0.00
   14   18   60     -4.17      0.00
   16   18   60     -4.46      0.00
   18   18   60      0.42      0.00
    0   20   60     18.83      0.00
    2   20   60      2.91      0.00
    4   20   60      3.47      0.00
    6   20   60      3.23      0.00
    8   20   60      1.57      0.00
   10   20   60      7.59      0.00
   12   20   60     -2.11      0.00
   14   20   60    -12.06      0.00
   16   20   60    -10.35      0.00
   18   20   60     -2.06      0.00
   20   20   60      9.04      0.00
    0   22   60    -17.09      0.00
    2   22   60     14.96      0.00
    4   22   60     10.71      0.00
    6   22   60    -21.18      0.00
    8   22   60    -15.56      0.00
   10   22   60      6.15      0.00
   12   22   60      3.37      0.00
   14   22   60      8.38      0.00
   16   22   60      3.26      0.00
   18   22   60     13.72      0.00
   20   22   60      7.95      0.00
   22   22   60     11.83      0.00
    0   24   60      1.16      0.00
    2   24   60      2.14      0.00
    4   24   60     -6.46      0.00
    6   24   60      1.86      0.00
    8   24   60     -0.88      0.00
   10   24   60      8.94      0.00
   12   24   60      3.35      0.00
   14   24   60    -12.81      0.00
   16   24   60      1.31      0.00
   18   24   60      1.47      0.00
   20   24   60      9.58      0.00
   22   24   60      0.81      0.00
   24   24   60      0.73      0.00
    0   26   60     -7.36      0.00
    2   26   60     -2.53      0.00
    4   26   60     13.48      0.00
    6   26   60      4.08      0.00
    8   26   60      2.41      0.00
   10   26   60      1.56      0.00
   12   26   60     12.81      0.00
   14   26   60     -7.17      0.00
   16   26   60     -0.59      0.00
   18   26   60     -6.76      0.00
   20   26   60      3.93      0.00
   22   26   60     -4.96      0.00
   24   26   60      5.43      0.00
   26   26   60    -12.63      0.00
    0   28   60     -6.99      0.00
    2   28   60      0.93      0.00
    4   28   60     13.67      0.00
    6   28   60     -4.82      0.00
    8   28   60     -0.12      0.00
   10   28   60      4.81      0.00
   12   28   60     -2.80      0.00
   14   28   60      5.53      0.00
   16   28   60      6.92      0.00
   18   28   60      6.54      0.00
   20   28   60      9.37      0.00
   22   28   60     -2.62      0.00
   24   28   60    -12.55      0.00
   26   28   60      0.36      0.00
   28   28   60     -4.43      0.00
    0   30   60    -13.93      0.00
    2   30   60     -8.82      0.00
    4   30   60     14.73      0.00
    6   30   60      4.57      0.00
    8   30   60     -7.23      0.00
   10   30   60      4.80      0.00
   12   30   60     -6.87      0.00
   14   30   60     -8.55      0.00
   16   30   60     10.26      0.00
   18   30   60      2.97      0.00
   20   30   60     18.49      0.00
   22   30   60     -1.93      0.00
   24   30   60     10.11      0.00
   26   30   60      1.96      0.00
   28   30   60     -3.01      0.00
    0   32   60     -5.55      0.00
    2   32   60      1.12      0.00
    4   32   60      9.34      0.00
    6   32   60      0.14      0.00
    8   32   60     -2.81      0.00
   10   32   60      2.74      0.00
   12   32   60     -4.30      0.00
   14   32   60     -2.56      0.00
   16   32   60     -8.43      0.00
   18   32   60     -8.03      0.00
   20   32   60      5.12      0.00
   22   32   60     -9.41      0.00
   24   32   60     -1.92      0.00
   26   32   60     -7.01      0.00
    0   34   60      9.64      0.00
    2   34   60     -3.81      0.00
    4   34   60      1.60      0.00
    6   34   60      7.81      0.00
    8   34   60      1.91      0.00
   10   34   60      6.73      0.00
   12   34   60      1.86      0.00
   14   34   60     -1.35      0.00
   16   34   60     -0.46      0.00
   18   34   60     -2.45      0.00
   20   34   60     15.09      0.00
   22   34   60      3.30      0.00
   24   34   60     -9.21      0.00
    0   36   60    -11.93      0.00
    2   36   60     -4.55      0.00
    4   36   60     -6.67      0.00
    6   36   60      0.51      0.00
    8   36   60      2.50      0.00
   10   36   60      6.27      0.00
   12   36   60      2.58      0.00
   14   36   60     -2.11      0.00
   16   36   60     -3.29      0.00
   18   36   60      3.70      0.00
   20   36   60     18.02      0.00
    0   38   60      3.64      0.00
    2   38   60      2.04      0.00
    4   38   60     -0.07      0.00
    6   38   60    -26.04      0.00
    8   38   60     -7.63      0.00
   10   38   60     -4.68      0.00
   12   38   60      1.02      0.00
   14   38   60     -6.46      0.00
   16   38   60    -12.46      0.00
    0   40   60      9.58      0.00
    2   40   60      9.09      0.00
    4   40   60      6.52      0.00
    6   40   60      0.55      0.00
    8   40   60      1.53      0.00
   10   40   60      3.28      0.00
   12   40   60      0.32      0.00
    1    3   61      4.91      0.00
    1    5   61      4.48      0.00
    3    5   61     -9.18      0.00
    1    7   61     13.06      0.00
    3    7   61     -1.89      0.00
    5    7   61     13.83      0.00
    1    9   61     20.36      0.00
    3    9   61      8.85      0.00
    5    9   61     -6.49      0.00
    7    9   61    -12.78      0.00
    1   11   61     -3.97      0.00
    3   11   61     -5.87      0.00
    5   11   61      6.67      0.00
    7   11   61     -6.29      0.00
    9   11   61     -4.71      0.00
    1   13   61     17.85      0.00
    3   13   61    -19.62      0.00
    5   13   61     -2.23      0.00
    7   13   61     -1.01      0.00
    9   13   61     -2.32      0.00
   11   13   61     17.19      0.00
    1   15   61      5.86      0.00
    3   15   61     -3.57      0.00
    5   15   61      0.70      0.00
    7   15   61      1.90      0.00
    9   15   61     -1.35      0.00
   11   15   61     -5.66      0.00
   13   15   61      2.64      0.00
    1   17   61     22.82      0.00
    3   17   61     -9.59      0.00
    5   17   61     12.77      0.00
    7   17   61      6.66      0.00
    9   17   61      3.72      0.00
   11   17   61     10.09      0.00
   13   17   61      9.43      0.00
   15   17   61     -1.42      0.00
    1   19   61      2.14      0.00
    3   19   61     -7.71      0.00
    5   19   61     -6.08      0.00
    7   19   61      5.55      0.00
    9   19   61    -13.66      0.00
   11   19   61     20.98      0.00
   13   19   61      5.98      0.00
   15   19   61      6.75      0.00
   17   19   61     26.39      0.00
    1   21   61     -0.58      0.00
    3   21   61      2.93      0.00
    5   21   61     -2.41      0.00
    7   21   61      4.74      0.00
    9   21   61      4.56      0.00
   11   21   61      1.21      0.00
   13   21   61     -4.36      0.00
   15   21   61     -5.23      0.00
   17   21   61     15.06      0.00
   19   21   61      9.84      0.00
    1   23   61      7.80      0.00
    3   23   61     -1.98      0.00
    5   23   61    -10.32      0.00
    7   23   61     13.19      0.00
    9   23   61     -3.61      0.00
   11   23   61      2.90      0.00
   13   23   61      4.28      0.00
   15   23   61     -2.51      0.00
   17   23   61      4.93      0.00
   19   23   61     -5.99      0.00
   21   23   61      0.47      0.00
    1   25   61      3.03      0.00
    3   25   61      1.55      0.00
    5   25   61     -1.52      0.00
    7   25   61     -3.34      0.00
    9   25   61     -3.39      0.00
   11   25   61     -7.21      0.00
   13   25   61    -12.30      0.00
   15   25   61     -3.31      0.00
   17   25   61     12.74      0.00
   19   25   61     -2.53      0.00
   21   25   61      4.84      0.00
   23   25   61      3.10      0.00
    1   27   61      4.58      0.00
    3   27   61      4.77      0.00
    5   27   61      9.11      0.00
    7   27   61     -1.04      0.00
    9   27   61      3.40      0.00
   11   27   61    -10.54      0.00
   13   27   61    -14.46      0.00
   15   27   61      4.93      0.00
   17   27   61      5.83      0.00
   19   27   61     -0.82      0.00
   21   27   61     -8.52      0.00
   23   27   61     -2.17      0.00
   25   27   61      4.82      0.00
    1   29   61      1.43      0.00
    3   29   61      1.01      0.00
    5   29   61      1.97      0.00
    7   29   61     -0.33      0.00
    9   29   61     -1.44      0.00
   11   29   61     -0.60      0.00
   13   29   61     18.30      0.00
   15   29   61     -3.63      0.00
   17   29   61     -1.99      0.00
   19   29   61     11.08      0.00
   21   29   61      0.21      0.00
   23   29   61      9.95      0.00
   25   29   61      1.24      0.00
   27   29   61      1.34      0.00
    1   31   61     -0.78      0.00
    3   31   61     -1.02      0.00
    5   31   61      6.41      0.00
    7   31   61     -4.26      0.00
    9   31   61     -4.85      0.00
   11   31   61      2.55      0.00
   13   31   61     -4.75      0.00
   15   31   61      1.69      0.00
   17   31   61    -11.07      0.00
   19   31   61      1.94      0.00
   21   31   61      5.45      0.00
   23   31   61     -2.75      0.00
   25   31   61      1.09      0.00
    1   33   61      0.08      0.00
    3   33   61     -2.79      0.00
    5   33   61     -0.26      0.00
    7   33   61      3.85      0.00
    9   33   61     -0.89      0.00
   11   33   61      8.56      0.00
   13   33   61     -4.51      0.00
   15   33   61      1.84      0.00
   17   33   61     -0.28      0.00
   19   33   61      0.03      0.00
   21   33   61     11.73      0.00
   23   33   61     -3.87      0.00
    1   35   61     -0.01      0.00
    3   35   61      4.29      0.00
    5   35   61     -1.78      0.00
    7   35   61      1.40      0.00
    9   35   61      9.56      0.00
   11   35   61      9.97      0.00
   13   35   61     -1.78      0.00
   15   35   61      6.99      0.00
   17   35   61     15.91      0.00
   19   35   61    -12.10      0.00
    1   37   61     -3.57      0.00
    3   37   61     -0.59      0.00
    5   37   61     10.47      0.00
    7   37   61      3.17      0.00
    9   37   61      4.35      0.00
   11   37   61     -2.80      0.00
   13   37   61     -1.61      0.00
   15   37   61      2.55      0.00
    1   39   61     -4.31      0.00
    3   39   61     12.09      0.00
    5   39   61     13.03      0.00
    7   39   61      5.47      0.00
    9   39   61      2.05      0.00
    0    0   62      9.94      0.00
    0    2   62     13.21      0.00
    2    2   62      8.13      0.00
    0    4   62     -2.59      0.00
    2    4   62     -4.67      0.00
    4    4   62    -17.98      0.00
    0    6   62      1.50      0.00
    2    6   62      1.22      0.00
    4    6   62     -6.35      0.00
    6    6   62     12.64      0.00
    0    8   62     -1.62      0.00
    2    8   62     11.16      0.00
    4    8   62     -8.16      0.00
    6    8   62    -12.94      0.00
    8    8   62     -3.76      0.00
    0   10   62     -7.72      0.00
    2   10   62      4.31      0.00
    4   10   62     -1.48      0.00
    6   10   62      1.07      0.00
    8   10   62    -28.41      0.00
   10   10   62      0.75      0.00
    0   12   62     -1.90      0.00
    2   12   62      0.77      0.00
    4   12   62      8.82      0.00
    6   12   62     -1.32      0.00
    8   12   62      1.90      0.00
   10   12   62      6.27      0.00
   12   12   62      3.30      0.00
    0   14   62      5.26      0.00
    2   14   62      5.27      0.00
    4   14   62      2.42      0.00
    6   14   62      8.49      0.00
    8   14   62     11.38      0.00
   10   14   62      4.87      0.00
   12   14   62      0.61      0.00
   14   14   62     -1.32      0.00
    0   16   62     -6.78      0.00
    2   16   62     -7.88      0.00
    4   16   62     -4.63      0.00
    6   16   62     -1.63      0.00
    8   16   62     11.89      0.00
   10   16   62     14.91      0.00
   12   16   62     -2.60      0.00
   14   16   62    -10.06      0.00
   16   16   62      3.10      0.00
    0   18   62      0.72      0.00
    2   18   62     -1.78      0.00
    4   18   62     -0.38      0.00
    6   18   62    -17.45      0.00
    8   18   62     -8.04      0.00
   10   18   62     -3.83      0.00
   12   18   62     -0.90      0.00
   14   18   62     11.20      0.00
   16   18   62      1.13      0.00
   18   18   62    -13.03      0.00
    0   20   62    -17.49      0.00
    2   20   62      2.37      0.00
    4   20   62      5.71      0.00
    6   20   62     -9.88      0.00
    8   20   62     -1.03      0.00
   10   20   62     -0.65      0.00
   12   20   62     -0.92      0.00
   14   20   62     14.40      0.00
   16   20   62      1.37      0.00
   18   20   62      2.07      0.00
   20   20   62    -13.30      0.00
    0   22   62     -6.84      0.00
    2   22   62     -4.83      0.00
    4   22   62     -0.43      0.00
    6   22   62     -1.51      0.00
    8   22   62     -6.63      0.00
   10   22   62      6.94      0.00
   12   22   62      1.21      0.00
   14   22   62     13.31      0.00
   16   22   62     11.84      0.00
   18   22   62    -14.51      0.00
   20   22   62    -16.16      0.00
   22   22   62    -17.78      0.00
    0   24   62      2.70      0.00
    2   24   62    -11.09      0.00
    4   24   62     -1.22      0.00
    6   24   62      1.38      0.00
    8   24   62      0.67      0.00
   10   24   62    -12.14      0.00
   12   24   62     -5.39      0.00
   14   24   62     -9.64      0.00
   16   24   62     -4.57      0.00
   18   24   62     -7.73      0.00
   20   24   62     -6.24      0.00
   22   24   62      2.17      0.00
   24   24   62     10.93      0.00
    0   26   62    -12.69      0.00
    2   26   62      4.22      0.00
    4   26   62     -5.53      0.00
    6   26   62      7.42      0.00
    8   26   62     11.75      0.00
   10   26   62    -10.31      0.00
   12   26   62     14.06      0.00
   14   26   62     -3.50      0.00
   16   26   62      7.83      0.00
   18   26   62     -3.26      0.00
   20   26   62      3.27      0.00
   22   26   62     -3.41      0.00
   24   26   62      0.20      0.00
   26   26   62     -5.33      0.00
    0   28   62      0.30      0.00
    2   28   62    -18.77      0.00
    4   28   62     -6.20      0.00
    6   28   62    -10.28      0.00
    8   28   62      2.33      0.00
   10   28   62      1.49      0.00
   12   28   62      3.20      0.00
   14   28   62      2.08      0.00
   16   28   62      8.65      0.00
   18   28   62      1.77      0.00
   20   28   62     17.44      0.00
   22   28   62      1.99      0.00
   24   28   62      1.09      0.00
   26   28   62     -1.54      0.00
    0   30   62     -7.29      0.00
    2   30   62     -5.89      0.00
    4   30   62     -8.05      0.00
    6   30   62    -19.51      0.00
    8   30   62      0.42      0.00
   10   30   62     -3.43      0.00
   12   30   62     -8.51      0.00
   14   30   62      0.29      0.00
   16   30   62      3.66      0.00
   18   30   62      7.69      0.00
   20   30   62      0.59      0.00
   22   30   62      1.63      0.00
   24   30   62     -6.69      0.00
    0   32   62     12.16      0.00
    2   32   62     -0.86      0.00
    4   32   62      4.35      0.00
    6   32   62     -5.64      0.00
    8   32   62    -18.38      0.00
   10   32   62      3.08      0.00
   12   32   62     -6.56      0.00
   14   32   62      8.28      0.00
   16   32   62      2.68      0.00
   18   32   62      6.57      0.00
   20   32   62    -10.26      0.00
   22   32   62    -13.49      0.00
    0   34   62    -11.94      0.00
    2   34   62      4.65      0.00
    4   34   62     -8.68      0.00
    6   34   62     -2.05      0.00
    8   34   62     -1.37      0.00
   10   34   62     -6.43      0.00
   12   34   62     -5.89      0.00
   14   34   62     -0.90      0.00
   16   34   62      7.97      0.00
   18   34   62      1.60      0.00
    0   36   62    -13.44      0.00
    2   36   62     -0.81      0.00
    4   36   62      1.94      0.00
    6   36   62     -0.37      0.00
    8   36   62     -0.94      0.00
   10   36   62      1.05      0.00
   12   36   62     -3.94      0.00
   14   36   62     -8.28      0.00
    0   38   62      8.16      0.00
    2   38   62     -4.09      0.00
    4   38   62     -7.66      0.00
    6   38   62     -6.82      0.00
    8   38   62     -8.51      0.00
    1    3   63      6.31      0.00
    1    5   63      7.54      0.00
    3    5   63     -6.52      0.00
    1    7   63      1.23      0.00
    3    7   63      3.26      0.00
    5    7   63      9.42      0.00
    1    9   63      4.03      0.00
    3    9   63     15.16      0.00
    5    9   63      0.38      0.00
    7    9   63     -7.20      0.00
    1   11   63     -3.25      0.00
    3   11   63     -2.52      0.00
    5   11   63      1.63      0.00
    7   11   63     -2.25      0.00
    9   11   63      0.54      0.00
    1   13   63      1.60      0.00
    3   13   63     11.35      0.00
    5   13   63    -12.74      0.00
    7   13   63      1.64      0.00
    9   13   63     14.00      0.00
   11   13   63     19.96      0.00
    1   15   63      0.00      0.00
    3   15   63     -2.87      0.00
    5   15   63      3.35      0.00
    7   15   63     -0.59      0.00
    9   15   63     -0.34      0.00
   11   15   63      7.83      0.00
   13   15   63      0.15      0.00
    1   17   63      0.91      0.00
    3   17   63     -2.01      0.00
    5   17   63     -9.58      0.00
    7   17   63      4.25      0.00
    9   17   63      5.43      0.00
   11   17   63     22.49      0.00
   13   17   63     -1.22      0.00
   15   17   63      5.00      0.00
    1   19   63      2.32      0.00
    3   19   63     20.99      0.00
    5   19   63      6.48      0.00
    7   19   63      2.59      0.00
    9   19   63     13.23      0.00
   11   19   63      3.97      0.00
   13   19   63     -3.41      0.00
   15   19   63      2.58      0.00
   17   19   63      8.92      0.00
    1   21   63      8.06      0.00
    3   21   63      3.26      0.00
    5   21   63      5.55      0.00
    7   21   63      9.24      0.00
    9   21   63     -8.65      0.00
   11   21   63     -1.93      0.00
   13   21   63     -7.19      0.00
   15   21   63      5.10      0.00
   17   21   63      0.62      0.00
   19   21   63      0.48      0.00
    1   23   63     -0.68      0.00
    3   23   63     -8.08      0.00
    5   23   63     -9.41      0.00
    7   23   63     12.36      0.00
    9   23   63      0.96      0.00
   11   23   63     10.91      0.00
   13   23   63      5.14      0.00
   15   23   63      3.07      0.00
   17   23   63     12.81      0.00
   19   23   63     -2.86      0.00
   21   23   63     -0.09      0.00
    1   25   63      7.94      0.00
    3   25   63     -7.30      0.00
    5   25   63      3.81      0.00
    7   25   63     -4.96      0.00
    9   25   63     15.89      0.00
   11   25   63     11.36      0.00
   13   25   63      2.79      0.00
   15   25   63     -3.83      0.00
   17   25   63     -1.96      0.00
   19   25   63      5.42      0.00
   21   25   63      9.89      0.00
   23   25   63      1.40      0.00
    1   27   63     -6.95      0.00
    3   27   63      4.44      0.00
    5   27   63      5.49      0.00
    7   27   63     -8.63      0.00
    9   27   63      8.81      0.00
   11   27   63      7.67      0.00
   13   27   63      4.26      0.00
   15   27   63      0.85      0.00
   17   27   63     13.72      0.00
   19   27   63      0.18      0.00
   21   27   63     -4.63      0.00
   23   27   63     -2.96      0.00
   25   27   63      3.32      0.00
    1   29   63      1.70      0.00
    3   29   63      9.46      0.00
    5   29   63      3.74      0.00
    7   29   63     -9.77      0.00
    9   29   63     -1.19      0.00
   11   29   63     13.72      0.00
   13   29   63      8.67      0.00
   15   29   63      5.87      0.00
   17   29   63      0.35      0.00
   19   29   63      2.27      0.00
   21   29   63      4.60      0.00
   23   29   63     -0.98      0.00
    1   31   63      1.86      0.00
    3   31   63    -13.73      0.00
    5   31   63     -3.19      0.00
    7   31   63      1.43      0.00
    9   31   63      1.00      0.00
   11   31   63     -4.69      0.00
   13   31   63     -3.22      0.00
   15   31   63     -8.66      0.00
   17   31   63      1.80      0.00
   19   31   63      2.20      0.00
    1   33   63    -15.87      0.00
    3   33   63     -8.77      0.00
    5   33   63     -0.41      0.00
    7   33   63      3.13      0.00
    9   33   63     12.21      0.00
   11   33   63      1.10      0.00
   13   33   63     -3.83      0.00
   15   33   63     -5.92      0.00
   17   33   63     -1.22      0.00
    1   35   63      1.51      0.00
    3   35   63     -3.36      0.00
    5   35   63     -5.68      0.00
    7   35   63     -1.90      0.00
    9   35   63      2.03      0.00
   11   35   63     -1.72      0.00
    1   37   63      1.41      0.00
    3   37   63      6.95      0.00
    0    0   64     -1.73      0.00
    0    2   64      7.60      0.00
    2    2   64     11.65      0.00
    0    4   64     -0.71      0.00
    2    4   64      4.48      0.00
    4    4   64     -1.75      0.00
    0    6   64     11.40      0.00
    2    6   64     -3.49      0.00
    4    6   64      4.92      0.00
    6    6   64     18.80      0.00
    0    8   64      4.10      0.00
    2    8   64     -1.91      0.00
    4    8   64     -3.06      0.00
    6    8   64     11.82      0.00
    8    8   64      7.86      0.00
    0   10   64     23.77      0.00
    2   10   64     15.85      0.00
    4   10   64     10.88      0.00
    6   10   64      0.05      0.00
    8   10   64      7.79      0.00
   10   10   64      5.93      0.00
    0   12   64     17.77      0.00
    2   12   64      1.27      0.00
    4   12   64      1.46      0.00
    6   12   64     -0.35      0.00
    8   12   64     -4.26      0.00
   10   12   64      0.28      0.00
   12   12   64      1.02      0.00
    0   14   64     17.02      0.00
    2   14   64     -7.93      0.00
    4   14   64    -16.41      0.00
    6   14   64     -3.49      0.00
    8   14   64      0.98      0.00
   10   14   64     -0.92      0.00
   12   14   64      2.78      0.00
   14   14   64     17.74      0.00
    0   16   64      4.79      0.00
    2   16   64     -7.59      0.00
    4   16   64      4.11      0.00
    6   16   64      3.17      0.00
    8   16   64     14.38      0.00
   10   16   64      3.64      0.00
   12   16   64      2.47      0.00
   14   16   64      1.61      0.00
   16   16   64     10.47      0.00
    0   18   64      9.70      0.00
    2   18   64     11.93      0.00
    4   18   64     10.74      0.00
    6   18   64      6.40      0.00
    8   18   64     10.11      0.00
   10   18   64     -3.31      0.00
   12   18   64     10.77      0.00
   14   18   64      9.36      0.00
   16   18   64      3.87      0.00
   18   18   64      3.95      0.00
    0   20   64     10.74      0.00
    2   20   64    -19.67      0.00
    4   20   64    -11.37      0.00
    6   20   64     -2.53      0.00
    8   20   64     -0.80      0.00
   10   20   64     -5.37      0.00
   12   20   64    -11.82      0.00
   14   20   64      4.41      0.00
   16   20   64     11.58      0.00
   18   20   64      8.04      0.00
   20   20   64      5.27      0.00
    0   22   64     -9.67      0.00
    2   22   64    -11.85      0.00
    4   22   64     -4.80      0.00
    6   22   64      3.95      0.00
    8   22   64      8.16      0.00
   10   22   64     10.36      0.00
   12   22   64      4.44      0.00
   14   22   64     -1.03      0.00
   16   22   64     -5.78      0.00
   18   22   64      3.42      0.00
   20   22   64     -8.84      0.00
   22   22   64     -8.81      0.00
    0   24   64    -10.58      0.00
    2   24   64     -0.72      0.00
    4   24   64    -19.67      0.00
    6   24   64      8.28      0.00
    8   24   64      2.47      0.00
   10   24   64    -17.27      0.00
   12   24   64      3.86      0.00
   14   24   64     -6.91      0.00
   16   24   64      3.17      0.00
   18   24   64     -0.99      0.00
   20   24   64      2.42      0.00
   22   24   64     -9.51      0.00
   24   24   64      4.13      0.00
    0   26   64      3.20      0.00
    2   26   64    -10.30      0.00
    4   26   64      6.16      0.00
    6   26   64      9.39      0.00
    8   26   64      1.13      0.00
   10   26   64    -14.25      0.00
   12   26   64     18.15      0.00
   14   26   64      5.56      0.00
   16   26   64      6.25      0.00
   18   26   64     -2.12      0.00
   20   26   64      0.46      0.00
   22   26   64     -9.16      0.00
   24   26   64     -3.28      0.00
    0   28   64      6.76      0.00
    2   28   64    -10.47      0.00
    4   28   64      1.59      0.00
    6   28   64      0.90      0.00
    8   28   64      7.70      0.00
   10   28   64     -1.39      0.00
   12   28   64      1.08      0.00
   14   28   64      3.42      0.00
   16   28   64      3.78      0.00
   18   28   64      1.15      0.00
   20   28   64      3.03      0.00
    0   30   64     -4.63      0.00
    2   30   64    -10.03      0.00
    4   30   64     -3.72      0.00
    6   30   64     -4.09      0.00
    8   30   64     -3.99      0.00
   10   30   64     -2.00      0.00
   12   30   64     -2.84      0.00
   14   30   64      7.96      0.00
   16   30   64      0.93      0.00
   18   30   64      1.35      0.00
    0   32   64      3.84      0.00
    2   32   64      9.45      0.00
    4   32   64     -2.04      0.00
    6   32   64     -5.25      0.00
    8   32   64     -6.43      0.00
   10   32   64     -5.42      0.00
   12   32   64     -8.59      0.00
   14   32   64     -0.65      0.00
    0   34   64      3.46      0.00
    2   34   64      3.54      0.00
    4   34   64     -2.91      0.00
    6   34   64      8.47      0.00
    8   34   64    -21.73      0.00
   10   34   64     -1.10      0.00
    1    3   65    -17.98      0.00
    1    5   65    -12.83      0.00
    3    5   65     -0.38      0.00
    1    7   65    -16.63      0.00
    3    7   65    -18.88      0.00
    5    7   65     -2.64      0.00
    1    9   65      1.81      0.00
    3    9   65      5.74      0.00
    5    9   65     -4.43      0.00
    7    9   65     -1.44      0.00
    1   11   65     -4.34      0.00
    3   11   65     21.42      0.00
    5   11   65     -8.27      0.00
    7   11   65      4.80      0.00
    9   11   65     -0.89      0.00
    1   13   65      2.32      0.00
    3   13   65     -3.19      0.00
    5   13   65     -1.92      0.00
    7   13   65     -8.15      0.00
    9   13   65    -11.03      0.00
   11   13   65      4.14      0.00
    1   15   65     -2.39      0.00
    3   15   65      7.23      0.00
    5   15   65     -5.71      0.00
    7   15   65      1.77      0.00
    9   15   65     -4.36      0.00
   11   15   65      3.56      0.00
   13   15   65      4.10      0.00
    1   17   65      5.09      0.00
    3   17   65      7.91      0.00
    5   17   65     -3.14      0.00
    7   17   65     -6.15      0.00
    9   17   65      5.23      0.00
   11   17   65      6.53      0.00
   13   17   65     -5.11      0.00
   15   17   65     -5.00      0.00
    1   19   65     -3.40      0.00
    3   19   65      6.03      0.00
    5   19   65      9.11      0.00
    7   19   65      1.90      0.00
    9   19   65     -3.05      0.00
   11   19   65     -4.55      0.00
   13   19   65    -13.24      0.00
   15   19   65     -6.06      0.00
   17   19   65     -4.36      0.00
    1   21   65    -14.52      0.00
    3   21   65      6.42      0.00
    5   21   65     -5.84      0.00
    7   21   65     -2.72      0.00
    9   21   65      7.17      0.00
   11   21   65      2.60      0.00
   13   21   65     -2.92      0.00
   15   21   65      4.37      0.00
   17   21   65     -2.64      0.00
   19   21   65     -4.56      0.00
    1   23   65     -4.95      0.00
    3   23   65     -1.81      0.00
    5   23   65     -2.87      0.00
    7   23   65      1.43      0.00
    9   23   65      1.69      0.00
   11   23   65      0.26      0.00
   13   23   65     -3.43      0.00
   15   23   65     -5.03      0.00
   17   23   65      5.91      0.00
   19   23   65     13.38      0.00
   21   23   65      4.30      0.00
    1   25   65      3.89      0.00
    3   25   65      0.48      0.00
    5   25   65     -2.14      0.00
    7   25   65    -10.51      0.00
    9   25   65     -8.37      0.00
   11   25   65      4.61      0.00
   13   25   65      7.48      0.00
   15   25   65     -7.12      0.00
   17   25   65     11.92      0.00
   19   25   65      9.52      0.00
   21   25   65     -2.55      0.00
    1   27   65     -5.45      0.00
    3   27   65     -4.85      0.00
    5   27   65      3.75      0.00
    7   27   65    -12.00      0.00
    9   27   65      1.63      0.00
   11   27   65      6.18      0.00
   13   27   65      2.70      0.00
   15   27   65      7.21      0.00
   17   27   65      8.21      0.00
   19   27   65     -7.03      0.00
    1   29   65      4.70      0.00
    3   29   65     -6.71      0.00
    5   29   65      0.56      0.00
    7   29   65     -7.38      0.00
    9   29   65      0.87      0.00
   11   29   65     -1.68      0.00
   13   29   65     -1.74      0.00
   15   29   65     -7.60      0.00
   17   29   65      0.63      0.00
    1   31   65     -0.25      0.00
    3   31   65     -0.26      0.00
    5   31   65     -1.73      0.00
    7   31   65     11.63      0.00
    9   31   65     -3.95      0.00
   11   31   65     -1.67      0.00
   13   31   65      0.64      0.00
    1   33   65     -6.96      0.00
    3   33   65     -3.82      0.00
    5   33   65     13.02      0.00
    0    0   66     16.75      0.00
    0    2   66      0.72      0.00
    2    2   66     31.08      0.00
    0    4   66     11.03      0.00
    2    4   66      5.33      0.00
    4    4   66     -0.40      0.00
    0    6   66      0.87      0.00
    2    6   66     -2.61      0.00
    4    6   66    -11.59      0.00
    6    6   66     -1.22      0.00
    0    8   66      3.09      0.00
    2    8   66    -12.89      0.00
    4    8   66     -3.54      0.00
    6    8   66      1.92      0.00
    8    8   66      2.01      0.00
    0   10   66     15.84      0.00
    2   10   66     -4.60      0.00
    4   10   66      6.90      0.00
    6   10   66    -13.83      0.00
    8   10   66    -17.32      0.00
   10   10   66     14.50      0.00
    0   12   66     32.33      0.00
    2   12   66     24.46      0.00
    4   12   66      3.99      0.00
    6   12   66      0.09      0.00
    8   12   66      1.57      0.00
   10   12   66      0.97      0.00
   12   12   66      1.20      0.00
    0   14   66     61.65      0.00
    2   14   66     10.54      0.00
    4   14   66     -2.27      0.00
    6   14   66      8.89      0.00
    8   14   66     16.26      0.00
   10   14   66     16.30      0.00
   12   14   66      0.75      0.00
   14   14   66     -7.86      0.00
    0   16   66      2.43      0.00
    2   16   66      0.50      0.00
    4   16   66     -9.84      0.00
    6   16   66      2.33      0.00
    8   16   66      2.35      0.00
   10   16   66      0.46      0.00
   12   16   66    -16.73      0.00
   14   16   66     -6.38      0.00
   16   16   66      5.78      0.00
    0   18   66     15.93      0.00
    2   18   66    -25.73      0.00
    4   18   66     -7.76      0.00
    6   18   66      9.36      0.00
    8   18   66      3.11      0.00
   10   18   66     -8.98      0.00
   12   18   66    -11.72      0.00
   14   18   66    -10.19      0.00
   16   18   66      0.79      0.00
   18   18   66    -10.48      0.00
    0   20   66     24.71      0.00
    2   20   66     -2.78      0.00
    4   20   66     -1.80      0.00
    6   20   66     15.63      0.00
    8   20   66      0.62      0.00
   10   20   66     -4.81      0.00
   12   20   66      1.87      0.00
   14   20   66     -0.60      0.00
   16   20   66      2.89      0.00
   18   20   66      3.99      0.00
   20   20   66    -12.93      0.00
    0   22   66      8.16      0.00
    2   22   66      1.92      0.00
    4   22   66     -6.89      0.00
    6   22   66     -8.08      0.00
    8   22   66      2.78      0.00
   10   22   66     12.57      0.00
   12   22   66      3.24      0.00
   14   22   66      3.59      0.00
   16   22   66      8.83      0.00
   18   22   66      5.08      0.00
   20   22   66      9.31      0.00
   22   22   66      5.84      0.00
    0   24   66      9.26      0.00
    2   24   66     -7.31      0.00
    4   24   66    -22.89      0.00
    6   24   66     -2.78      0.00
    8   24   66     -8.57      0.00
   10   24   66      0.61      0.00
   12   24   66     10.24      0.00
   14   24   66      5.89      0.00
   16   24   66      6.47      0.00
   18   24   66     11.10      0.00
   20   24   66      3.57      0.00
    0   26   66     11.43      0.00
    2   26   66     -4.68      0.00
    4   26   66     -6.01      0.00
    6   26   66      1.17      0.00
    8   26   66      1.38      0.00
   10   26   66     -0.94      0.00
   12   26   66      9.41      0.00
   14   26   66      1.45      0.00
   16   26   66     -2.03      0.00
   18   26   66      2.75      0.00
    0   28   66      0.87      0.00
    2   28   66      0.56      0.00
    4   28   66      0.94      0.00
    6   28   66    -16.49      0.00
    8   28   66    -11.01      0.00
   10   28   66     -5.59      0.00
   12   28   66     -1.57      0.00
   14   28   66     -9.19      0.00
    0   30   66     -2.89      0.00
    2   30   66    -10.18      0.00
    4   30   66      8.23      0.00
    6   30   66     -5.50      0.00
    8   30   66     -8.67      0.00
   10   30   66      5.67      0.00
    1    3   67      7.78      0.00
    1    5   67     12.76      0.00
    3    5   67     -2.82      0.00
    1    7   67     -8.16      0.00
    3    7   67     -8.12      0.00
    5    7   67     13.12      0.00
    1    9   67     -8.13      0.00
    3    9   67     -2.34      0.00
    5    9   67     12.46      0.00
    7    9   67      6.78      0.00
    1   11   67     -9.13      0.00
    3   11   67     -4.87      0.00
    5   11   67     13.14      0.00
    7   11   67      0.23      0.00
    9   11   67     -4.27      0.00
    1   13   67      1.35      0.00
    3   13   67     -1.21      0.00
    5   13   67     10.35      0.00
    7   13   67      7.95      0.00
    9   13   67      3.43      0.00
   11   13   67      5.80      0.00
    1   15   67     -2.02      0.00
    3   15   67     -8.30      0.00
    5   15   67      0.08      0.00
    7   15   67      3.43      0.00
    9   15   67      9.78      0.00
   11   15   67      4.80      0.00
   13   15   67     -5.62      0.00
    1   17   67      5.70      0.00
    3   17   67     -5.46      0.00
    5   17   67      7.60      0.00
    7   17   67      2.03      0.00
    9   17   67      7.77      0.00
   11   17   67      2.54      0.00
   13   17   67      0.39      0.00
   15   17   67     -7.43      0.00
    1   19   67     -5.08      0.00
    3   19   67     10.05      0.00
    5   19   67     13.50      0.00
    7   19   67      2.44      0.00
    9   19   67     -2.97      0.00
   11   19   67      2.89      0.00
   13   19   67     -9.47      0.00
   15   19   67     -1.22      0.00
   17   19   67      6.80      0.00
    1   21   67     -5.47      0.00
    3   21   67      7.68      0.00
    5   21   67     -5.84      0.00
    7   21   67      3.26      0.00
    9   21   67     11.47      0.00
   11   21   67      1.95      0.00
   13   21   67     -1.26      0.00
   15   21   67      1.82      0.00
   17   21   67      9.35      0.00
   19   21   67      1.33      0.00
    1   23   67    -17.94      0.00
    3   23   67     -3.17      0.00
    5   23   67     -1.24      0.00
    7   23   67      2.35      0.00
    9   23   67      5.95      0.00
   11   23   67      3.12      0.00
   13   23   67     -5.12      0.00
   15   23   67    -13.30      0.00
   17   23   67      4.27      0.00
    1   25   67    -11.16      0.00
    3   25   67      1.50      0.00
    5   25   67     -5.32      0.00
    7   25   67     -1.69      0.00
    9   25   67     -2.61      0.00
   11   25   67     -0.25      0.00
   13   25   67     -4.60      0.00
   15   25   67     -0.73      0.00
    1   27   67     -0.64      0.00
    3   27   67     -7.43      0.00
    5   27   67      2.55      0.00
    7   27   67     -0.99      0.00
    9   27   67     10.88      0.00
   11   27   67     -2.34      0.00
    1   29   67     -3.77      0.00
    3   29   67     -0.47      0.00
    5   29   67     -8.92      0.00
    0    0   68     49.20      0.00
    0    2   68     11.64      0.00
    2    2   68      4.55      0.00
    0    4   68     -9.21      0.00
    2    4   68      0.22      0.00
    4    4   68     -9.72      0.00
    0    6   68     15.38      0.00
    2    6   68      2.34      0.00
    4    6   68     -0.24      0.00
    6    6   68     -2.85      0.00
    0    8   68     -4.41      0.00
    2    8   68      7.83      0.00
    4    8   68     12.60      0.00
    6    8   68     10.55      0.00
    8    8   68     22.17      0.00
    0   10   68     -8.69      0.00
    2   10   68      5.00      0.00
    4   10   68     12.04      0.00
    6   10   68      8.63      0.00
    8   10   68     14.74      0.00
   10   10   68    -17.49      0.00
    0   12   68    -17.37      0.00
    2   12   68     -3.60      0.00
    4   12   68     22.17      0.00
    6   12   68      9.66      0.00
    8   12   68      1.37      0.00
   10   12   68      6.01      0.00
   12   12   68    -25.34      0.00
    0   14   68    -43.13      0.00
    2   14   68    -12.84      0.00
    4   14   68    -14.79      0.00
    6   14   68      9.08      0.00
    8   14   68      0.43      0.00
   10   14   68     -8.29      0.00
   12   14   68     -7.14      0.00
   14   14   68     -8.37      0.00
    0   16   68     10.11      0.00
    2   16   68      0.96      0.00
    4   16   68     -0.70      0.00
    6   16   68     -4.02      0.00
    8   16   68     -5.20      0.00
   10   16   68     -5.67      0.00
   12   16   68      0.33      0.00
   14   16   68      0.33      0.00
   16   16   68     -9.34      0.00
    0   18   68      2.04      0.00
    2   18   68     -2.81      0.00
    4   18   68     -6.10      0.00
    6   18   68     -5.73      0.00
    8   18   68      0.66      0.00
   10   18   68     -7.75      0.00
   12   18   68      9.23      0.00
   14   18   68     -3.86      0.00
   16   18   68     -5.49      0.00
   18   18   68      9.15      0.00
    0   20   68     -0.15      0.00
    2   20   68     -0.86      0.00
    4   20   68      6.71      0.00
    6   20   68     -4.47      0.00
    8   20   68      3.35      0.00
   10   20   68      2.20      0.00
   12   20   68      6.56      0.00
   14   20   68      8.80      0.00
   16   20   68      2.96      0.00
   18   20   68     -7.61      0.00
    0   22   68     -2.02      0.00
    2   22   68      0.95      0.00
    4   22   68     -4.05      0.00
    6   22   68     -7.98      0.00
    8   22   68     -0.60      0.00
   10   22   68      8.15      0.00
   12   22   68      2.49      0.00
   14   22   68      0.65      0.00
    0   24   68      6.12      0.00
    2   24   68     14.50      0.00
    4   24   68     -0.07      0.00
    6   24   68      5.00      0.00
    8   24   68     11.20      0.00
   10   24   68      4.34      0.00
   12   24   68     -0.39      0.00
    0   26   68      0.96      0.00
    2   26   68      4.93      0.00
    4   26   68     -4.02      0.00
    6   26   68     15.19      0.00
    1    3   69     -8.14      0.00
    1    5   69     -4.19      0.00
    3    5   69      5.34      0.00
    1    7   69     -6.20      0.00
    3    7   69     -3.62      0.00
    5    7   69      6.00      0.00
    1    9   69    -17.49      0.00
    3    9   69     -1.09      0.00
    5    9   69      8.95      0.00
    7    9   69      1.70      0.00
    1   11   69     -0.56      0.00
    3   11   69      3.80      0.00
    5   11   69      9.94      0.00
    7   11   69     -3.01      0.00
    9   11   69     -3.74      0.00
    1   13   69      3.17      0.00
    3   13   69     17.78      0.00
    5   13   69     -2.78      0.00
    7   13   69      4.65      0.00
    9   13   69      4.97      0.00
   11   13   69     -1.28      0.00
    1   15   69      6.44      0.00
    3   15   69     -2.12      0.00
    5   15   69     -0.41      0.00
    7   15   69    -10.58      0.00
    9   15   69      1.04      0.00
   11   15   69    -13.60      0.00
   13   15   69      0.20      0.00
    1   17   69     -8.51      0.00
    3   17   69     -2.28      0.00
    5   17   69     -3.06      0.00
    7   17   69     -8.77      0.00
    9   17   69     -1.68      0.00
   11   17   69     -5.78      0.00
   13   17   69      1.50      0.00
   15   17   69      8.30      0.00
    1   19   69     -4.21      0.00
    3   19   69     -3.23      0.00
    5   19   69     -4.74      0.00
    7   19   69      4.30      0.00
    9   19   69      3.11      0.00
   11   19   69    -18.38      0.00
   13   19   69      8.30      0.00
   15   19   69      2.35      0.00
    1   21   69      7.65      0.00
    3   21   69      3.68      0.00
    5   21   69      2.45      0.00
    7   21   69     11.46      0.00
    9   21   69     -2.38      0.00
   11   21   69      3.96      0.00
    1   23   69      2.69      0.00
    3   23   69     11.69      0.00
    5   23   69     -5.54      0.00
    7   23   69      6.73      0.00
    0    0   70     24.72      0.00
    0    2   70     21.24      0.00
    2    2   70      8.65      0.00
    0    4   70    -13.55      0.00
    2    4   70     15.83      0.00
    4    4   70     -2.47      0.00
    0    6   70    -10.78      0.00
    2    6   70     -6.05      0.00
    4    6   70    -14.00      0.00
    6    6   70    -19.44      0.00
    0    8   70      5.83      0.00
    2    8   70      3.94      0.00
    4    8   70     -1.20      0.00
    6    8   70      3.35      0.00
    8    8   70     27.97      0.00
    0   10   70     14.44      0.00
    2   10   70     23.88      0.00
    4   10   70     -5.01      0.00
    6   10   70     -7.72      0.00
    8   10   70      4.02      0.00
   10   10   70      8.21      0.00
    0   12   70     -8.67      0.00
    2   12   70      8.04      0.00
    4   12   70     -6.96      0.00
    6   12   70      1.39      0.00
    8   12   70     -0.03      0.00
   10   12   70    -12.13      0.00
   12   12   70      7.28      0.00
    0   14   70    -10.32      0.00
    2   14   70      6.15      0.00
    4   14   70     -3.00      0.00
    6   14   70      3.52      0.00
    8   14   70     -6.59      0.00
   10   14   70     -7.67      0.00
   12   14   70      3.29      0.00
   14   14   70     -4.64      0.00
    0   16   70      4.13      0.00
    2   16   70      7.47      0.00
    4   16   70      7.54      0.00
    6   16   70      1.70      0.00
    8   16   70    -14.80      0.00
   10   16   70      2.39      0.00
   12   16   70     14.23      0.00
   14   16   70      0.87      0.00
    0   18   70    -14.12      0.00
    2   18   70     -2.76      0.00
    4   18   70     -0.64      0.00
    6   18   70     -4.92      0.00
    8   18   70      3.07      0.00
   10   18   70     -9.64      0.00
    0   20   70     -6.74      0.00
    2   20   70     -8.39      0.00
    4   20   70     18.42      0.00
    6   20   70      8.73      0.00
    1    3   71     -5.05      0.00
    1    5   71     -7.05      0.00
    3    5   71      0.07      0.00
    1    7   71     -5.16      0.00
    3    7   71     -4.18      0.00
    5    7   71     -6.57      0.00
    1    9   71     -5.60      0.00
    3    9   71      8.06      0.00
    5    9   71     -0.74      0.00
    7    9   71      2.23      0.00
    1   11   71     -3.06      0.00
    3   11   71     12.80      0.00
    5   11   71    -10.12      0.00
    7   11   71     -1.47      0.00
    9   11   71    -11.21      0.00
    1   13   71     -8.88      0.00
    3   13   71    -15.86      0.00
    5   13   71     -1.41      0.00
    7   13   71      3.72      0.00
    9   13   71      2.43      0.00
   11   13   71     -1.78      0.00
    1   15   71      0.67      0.00
    3   15   71     15.45      0.00
    5   15   71      5.77      0.00
    7   15   71     17.24      0.00
    9   15   71     17.71      0.00
    1   17   71      5.32      0.00
    3   17   71     -7.89      0.00
    5   17   71     -1.62      0.00
    0    0   72     26.28      0.00
    0    2   72      3.53      0.00
    2    2   72     21.91      0.00
    0    4   72     13.11      0.00
    2    4   72      0.38      0.00
    4    4   72      4.55      0.00
    0    6   72      2.20      0.00
    2    6   72      5.21      0.00
    4    6   72     -5.09      0.00
    6    6   72     -0.48      0.00
    0    8   72     -7.79      0.00
    2    8   72      6.76      0.00
    4    8   72      1.66      0.00
    6    8   72     -0.47      0.00
    8    8   72     12.20      0.00
    0   10   72     -7.85      0.00
    2   10   72      1.71      0.00
    4   10   72     -2.74      0.00
    6   10   72      7.02      0.00
    8   10   72      6.42      0.00
    0   12   72    -23.91      0.00
    2   12   72      1.11      0.00
    4   12   72     -6.02      0.00
    1    3   73      6.65      0.00
    1    5   73      5.01      0.00
    0    0    2    787.64      0.00
    0    2    2    298.54      0.00
    2    2    2   -568.31      0.00
    0    0    4    -10.40      0.00
    0    2    4   -190.28      0.00
    2    2    4    212.27      0.00
   39   43   45      3.40      0.00
   34   46   46     12.40      0.00
   39   41   47      4.63      0.00
   37   43   47     -3.08      0.00
   36   42   48     -9.83      0.00
   34   44   48     -0.08      0.00
   32   46   48    -11.14      0.00
   28   48   48      4.91      0.00
   31   45   49      9.66      0.00
   38   38   50      8.27      0.00
   36   40   50      8.50      0.00
   34   42   50      9.05      0.00
   28   46   50      5.53      0.00
   24   48   50      2.90      0.00
   20   50   50      1.05      0.00
   33   41   51     -5.16      0.00
   31   43   51     -3.90      0.00
   25   47   51     -2.27      0.00
   19   49   51    -11.50      0.00
   21   49   51      6.80      0.00
   36   38   52     -8.97      0.00
   30   42   52     -3.56      0.00
   28   44   52      7.29      0.00
   24   46   52      3.85      0.00
   20   48   52     -5.25      0.00
   14   50   52     -7.42      0.00
    0   52   52     -0.72      0.00
    2   52   52    -19.93      0.00
    4   52   52    -14.55      0.00
    6   52   52     -9.05      0.00
   35   37   53    -13.87      0.00
   33   39   53     -5.90      0.00
   27   43   53      5.58      0.00
   23   45   53     -3.91      0.00
   19   47   53      5.69      0.00
   13   49   53    -15.88      0.00
   15   49   53      2.68      0.00
    1   51   53     -1.76      0.00
    3   51   53    -14.08      0.00
    5   51   53      2.45      0.00
   34   36   54     -0.55      0.00
   32   38   54      3.35      0.00
   30   40   54     -8.90      0.00
   24   44   54      6.05      0.00
   20   46   54      5.21      0.00
   12   48   54     -2.51      0.00
   14   48   54     -7.48      0.00
    0   50   54      9.85      0.00
    2   50   54     -4.53      0.00
    4   50   54     -0.32      0.00
   29   39   55      6.96      0.00
   27   41   55      2.54      0.00
   23   43   55     -0.61      0.00
   19   45   55     14.27      0.00
   13   47   55    -15.97      0.00
    1   49   55      5.22      0.00
    3   49   55      3.29      0.00
   28   38   56      2.84      0.00
   26   40   56     -0.50      0.00
   22   42   56    -11.01      0.00
   18   44   56     -2.05      0.00
   12   46   56     10.82      0.00
    0   48   56      7.48      0.00
    2   48   56    -10.57      0.00
   31   35   57      1.68      0.00
   25   39   57      0.36      0.00
   21   41   57     -6.93      0.00
   17   43   57      4.97      0.00
   11   45   57      2.31      0.00
   13   45   57     -3.27      0.00
   32   32   58     12.09      0.00
   30   34   58      1.29      0.00
   28   36   58      6.22      0.00
   24   38   58      8.92      0.00
   20   40   58     -8.43      0.00
   16   42   58      7.96      0.00
    8   44   58      0.20      0.00
   10   44   58      2.33      0.00
   12   44   58     -6.18      0.00
   29   33   59     -8.93      0.00
   27   35   59     -3.27      0.00
   23   37   59      5.60      0.00
   19   39   59      1.33      0.00
   21   39   59     -7.03      0.00
   15   41   59     -2.46      0.00
    7   43   59     -1.28      0.00
    9   43   59      4.92      0.00
   30   30   60     -2.80      0.00
   28   32   60     -2.30      0.00
   26   34   60     -6.75      0.00
   22   36   60     -2.90      0.00
   18   38   60     -4.97      0.00
   20   38   60      6.82      0.00
   14   40   60     -9.87      0.00
    0   42   60      1.13      0.00
    2   42   60     -1.53      0.00
    4   42   60      3.56      0.00
    6   42   60    -12.48      0.00
    8   42   60     -0.33      0.00
   27   31   61     17.70      0.00
   25   33   61     -6.00      0.00
   21   35   61     -6.68      0.00
   17   37   61     -8.64      0.00
   11   39   61    -19.90      0.00
   13   39   61    -14.29      0.00
    1   41   61      2.34      0.00
    3   41   61      5.05      0.00
    5   41   61     -8.41      0.00
   28   28   62     16.19      0.00
   26   30   62     14.04      0.00
   24   32   62      4.63      0.00
   20   34   62      6.53      0.00
   16   36   62     -1.65      0.00
   10   38   62     -2.22      0.00
   12   38   62      1.92      0.00
    0   40   62     10.86      0.00
   25   29   63    -16.44      0.00
   21   31   63     -9.95      0.00
   19   33   63     10.19      0.00
   13   35   63     -0.72      0.00
   15   35   63      9.61      0.00
    5   37   63     -6.61      0.00
    7   37   63     -0.15      0.00
    9   37   63      5.84      0.00
   22   28   64      5.16      0.00
   20   30   64     -1.10      0.00
   16   32   64      0.64      0.00
   18   32   64      1.12      0.00
   12   34   64      0.32      0.00
    0   36   64     -6.94      0.00
    2   36   64      5.25      0.00
    4   36   64      0.06      0.00
    6   36   64     -4.31      0.00
   23   25   65     -6.74      0.00
   21   27   65      5.33      0.00
   19   29   65     -6.24      0.00
   15   31   65     -0.99      0.00
    7   33   65     10.65      0.00
    9   33   65     -9.21      0.00
   11   33   65    -15.38      0.00
   22   24   66      5.66      0.00
   20   26   66     -2.30      0.00
   16   28   66     -0.18      0.00
   12   30   66     -9.30      0.00
    0   32   66    -17.58      0.00
    2   32   66     -5.73      0.00
    4   32   66      0.15      0.00
    6   32   66      0.46      0.00
    8   32   66     -6.40      0.00
   19   23   67     18.00      0.00
   17   25   67      5.60      0.00
   13   27   67     -4.94      0.00
   15   27   67      1.80      0.00
    7   29   67     -3.55      0.00
    9   29   67     -2.76      0.00
   20   20   68     -2.06      0.00
   16   22   68      3.60      0.00
   18   22   68     16.48      0.00
   14   24   68    -10.14      0.00
    8   26   68     21.56      0.00
   10   26   68      2.09      0.00
   12   26   68     -7.10      0.00
    0   28   68      5.37      0.00
    2   28   68    -15.00      0.00
    4   28   68     -8.40      0.00
    6   28   68     -1.38      0.00
   17   19   69      1.89      0.00
   13   21   69      1.72      0.00
   15   21   69      6.73      0.00
    9   23   69      0.55      0.00
   11   23   69     -0.94      0.00
    1   25   69     14.91      0.00
    3   25   69     -2.67      0.00
    5   25   69      1.10      0.00
    7   25   69      3.59      0.00
   16   16   70     -5.88      0.00
   12   18   70      6.74      0.00
   14   18   70     10.40      0.00
    8   20   70     10.95      0.00
   10   20   70    -10.11      0.00
   12   20   70     10.75      0.00
    0   22   70    -21.75      0.00
    2   22   70     -3.23      0.00
    4   22   70     10.89      0.00
    6   22   70      4.19      0.00
   11   15   71     -2.96      0.00
   13   15   71     -0.54      0.00
    7   17   71      9.16      0.00
    9   17   71      4.99      0.00
    1   19   71     13.13      0.00
    3   19   71     -1.49      0.00
    5   19   71     -9.29      0.00
   10   10   72     -1.86      0.00
    6   12   72      5.48      0.00
    8   12   72      0.31      0.00
   10   12   72      7.02      0.00
    0   14   72     10.24      0.00
    2   14   72      4.99      0.00
    4   14   72      0.36      0.00
    6   14   72     12.29      0.00
    8   14   72    -13.42      0.00
    0   16   72     -4.42      0.00
    2   16   72     -6.91      0.00
    3    5   73     -5.14      0.00
    1    7   73      2.64      0.00
    3    7   73      4.58      0.00
    5    7   73     -4.90      0.00
    1    9   73     -8.60      0.00
    3    9   73     -6.47      0.00
    5    9   73     -3.61      0.00
    0    0    0      0.00      0.00
# SQUEEZE RESULTS (Version = 291119)
# Note: Data are Listed for all Voids in the P1 Unit Cell
# i.e. Centre of Gravity, Solvent Accessible Volume,
# Recovered number of Electrons in the Void and
# Details about the Squeezed Material
loop_
  _platon_squeeze_void_nr
  _platon_squeeze_void_average_x
  _platon_squeeze_void_average_y
  _platon_squeeze_void_average_z
  _platon_squeeze_void_volume
  _platon_squeeze_void_count_electrons
  _platon_squeeze_void_content
   1 -0.288  0.115  0.047    116800      3199 ' '
   2  0.250  0.250  0.250      2629        65 ' '
   3  0.750  0.250  0.250      2629        65 ' '
   4  0.250  0.250  0.750      2629        65 ' '
   5  0.750  0.250  0.750      2629        65 ' '
   6  0.250  0.750  0.250      2261        53 ' '
   7  0.750  0.750  0.250      2264        53 ' '
   8  0.250  0.750  0.750      2261        53 ' '
   9  0.750  0.750  0.750      2264        53 ' '
# Missing Reflections Below sin(th)/lambda = 0.25
loop_
  _platon_missing_refln_index_h
  _platon_missing_refln_index_k
  _platon_missing_refln_index_l
  _platon_missing_refln_theta
    0    0    2     0.670
    0    2    2     0.948
    2    2    2     1.161
    0    0    4     1.341
    0    2    4     1.499
    2    2    4     1.642
_platon_squeeze_void_probe_radius                  1.20
_platon_squeeze_details
)
TITL 91120A           F m -3 c     R = 0.05
CELL  0.71073   60.7581   60.7581   60.7581    90.000    90.000    90.000
SPGR  Fm-3c
)
;
_shelx_fab_checksum              90138
loop_
_space_group_symop_operation_xyz
'x, y, z'
'-x, -y, z'
'-x, y, -z'
'x, -y, -z'
'z, x, y'
'z, -x, -y'
'-z, -x, y'
'-z, x, -y'
'y, z, x'
'-y, z, -x'
'y, -z, -x'
'-y, -z, x'
'y+1/2, x+1/2, -z+1/2'
'-y+1/2, -x+1/2, -z+1/2'
'y+1/2, -x+1/2, z+1/2'
'-y+1/2, x+1/2, z+1/2'
'x+1/2, z+1/2, -y+1/2'
'-x+1/2, z+1/2, y+1/2'
'-x+1/2, -z+1/2, -y+1/2'
'x+1/2, -z+1/2, y+1/2'
'z+1/2, y+1/2, -x+1/2'
'z+1/2, -y+1/2, x+1/2'
'-z+1/2, y+1/2, x+1/2'
'-z+1/2, -y+1/2, -x+1/2'
'x, y+1/2, z+1/2'
'-x, -y+1/2, z+1/2'
'-x, y+1/2, -z+1/2'
'x, -y+1/2, -z+1/2'
'z, x+1/2, y+1/2'
'z, -x+1/2, -y+1/2'
'-z, -x+1/2, y+1/2'
'-z, x+1/2, -y+1/2'
'y, z+1/2, x+1/2'
'-y, z+1/2, -x+1/2'
'y, -z+1/2, -x+1/2'
'-y, -z+1/2, x+1/2'
'y+1/2, x+1, -z+1'
'-y+1/2, -x+1, -z+1'
'y+1/2, -x+1, z+1'
'-y+1/2, x+1, z+1'
'x+1/2, z+1, -y+1'
'-x+1/2, z+1, y+1'
'-x+1/2, -z+1, -y+1'
'x+1/2, -z+1, y+1'
'z+1/2, y+1, -x+1'
'z+1/2, -y+1, x+1'
'-z+1/2, y+1, x+1'
'-z+1/2, -y+1, -x+1'
'x+1/2, y, z+1/2'
'-x+1/2, -y, z+1/2'
'-x+1/2, y, -z+1/2'
'x+1/2, -y, -z+1/2'
'z+1/2, x, y+1/2'
'z+1/2, -x, -y+1/2'
'-z+1/2, -x, y+1/2'
'-z+1/2, x, -y+1/2'
'y+1/2, z, x+1/2'
'-y+1/2, z, -x+1/2'
'y+1/2, -z, -x+1/2'
'-y+1/2, -z, x+1/2'
'y+1, x+1/2, -z+1'
'-y+1, -x+1/2, -z+1'
'y+1, -x+1/2, z+1'
'-y+1, x+1/2, z+1'
'x+1, z+1/2, -y+1'
'-x+1, z+1/2, y+1'
'-x+1, -z+1/2, -y+1'
'x+1, -z+1/2, y+1'
'z+1, y+1/2, -x+1'
'z+1, -y+1/2, x+1'
'-z+1, y+1/2, x+1'
'-z+1, -y+1/2, -x+1'
'x+1/2, y+1/2, z'
'-x+1/2, -y+1/2, z'
'-x+1/2, y+1/2, -z'
'x+1/2, -y+1/2, -z'
'z+1/2, x+1/2, y'
'z+1/2, -x+1/2, -y'
'-z+1/2, -x+1/2, y'
'-z+1/2, x+1/2, -y'
'y+1/2, z+1/2, x'
'-y+1/2, z+1/2, -x'
'y+1/2, -z+1/2, -x'
'-y+1/2, -z+1/2, x'
'y+1, x+1, -z+1/2'
'-y+1, -x+1, -z+1/2'
'y+1, -x+1, z+1/2'
'-y+1, x+1, z+1/2'
'x+1, z+1, -y+1/2'
'-x+1, z+1, y+1/2'
'-x+1, -z+1, -y+1/2'
'x+1, -z+1, y+1/2'
'z+1, y+1, -x+1/2'
'z+1, -y+1, x+1/2'
'-z+1, y+1, x+1/2'
'-z+1, -y+1, -x+1/2'
'-x, -y, -z'
'x, y, -z'
'x, -y, z'
'-x, y, z'
'-z, -x, -y'
'-z, x, y'
'z, x, -y'
'z, -x, y'
'-y, -z, -x'
'y, -z, x'
'-y, z, x'
'y, z, -x'
'-y-1/2, -x-1/2, z-1/2'
'y-1/2, x-1/2, z-1/2'
'-y-1/2, x-1/2, -z-1/2'
'y-1/2, -x-1/2, -z-1/2'
'-x-1/2, -z-1/2, y-1/2'
'x-1/2, -z-1/2, -y-1/2'
'x-1/2, z-1/2, y-1/2'
'-x-1/2, z-1/2, -y-1/2'
'-z-1/2, -y-1/2, x-1/2'
'-z-1/2, y-1/2, -x-1/2'
'z-1/2, -y-1/2, -x-1/2'
'z-1/2, y-1/2, x-1/2'
'-x, -y+1/2, -z+1/2'
'x, y+1/2, -z+1/2'
'x, -y+1/2, z+1/2'
'-x, y+1/2, z+1/2'
'-z, -x+1/2, -y+1/2'
'-z, x+1/2, y+1/2'
'z, x+1/2, -y+1/2'
'z, -x+1/2, y+1/2'
'-y, -z+1/2, -x+1/2'
'y, -z+1/2, x+1/2'
'-y, z+1/2, x+1/2'
'y, z+1/2, -x+1/2'
'-y-1/2, -x, z'
'y-1/2, x, z'
'-y-1/2, x, -z'
'y-1/2, -x, -z'
'-x-1/2, -z, y'
'x-1/2, -z, -y'
'x-1/2, z, y'
'-x-1/2, z, -y'
'-z-1/2, -y, x'
'-z-1/2, y, -x'
'z-1/2, -y, -x'
'z-1/2, y, x'
'-x+1/2, -y, -z+1/2'
'x+1/2, y, -z+1/2'
'x+1/2, -y, z+1/2'
'-x+1/2, y, z+1/2'
'-z+1/2, -x, -y+1/2'
'-z+1/2, x, y+1/2'
'z+1/2, x, -y+1/2'
'z+1/2, -x, y+1/2'
'-y+1/2, -z, -x+1/2'
'y+1/2, -z, x+1/2'
'-y+1/2, z, x+1/2'
'y+1/2, z, -x+1/2'
'-y, -x-1/2, z'
'y, x-1/2, z'
'-y, x-1/2, -z'
'y, -x-1/2, -z'
'-x, -z-1/2, y'
'x, -z-1/2, -y'
'x, z-1/2, y'
'-x, z-1/2, -y'
'-z, -y-1/2, x'
'-z, y-1/2, -x'
'z, -y-1/2, -x'
'z, y-1/2, x'
'-x+1/2, -y+1/2, -z'
'x+1/2, y+1/2, -z'
'x+1/2, -y+1/2, z'
'-x+1/2, y+1/2, z'
'-z+1/2, -x+1/2, -y'
'-z+1/2, x+1/2, y'
'z+1/2, x+1/2, -y'
'z+1/2, -x+1/2, y'
'-y+1/2, -z+1/2, -x'
'y+1/2, -z+1/2, x'
'-y+1/2, z+1/2, x'
'y+1/2, z+1/2, -x'
'-y, -x, z-1/2'
'y, x, z-1/2'
'-y, x, -z-1/2'
'y, -x, -z-1/2'
'-x, -z, y-1/2'
'x, -z, -y-1/2'
'x, z, y-1/2'
'-x, z, -y-1/2'
'-z, -y, x-1/2'
'-z, y, -x-1/2'
'z, -y, -x-1/2'
'z, y, x-1/2'
loop_
_atom_site_label
_atom_site_type_symbol
_atom_site_fract_x
_atom_site_fract_y
_atom_site_fract_z
_atom_site_U_iso_or_equiv
_atom_site_adp_type
_atom_site_occupancy
_atom_site_site_symmetry_order
_atom_site_calc_flag
_atom_site_refinement_flags_posn
_atom_site_refinement_flags_adp
_atom_site_refinement_flags_occupancy
_atom_site_disorder_assembly
_atom_site_disorder_group
C1 C 0.30466(4) 0.95030(4) 0.28615(4) 0.0294(6) Uani 1 1 d . . . . .
C2 C 0.31681(4) 0.93140(4) 0.29390(4) 0.0298(5) Uani 1 1 d . . . . .
C3 C 0.30998(4) 0.92056(4) 0.31297(4) 0.0307(5) Uani 1 1 d . . . . .
H3 H 0.297651 0.925413 0.320629 0.037 Uiso 1 1 calc R U . . .
C4 C 0.32187(4) 0.90233(4) 0.32045(4) 0.0311(5) Uani 1 1 d . . . . .
H4 H 0.317481 0.895119 0.333221 0.037 Uiso 1 1 calc R U . . .
C5 C 0.33992(4) 0.89503(4) 0.30912(4) 0.0297(5) Uani 1 1 d . . . . .
C6 C 0.34668(4) 0.90551(4) 0.28999(4) 0.0310(6) Uani 1 1 d . . . . .
H6 H 0.358900 0.900409 0.282319 0.037 Uiso 1 1 calc R U . . .
C7 C 0.33499(4) 0.92380(4) 0.28233(4) 0.0305(6) Uani 1 1 d . . . . .
H7 H 0.339399 0.930873 0.269490 0.037 Uiso 1 1 calc R U . . .
C8 C 0.35022(4) 0.86286(4) 0.33294(4) 0.0296(5) Uani 1 1 d . . . . .
C9 C 0.250000 0.91618(7) 0.250000 0.0266(10) Uani 1 4 d S T P . .
H9A H 0.264490 0.911042 0.246540 0.040 Uiso 0.125 1 d R U P A 1
H9B H 0.239760 0.911042 0.239180 0.040 Uiso 0.125 1 d R U P A 1
H9C H 0.245750 0.911042 0.264280 0.040 Uiso 0.125 1 d R U P A 1
H9D H 0.258250 0.911042 0.262400 0.040 Uiso 0.125 1 d R U P B 2
H9E H 0.256620 0.911042 0.236650 0.040 Uiso 0.125 1 d R U P B 2
H9F H 0.235130 0.911042 0.250940 0.040 Uiso 0.125 1 d R U P B 2
C10 C 0.250000 0.93952(8) 0.250000 0.0280(10) Uani 1 4 d S T P . .
C11 C 0.39728(4) 0.87612(4) 0.29401(4) 0.0326(6) Uani 1 1 d . . . . .
H11A H 0.392765 0.866703 0.305865 0.049 Uiso 1 1 calc R U . . .
H11B H 0.399074 0.890870 0.299392 0.049 Uiso 1 1 calc R U . . .
H11C H 0.410997 0.870963 0.288111 0.049 Uiso 1 1 calc R U . . .
C12 C 0.38096(4) 0.87588(4) 0.27720(4) 0.0340(6) Uani 1 1 d . . . . .
Cl1 Cl 0.33110(2) 1.000000 0.23396(2) 0.03068(19) Uani 1 2 d S T P C .
Cl2 Cl 0.250000 1.000000 0.250000 0.0288(4) Uani 1 8 d S T P . .
Cl3 Cl 0.32267(2) 0.82267(2) 0.250000 0.03209(19) Uani 1 2 d S T P . .
Cl4 Cl 0.32045(2) 0.88619(2) 0.23889(2) 0.03671(17) Uani 0.875 1 d . . P . .
O3W O 0.32045(2) 0.88619(2) 0.23889(2) 0.03671(17) Uani 0.125 1 d . . P . .
H3WA H 0.315028 0.888315 0.226168 0.055 Uiso 0.125 1 d R U P . .
H3WB H 0.334298 0.884475 0.237828 0.055 Uiso 0.125 1 d R U P . .
Cu1 Cu 0.29109(2) 1.000000 0.24180(2) 0.02834(11) Uani 1 2 d S T P . .
Cu2 Cu 0.32678(2) 0.95758(2) 0.23492(2) 0.03117(9) Uani 1 1 d . . . . .
N1 N 0.30821(3) 0.96046(3) 0.26645(3) 0.0274(4) Uani 1 1 d . . . . .
N2 N 0.29406(3) 0.97703(3) 0.26657(3) 0.0263(4) Uani 1 1 d . . . . .
N3 N 0.28207(3) 0.97694(3) 0.28423(3) 0.0303(4) Uani 1 1 d . . . . .
N4 N 0.28789(3) 0.96040(3) 0.29746(3) 0.0266(4) Uani 1 1 d . . . . .
N5 N 0.35278(3) 0.87628(3) 0.31569(3) 0.0307(5) Uani 1 1 d . . . . .
N6 N 0.36526(3) 0.84662(3) 0.33293(3) 0.0316(5) Uani 1 1 d . . . . .
N7 N 0.250000 0.95876(6) 0.250000 0.0335(9) Uani 1 4 d S T P . .
N8 N 0.36749(3) 0.87591(3) 0.26355(3) 0.0360(5) Uani 1 1 d . . . . .
O1WA O 0.35983(17) 0.95037(11) 0.22798(16) 0.0326(17) Uani 0.5 1 d . . P C 1
H1W1 H 0.367482 0.963858 0.224972 0.049 Uiso 0.25 1 d R U P C 1
H1W3 H 0.366428 0.943233 0.240440 0.049 Uiso 0.25 1 d R U P C 1
H1W4 H 0.362276 0.934786 0.228892 0.049 Uiso 0.25 1 d R U P C 1
H1W6 H 0.363332 0.955409 0.213426 0.049 Uiso 0.25 1 d R U P C 1
O2WA O 0.31047(10) 0.92791(13) 0.24241(12) 0.0340(15) Uani 0.5 1 d . . P C 1
H2W2 H 0.320181 0.918457 0.250536 0.051 Uiso 0.25 1 d R U P C 1
H2W3 H 0.306176 0.920753 0.228989 0.051 Uiso 0.25 1 d R U P C 1
H2W5 H 0.295807 0.928330 0.236538 0.051 Uiso 0.25 1 d R U P C 1
H2W6 H 0.309812 0.926032 0.258085 0.051 Uiso 0.25 1 d R U P C 1
O1WB O 0.36131(16) 0.95854(10) 0.23097(16) 0.0262(14) Uani 0.5 1 d . . P C 2
H1W7 H 0.365773 0.973311 0.227569 0.039 Uiso 0.25 1 d R U P C 2
H1W9 H 0.368186 0.953927 0.244426 0.039 Uiso 0.25 1 d R U P C 2
H1WX H 0.367325 0.944107 0.233257 0.039 Uiso 0.25 1 d R U P C 2
H1WZ H 0.364913 0.963492 0.216400 0.039 Uiso 0.25 1 d R U P C 2
O2WB O 0.31688(9) 0.92447(11) 0.23660(10) 0.0288(13) Uani 0.5 1 d . . P C 2
H2W7 H 0.301319 0.923754 0.239259 0.043 Uiso 0.25 1 d R U P C 2
H2W8 H 0.324565 0.917223 0.248353 0.043 Uiso 0.25 1 d R U P C 2
H2WX H 0.329416 0.915103 0.234429 0.043 Uiso 0.25 1 d R U P C 2
H2WY H 0.306171 0.921633 0.225335 0.043 Uiso 0.25 1 d R U P C 2
loop_
_atom_site_aniso_label
_atom_site_aniso_U_11
_atom_site_aniso_U_22
_atom_site_aniso_U_33
_atom_site_aniso_U_23
_atom_site_aniso_U_13
_atom_site_aniso_U_12
C1 0.0321(14) 0.0247(13) 0.0313(14) -0.0064(10) -0.0155(11) 0.0080(10)
C2 0.0297(13) 0.0347(14) 0.0251(13) 0.0135(10) -0.0066(10) 0.0081(11)
C3 0.0294(13) 0.0317(13) 0.0311(13) 0.0122(10) 0.0118(10) 0.0137(10)
C4 0.0269(13) 0.0272(12) 0.0390(14) 0.0131(11) 0.0122(10) 0.0075(10)
C5 0.0314(13) 0.0285(13) 0.0291(13) 0.0166(10) 0.0088(10) 0.0077(10)
C6 0.0287(13) 0.0368(14) 0.0275(13) 0.0108(11) 0.0081(10) 0.0106(11)
C7 0.0279(13) 0.0331(14) 0.0306(13) 0.0129(11) 0.0054(10) 0.0114(10)
C8 0.0288(13) 0.0279(13) 0.0320(13) 0.0120(10) 0.0107(11) 0.0078(10)
C9 0.0249(15) 0.030(3) 0.0249(15) 0.000 0.000 0.000
C10 0.0266(16) 0.031(3) 0.0266(16) 0.000 0.000 0.000
C11 0.0307(14) 0.0319(14) 0.0351(14) 0.0144(11) 0.0098(11) 0.0093(11)
C12 0.0306(14) 0.0460(16) 0.0253(13) 0.0131(11) 0.0148(11) 0.0195(12)
Cl1 0.0308(4) 0.0332(4) 0.0280(4) 0.000 0.0090(3) 0.000
Cl2 0.0284(5) 0.0295(8) 0.0284(5) 0.000 0.000 0.000
Cl3 0.0318(3) 0.0318(3) 0.0327(4) 0.0105(3) -0.0105(3) -0.0108(3)
Cl4 0.0366(4) 0.0375(4) 0.0360(4) 0.0108(3) 0.0104(3) 0.0102(3)
O3W 0.0366(4) 0.0375(4) 0.0360(4) 0.0108(3) 0.0104(3) 0.0102(3)
Cu1 0.0284(2) 0.0287(2) 0.0280(2) 0.000 0.01007(17) 0.000
Cu2 0.03043(17) 0.03149(17) 0.03160(17) 0.00972(13) 0.00997(13) 0.00987(13)
N1 0.0248(10) 0.0284(11) 0.0291(11) -0.0087(9) -0.0060(8) -0.0009(8)
N2 0.0235(10) 0.0257(11) 0.0297(11) 0.0018(8) -0.0045(9) -0.0038(8)
N3 0.0320(11) 0.0326(11) 0.0261(11) -0.0101(9) -0.0064(9) 0.0084(9)
N4 0.0225(10) 0.0293(11) 0.0281(10) 0.0057(9) -0.0058(8) -0.0033(8)
N5 0.0274(11) 0.0346(11) 0.0301(11) 0.0106(9) 0.0135(9) 0.0118(9)
N6 0.0299(11) 0.0314(11) 0.0334(11) 0.0128(9) 0.0143(9) 0.0109(9)
N7 0.0365(15) 0.027(2) 0.0365(15) 0.000 0.000 0.000
N8 0.0407(12) 0.0296(11) 0.0378(12) 0.0117(9) -0.0151(10) -0.0128(9)
O1WA 0.029(3) 0.038(4) 0.031(4) 0.006(3) 0.007(2) 0.016(4)
O2WA 0.023(3) 0.035(3) 0.044(4) 0.009(2) 0.011(2) 0.008(2)
O1WB 0.020(2) 0.036(4) 0.023(3) -0.005(3) -0.0013(17) 0.006(3)
O2WB 0.025(3) 0.027(3) 0.034(3) 0.011(2) -0.018(2) -0.008(2)
loop_
_atom_type_symbol
_atom_type_description
_atom_type_scat_dispersion_real
_atom_type_scat_dispersion_imag
_atom_type_scat_source
C C 0.0033 0.0016 'International Tables Vol C Tables 4.2.6.8 and 6.1.1.4'
H H 0.0000 0.0000 'International Tables Vol C Tables 4.2.6.8 and 6.1.1.4'
N N 0.0061 0.0033 'International Tables Vol C Tables 4.2.6.8 and 6.1.1.4'
O O 0.0106 0.0060 'International Tables Vol C Tables 4.2.6.8 and 6.1.1.4'
Cl Cl 0.1484 0.1585 'International Tables Vol C Tables 4.2.6.8 and 6.1.1.4'
Cu Cu 0.3201 1.2651 'International Tables Vol C Tables 4.2.6.8 and 6.1.1.4'
loop_
_geom_angle_atom_site_label_1
_geom_angle_atom_site_label_2
_geom_angle_atom_site_label_3
_geom_angle
_geom_angle_site_symmetry_1
_geom_angle_site_symmetry_3
N1 C1 N4 110.74(18) . .
N1 C1 C2 124.4(2) . .
N4 C1 C2 124.8(2) . .
C7 C2 C3 120.0(2) . .
C7 C2 C1 120.4(2) . .
C3 C2 C1 119.6(2) . .
C2 C3 C4 119.4(2) . .
C2 C3 H3 120.3 . .
C4 C3 H3 120.3 . .
C5 C4 C3 120.5(2) . .
C5 C4 H4 119.8 . .
C3 C4 H4 119.8 . .
C4 C5 C6 120.6(2) . .
C4 C5 N5 123.53(19) . .
C6 C5 N5 115.8(2) . .
C5 C6 C7 119.6(2) . .
C5 C6 H6 120.2 . .
C7 C6 H6 120.2 . .
C2 C7 C6 120.0(2) . .
C2 C7 H7 120.0 . .
C6 C7 H7 120.0 . .
N5 C8 N6 111.59(19) . .
N5 C8 N6 120.5(2) . 29_554
N6 C8 N6 127.6(2) . 29_554
C10 C9 H9A 109.0 . .
C10 C9 H9B 109.0 . .
H9A C9 H9B 109.9 . .
C10 C9 H9C 109.0 . .
H9A C9 H9C 109.9 . .
H9B C9 H9C 109.9 . .
C10 C9 H9D 109.0 . .
C10 C9 H9E 109.0 . .
H9D C9 H9E 109.9 . .
C10 C9 H9F 109.0 . .
H9D C9 H9F 109.9 . .
H9E C9 H9F 109.9 . .
C10 C9 H9A 109.026(3) . 51
H9A C9 H9A 142.0 . 51
H9B C9 H9A 56.4 . 51
H9C C9 H9A 56.4 . 51
C10 C9 H9A 109.026(3) . 93_445
H9A C9 H9A 83.9 . 93_445
H9B C9 H9A 28.3 . 93_445
H9C C9 H9A 131.9 . 93_445
H9A C9 H9A 83.9 51 93_445
C10 C9 H9A 109.026(3) . 47_544
H9A C9 H9A 83.9 . 47_544
H9B C9 H9A 131.9 . 47_544
H9C C9 H9A 28.3 . 47_544
H9A C9 H9A 83.9 51 47_544
H9A C9 H9A 141.9 93_445 47_544
C10 C9 H9B 109.028(4) . 51
H9A C9 H9B 56.4 . 51
H9B C9 H9B 142.0 . 51
H9C C9 H9B 56.4 . 51
H9A C9 H9B 109.9 51 51
H9A C9 H9B 131.9 93_445 51
H9A C9 H9B 28.3 47_544 51
C10 C9 H9B 109.028(3) . 93_445
H9A C9 H9B 131.9 . 93_445
H9B C9 H9B 83.9 . 93_445
H9C C9 H9B 28.3 . 93_445
H9A C9 H9B 28.3 51 93_445
H9A C9 H9B 109.9 93_445 93_445
H9A C9 H9B 56.4 47_544 93_445
H9B C9 H9B 83.9 51 93_445
C10 C9 H9B 109.028(4) . 47_544
H9A C9 H9B 28.3 . 47_544
H9B C9 H9B 83.9 . 47_544
H9C C9 H9B 131.9 . 47_544
H9A C9 H9B 131.9 51 47_544
H9A C9 H9B 56.4 93_445 47_544
H9A C9 H9B 109.9 47_544 47_544
H9B C9 H9B 83.9 51 47_544
H9B C9 H9B 141.9 93_445 47_544
C10 C9 H9C 109.021(3) . 51
H9A C9 H9C 56.4 . 51
H9B C9 H9C 56.4 . 51
H9C C9 H9C 142.0 . 51
H9A C9 H9C 109.9 51 51
H9A C9 H9C 28.3 93_445 51
H9A C9 H9C 131.9 47_544 51
H9B C9 H9C 109.9 51 51
H9B C9 H9C 131.9 93_445 51
H9B C9 H9C 28.3 47_544 51
C10 C9 H9C 109.021(4) . 93_445
H9A C9 H9C 28.3 . 93_445
H9B C9 H9C 131.9 . 93_445
H9C C9 H9C 83.9 . 93_445
H9A C9 H9C 131.9 51 93_445
H9A C9 H9C 109.9 93_445 93_445
H9A C9 H9C 56.4 47_544 93_445
H9B C9 H9C 28.3 51 93_445
H9B C9 H9C 109.9 93_445 93_445
H9B C9 H9C 56.4 47_544 93_445
H9C C9 H9C 83.9 51 93_445
C10 C9 H9C 109.021(4) . 47_544
H9A C9 H9C 131.9 . 47_544
H9B C9 H9C 28.3 . 47_544
H9C C9 H9C 83.9 . 47_544
H9A C9 H9C 28.3 51 47_544
H9A C9 H9C 56.4 93_445 47_544
H9A C9 H9C 109.9 47_544 47_544
H9B C9 H9C 131.9 51 47_544
H9B C9 H9C 56.4 93_445 47_544
H9B C9 H9C 109.9 47_544 47_544
H9C C9 H9C 83.9 51 47_544
H9C C9 H9C 142.0 93_445 47_544
C10 C9 H9D 109.034(3) . 51
H9A C9 H9D 101.7 . 51
H9B C9 H9D 9.3 . 51
H9C C9 H9D 117.8 . 51
H9A C9 H9D 65.5 51 51
H9A C9 H9D 19.1 93_445 51
H9A C9 H9D 137.1 47_544 51
H9B C9 H9D 140.7 51 51
H9B C9 H9D 92.6 93_445 51
H9B C9 H9D 75.0 47_544 51
H9C C9 H9D 47.3 51 51
H9C C9 H9D 125.5 93_445 51
H9C C9 H9D 37.5 47_544 51
C10 C9 H9D 109.034(4) . 93_445
H9A C9 H9D 19.1 . 93_445
H9B C9 H9D 92.6 . 93_445
H9C C9 H9D 125.5 . 93_445
H9A C9 H9D 137.1 51 93_445
H9A C9 H9D 65.5 93_445 93_445
H9A C9 H9D 101.7 47_544 93_445
H9B C9 H9D 75.0 51 93_445
H9B C9 H9D 140.7 93_445 93_445
H9B C9 H9D 9.3 47_544 93_445
H9C C9 H9D 37.5 51 93_445
H9C C9 H9D 47.3 93_445 93_445
H9C C9 H9D 117.8 47_544 93_445
C10 C9 H9D 109.034(4) . 47_544
H9A C9 H9D 137.1 . 47_544
H9B C9 H9D 75.0 . 47_544
H9C C9 H9D 37.5 . 47_544
H9A C9 H9D 19.1 51 47_544
H9A C9 H9D 101.7 93_445 47_544
H9A C9 H9D 65.5 47_544 47_544
H9B C9 H9D 92.6 51 47_544
H9B C9 H9D 9.3 93_445 47_544
H9B C9 H9D 140.7 47_544 47_544
H9C C9 H9D 125.5 51 47_544
H9C C9 H9D 117.8 93_445 47_544
H9C C9 H9D 47.3 47_544 47_544
C10 C9 H9E 109.018(3) . 51
H9A C9 H9E 117.8 . 51
H9B C9 H9E 101.7 . 51
H9C C9 H9E 9.3 . 51
H9A C9 H9E 47.3 51 51
H9A C9 H9E 125.5 93_445 51
H9A C9 H9E 37.6 47_544 51
H9B C9 H9E 65.5 51 51
H9B C9 H9E 19.1 93_445 51
H9B C9 H9E 137.1 47_544 51
H9C C9 H9E 140.8 51 51
H9C C9 H9E 92.6 93_445 51
H9C C9 H9E 75.0 47_544 51
C10 C9 H9E 109.018(4) . 93_445
H9A C9 H9E 125.5 . 93_445
H9B C9 H9E 19.1 . 93_445
H9C C9 H9E 92.6 . 93_445
H9A C9 H9E 37.6 51 93_445
H9A C9 H9E 47.3 93_445 93_445
H9A C9 H9E 117.8 47_544 93_445
H9B C9 H9E 137.1 51 93_445
H9B C9 H9E 65.5 93_445 93_445
H9B C9 H9E 101.7 47_544 93_445
H9C C9 H9E 75.0 51 93_445
H9C C9 H9E 140.8 93_445 93_445
H9C C9 H9E 9.3 47_544 93_445
C10 C9 H9E 109.018(4) . 47_544
H9A C9 H9E 37.6 . 47_544
H9B C9 H9E 137.1 . 47_544
H9C C9 H9E 75.0 . 47_544
H9A C9 H9E 125.5 51 47_544
H9A C9 H9E 117.8 93_445 47_544
H9A C9 H9E 47.3 47_544 47_544
H9B C9 H9E 19.1 51 47_544
H9B C9 H9E 101.7 93_445 47_544
H9B C9 H9E 65.5 47_544 47_544
H9C C9 H9E 92.6 51 47_544
H9C C9 H9E 9.3 93_445 47_544
H9C C9 H9E 140.8 47_544 47_544
C10 C9 H9F 109.023(4) . 51
H9A C9 H9F 9.3 . 51
H9B C9 H9F 117.8 . 51
H9C C9 H9F 101.7 . 51
H9A C9 H9F 140.7 51 51
H9A C9 H9F 92.7 93_445 51
H9A C9 H9F 75.0 47_544 51
H9B C9 H9F 47.3 51 51
H9B C9 H9F 125.5 93_445 51
H9B C9 H9F 37.6 47_544 51
H9C C9 H9F 65.5 51 51
H9C C9 H9F 19.1 93_445 51
H9C C9 H9F 137.1 47_544 51
C10 C9 H9F 109.023(3) . 93_445
H9A C9 H9F 92.6 . 93_445
H9B C9 H9F 125.5 . 93_445
H9C C9 H9F 19.1 . 93_445
H9A C9 H9F 75.0 51 93_445
H9A C9 H9F 140.7 93_445 93_445
H9A C9 H9F 9.3 47_544 93_445
H9B C9 H9F 37.6 51 93_445
H9B C9 H9F 47.3 93_445 93_445
H9B C9 H9F 117.8 47_544 93_445
H9C C9 H9F 137.1 51 93_445
H9C C9 H9F 65.5 93_445 93_445
H9C C9 H9F 101.7 47_544 93_445
C10 C9 H9F 109.023(3) . 47_544
H9A C9 H9F 75.0 . 47_544
H9B C9 H9F 37.6 . 47_544
H9C C9 H9F 137.1 . 47_544
H9A C9 H9F 92.7 51 47_544
H9A C9 H9F 9.3 93_445 47_544
H9A C9 H9F 140.7 47_544 47_544
H9B C9 H9F 125.5 51 47_544
H9B C9 H9F 117.8 93_445 47_544
H9B C9 H9F 47.3 47_544 47_544
H9C C9 H9F 19.1 51 47_544
H9C C9 H9F 101.7 93_445 47_544
H9C C9 H9F 65.5 47_544 47_544
N7 C10 C9 180.0 . .
C12 C11 H11A 109.5 . .
C12 C11 H11B 109.5 . .
H11A C11 H11B 109.5 . .
C12 C11 H11C 109.5 . .
H11A C11 H11C 109.5 . .
H11B C11 H11C 109.5 . .
N8 C12 C11 179.2(3) . .
Cu1 Cl1 Cu2 84.046(18) . .
Cu1 Cl1 Cu2 84.042(18) . 99_575
Cu2 Cl1 Cu2 168.08(4) . 99_575
Cu1 Cl2 Cu1 90.0 . 141_675
Cu1 Cl2 Cu1 90.0 . 93_445
Cu1 Cl2 Cu1 180.0 141_675 93_445
Cu1 Cl2 Cu1 180.0 . 145_575
Cu1 Cl2 Cu1 90.0 141_675 145_575
Cu1 Cl2 Cu1 90.0 93_445 145_575
H3WA O3W H3WB 109.5 . .
N3 Cu1 N3 85.77(11) 93_445 191_576
N3 Cu1 N2 94.08(7) 93_445 .
N3 Cu1 N2 173.25(7) 191_576 .
N3 Cu1 N2 173.24(7) 93_445 99_575
N3 Cu1 N2 94.09(7) 191_576 99_575
N2 Cu1 N2 85.26(10) . 99_575
N3 Cu1 Cl1 93.63(5) 93_445 .
N3 Cu1 Cl1 93.63(5) 191_576 .
N2 Cu1 Cl1 93.12(5) . .
N2 Cu1 Cl1 93.12(5) 99_575 .
N3 Cu1 Cl2 86.52(5) 93_445 .
N3 Cu1 Cl2 86.52(5) 191_576 .
N2 Cu1 Cl2 86.73(5) . .
N2 Cu1 Cl2 86.72(5) 99_575 .
Cl1 Cu1 Cl2 179.79(3) . .
O1WA Cu2 O2WA 108.4(2) . .
O2WB Cu2 O1WB 108.4(2) . .
O1WA Cu2 N1 132.3(3) . .
O2WB Cu2 N1 83.61(15) . .
O2WA Cu2 N1 69.13(16) . .
O1WB Cu2 N1 126.7(3) . .
O1WA Cu2 N4 130.2(3) . 93_445
O2WB Cu2 N4 82.93(18) . 93_445
O2WA Cu2 N4 80.0(2) . 93_445
O1WB Cu2 N4 135.2(3) . 93_445
N1 Cu2 N4 96.99(6) . 93_445
O1WA Cu2 Cl1 96.10(18) . .
O2WB Cu2 Cl1 169.07(14) . .
O2WA Cu2 Cl1 154.63(12) . .
O1WB Cu2 Cl1 82.49(17) . .
N1 Cu2 Cl1 89.56(5) . .
N4 Cu2 Cl1 89.47(5) 93_445 .
N2 N1 C1 103.68(18) . .
N2 N1 Cu2 113.16(14) . .
C1 N1 Cu2 142.96(15) . .
N3 N2 N1 111.50(18) . .
N3 N2 Cu1 123.90(14) . .
N1 N2 Cu1 124.59(15) . .
N2 N3 N4 110.63(17) . .
N2 N3 Cu1 124.08(15) . 141_675
N4 N3 Cu1 125.26(15) . 141_675
N3 N4 C1 103.38(17) . .
N3 N4 Cu2 111.64(14) . 47_544
C1 N4 Cu2 144.51(15) . 47_544
C8 N5 C5 129.60(18) . .
C8 N6 C8 112.3(2) . 81_455
C12 N8 N8 116.8(2) . 13_455
Cu2 O1WA H1W1 108.9 . .
Cu2 O1WA H1W3 109.6 . .
H1W1 O1WA H1W3 109.5 . .
Cu2 O1WA H1W4 110.0 . .
H1W1 O1WA H1W4 141.1 . .
H1W3 O1WA H1W4 56.3 . .
Cu2 O1WA H1W6 109.3 . .
H1W1 O1WA H1W6 56.3 . .
H1W3 O1WA H1W6 141.1 . .
H1W4 O1WA H1W6 109.5 . .
Cu2 O2WA H2W2 109.5 . .
Cu2 O2WA H2W3 109.4 . .
H2W2 O2WA H2W3 109.5 . .
Cu2 O2WA H2W5 109.5 . .
H2W2 O2WA H2W5 141.1 . .
H2W3 O2WA H2W5 56.3 . .
Cu2 O2WA H2W6 109.6 . .
H2W2 O2WA H2W6 56.2 . .
H2W3 O2WA H2W6 141.0 . .
H2W5 O2WA H2W6 109.5 . .
Cu2 O1WB H1W7 109.3 . .
Cu2 O1WB H1W9 109.1 . .
H1W7 O1WB H1W9 109.5 . .
Cu2 O1WB H1WX 109.6 . .
H1W7 O1WB H1WX 141.1 . .
H1W9 O1WB H1WX 56.3 . .
Cu2 O1WB H1WZ 109.9 . .
H1W7 O1WB H1WZ 56.3 . .
H1W9 O1WB H1WZ 141.1 . .
H1WX O1WB H1WZ 109.5 . .
Cu2 O2WB H2W7 109.5 . .
Cu2 O2WB H2W8 109.6 . .
H2W7 O2WB H2W8 109.5 . .
Cu2 O2WB H2WX 109.5 . .
H2W7 O2WB H2WX 141.1 . .
H2W8 O2WB H2WX 56.3 . .
Cu2 O2WB H2WY 109.3 . .
H2W7 O2WB H2WY 56.3 . .
H2W8 O2WB H2WY 141.1 . .
H2WX O2WB H2WY 109.5 . .
loop_
_geom_bond_atom_site_label_1
_geom_bond_atom_site_label_2
_geom_bond_distance
_geom_bond_site_symmetry_2
C1 N1 1.364(3) .
C1 N4 1.374(3) .
C1 C2 1.444(3) .
C2 C7 1.389(3) .
C2 C3 1.396(3) .
C3 C4 1.398(3) .
C3 H3 0.9300 .
C4 C5 1.369(3) .
C4 H4 0.9300 .
C5 C6 1.387(3) .
C5 N5 1.438(3) .
C6 C7 1.398(3) .
C6 H6 0.9300 .
C7 H7 0.9300 .
C8 N5 1.337(3) .
C8 N6 1.345(3) .
C8 N6 1.348(3) 29_554
C9 C10 1.418(6) .
C9 H9A 0.9574 .
C9 H9B 0.9574 .
C9 H9C 0.9575 .
C9 H9D 0.9572 .
C9 H9E 0.9576 .
C9 H9F 0.9576 .
C9 H9A 0.9574 51
C9 H9A 0.9574 93_445
C9 H9A 0.9574 47_544
C9 H9B 0.9573 51
C9 H9B 0.9573 93_445
C9 H9B 0.9573 47_544
C9 H9C 0.9577 51
C9 H9C 0.9577 93_445
C9 H9C 0.9577 47_544
C9 H9D 0.9570 51
C9 H9D 0.9570 93_445
C9 H9D 0.9570 47_544
C9 H9E 0.9578 51
C9 H9E 0.9578 93_445
C9 H9E 0.9578 47_544
C9 H9F 0.9575 51
C9 H9F 0.9575 93_445
C9 H9F 0.9575 47_544
C10 N7 1.169(5) .
C11 C12 1.424(3) .
C11 H11A 0.9600 .
C11 H11B 0.9600 .
C11 H11C 0.9600 .
C12 N8 1.165(3) .
Cl1 Cu1 2.4770(9) .
Cl1 Cu2 2.5914(3) .
Cl1 Cu2 2.5917(3) 99_575
Cl2 Cu1 2.5459(4) .
Cl2 Cu1 2.5459(4) 141_675
Cl2 Cu1 2.5459(4) 93_445
Cl2 Cu1 2.5459(4) 145_575
O3W H3WA 0.8500 .
O3W H3WB 0.8503 .
Cu1 N3 2.0590(18) 93_445
Cu1 N3 2.0590(18) 191_576
Cu1 N2 2.0609(18) .
Cu1 N2 2.0609(18) 99_575
Cu2 O1WA 2.098(10) .
Cu2 O2WB 2.102(7) .
Cu2 O2WA 2.107(8) .
Cu2 O1WB 2.113(10) .
Cu2 N1 2.2301(19) .
Cu2 N4 2.2632(18) 93_445
N1 N2 1.323(2) .
N2 N3 1.297(3) .
N3 N4 1.335(2) .
N8 N8 1.799(4) 13_455
O1WA H1W1 0.9600 .
O1WA H1W3 0.9601 .
O1WA H1W4 0.9600 .
O1WA H1W6 0.9599 .
O2WA H2W2 0.9600 .
O2WA H2W3 0.9600 .
O2WA H2W5 0.9599 .
O2WA H2W6 0.9600 .
O1WB H1W7 0.9600 .
O1WB H1W9 0.9600 .
O1WB H1WX 0.9600 .
O1WB H1WZ 0.9600 .
O2WB H2W7 0.9600 .
O2WB H2W8 0.9600 .
O2WB H2WX 0.9599 .
O2WB H2WY 0.9600 .
loop_
_geom_torsion_atom_site_label_1
_geom_torsion_atom_site_label_2
_geom_torsion_atom_site_label_3
_geom_torsion_atom_site_label_4
_geom_torsion
_geom_torsion_site_symmetry_1
_geom_torsion_site_symmetry_4
N1 C1 C2 C7 7.4(4) . .
N4 C1 C2 C7 -173.2(2) . .
N1 C1 C2 C3 -171.7(2) . .
N4 C1 C2 C3 7.7(4) . .
C7 C2 C3 C4 1.2(4) . .
C1 C2 C3 C4 -179.7(2) . .
C2 C3 C4 C5 -0.6(4) . .
C3 C4 C5 C6 -0.3(4) . .
C3 C4 C5 N5 -179.3(2) . .
C4 C5 C6 C7 0.4(4) . .
N5 C5 C6 C7 179.5(2) . .
C3 C2 C7 C6 -1.1(4) . .
C1 C2 C7 C6 179.8(2) . .
C5 C6 C7 C2 0.2(4) . .
N4 C1 N1 N2 2.3(2) . .
C2 C1 N1 N2 -178.2(2) . .
N4 C1 N1 Cu2 -171.72(17) . .
C2 C1 N1 Cu2 7.8(4) . .
C1 N1 N2 N3 -2.3(2) . .
Cu2 N1 N2 N3 173.76(13) . .
C1 N1 N2 Cu1 178.25(14) . .
Cu2 N1 N2 Cu1 -5.7(2) . .
N1 N2 N3 N4 1.6(2) . .
Cu1 N2 N3 N4 -179.01(13) . .
N1 N2 N3 Cu1 179.46(13) . 141_675
Cu1 N2 N3 Cu1 -1.1(2) . 141_675
N2 N3 N4 C1 0.0(2) . .
Cu1 N3 N4 C1 -177.92(14) 141_675 .
N2 N3 N4 Cu2 -174.17(13) . 47_544
Cu1 N3 N4 Cu2 8.0(2) 141_675 47_544
N1 C1 N4 N3 -1.4(2) . .
C2 C1 N4 N3 179.1(2) . .
N1 C1 N4 Cu2 169.15(17) . 47_544
C2 C1 N4 Cu2 -10.3(4) . 47_544
N6 C8 N5 C5 177.6(2) . .
N6 C8 N5 C5 3.6(4) 29_554 .
C4 C5 N5 C8 0.0(4) . .
C6 C5 N5 C8 -179.1(2) . .
N5 C8 N6 C8 -179.93(14) . 81_455
N6 C8 N6 C8 -6.4(5) 29_554 81_455
