#------------------------------------------------------------------------------
#$Date: 2020-05-05 16:29:02 +0300 (Tue, 05 May 2020) $
#$Revision: 251660 $
#$URL: file:///home/coder/svn-repositories/cod/cif/7/70/38/7703816.cif $
#------------------------------------------------------------------------------
#
# This file is available in the Crystallography Open Database (COD),
# http://www.crystallography.net/
#
# All data on this site have been placed in the public domain by the
# contributors.
#
data_7703816
loop_
_publ_author_name
'Rabe, Timo'
'Pewe, Harm'
'Reinsch, Helge'
'Willhammar, Tom'
'Svensson Grape, Erik'
'Stock, Norbert'
_publ_section_title
;
 Influence of the substitution pattern of four naphthalenedicarboxylic
 acids on the structures and properties of group 13 metal-organic
 frameworks and coordination polymers.
;
_journal_issue                   15
_journal_name_full
'Dalton transactions (Cambridge, England : 2003)'
_journal_page_first              4861
_journal_page_last               4868
_journal_paper_doi               10.1039/d0dt00387e
_journal_volume                  49
_journal_year                    2020
_chemical_formula_moiety         'C12 Ga O5'
_chemical_formula_sum            'C12 Ga O5'
_chemical_formula_weight         293.84
_space_group_IT_number           14
_space_group_name_Hall           '-P 2ybc'
_space_group_name_H-M_alt        'P 1 21/c 1'
_symmetry_cell_setting           monoclinic
_symmetry_space_group_name_Hall  '-P 2ybc'
_symmetry_space_group_name_H-M   'P 1 21/c 1'
_audit_update_record
;
2020-01-31 deposited with the CCDC.	2020-03-18 downloaded from the CCDC.
;
_cell_angle_alpha                90
_cell_angle_beta                 116.222(5)
_cell_angle_gamma                90
_cell_formula_units_Z            4
_cell_length_a                   17.0649(15)
_cell_length_b                   6.7215(3)
_cell_length_c                   10.0314(3)
_cell_measurement_temperature    298
_cell_volume                     1032.21(12)
_diffrn_ambient_temperature      298
_diffrn_measurement_device_type  'Stoe Stadi P Combi'
_diffrn_radiation_probe          x-ray
_diffrn_radiation_type           'Cu K\a'
_diffrn_radiation_wavelength     1.5406
_exptl_crystal_density_diffrn    1.891
_exptl_crystal_description       powder
_pd_char_colour                  white
_pd_proc_ls_prof_R_factor        0.0323
_pd_proc_ls_prof_wR_expected     0.0179
_pd_proc_ls_prof_wR_factor       0.0456
_refine_ls_goodness_of_fit_all   2.54892
_refine_ls_R_I_factor            0.0188
_cod_data_source_file            d0dt00387e2.cif
_cod_data_source_block           Ga18
_cod_depositor_comments
'Adding full bibliography for 7703815--7703820.cif.'
_cod_original_cell_volume        1032.21(11)
_cod_original_sg_symbol_H-M      P21/C
_cod_database_code               7703816
loop_
_symmetry_equiv_pos_as_xyz
'x, y, z '
'-x, y+1/2, -z+1/2 '
'x, -y+1/2, z+1/2 '
'-x, -y, -z '
loop_
_atom_site_label
_atom_site_type_symbol
_atom_site_symmetry_multiplicity
_atom_site_fract_x
_atom_site_fract_y
_atom_site_fract_z
_atom_site_occupancy
_atom_site_B_iso_or_equiv
Ga1 Ga 4 -0.0010(10) 0.9052(6) 0.2443(10) 1 1.24(16)
O1 O 4 -0.001(3) 0.663(4) 0.325(3) 1 1.24(16)
O2 O 4 -0.100(3) 1.017(4) 0.286(3) 1 1.24(16)
O3 O 4 -0.107(3) 1.357(4) 0.283(3) 1 1.24(16)
C1 C 4 -0.141(3) 1.184(7) 0.274(4) 1 1.24(16)
C13 C 4 -0.127(3) 0.863(9) 0.517(4) 1 1.24(16)
O4 O 4 -0.088(3) 0.690(4) 0.548(3) 1 1.24(16)
O5 O 4 -0.107(3) 1.037(5) 0.573(3) 1 1.24(16)
C2 C 4 -0.23774 1.17319 0.24952 1 1.24(16)
C3 C 4 -0.29487 1.31729 0.15205 1 1.24(16)
C4 C 4 -0.38503 1.29681 0.09174 1 1.24(16)
C5 C 4 -0.42128 1.13297 0.12731 1 1.24(16)
C6 C 4 -0.36756 0.98809 0.22571 1 1.24(16)
C7 C 4 -0.27418 1.00729 0.29303 1 1.24(16)
C8 C 4 -0.40746 0.82383 0.25651 1 1.24(16)
C9 C 4 -0.35725 0.67693 0.35333 1 1.24(16)
C10 C 4 -0.26687 0.69352 0.42316 1 1.24(16)
C12 C 4 -0.22352 0.85918 0.39927 1 1.24(16)
loop_
_geom_angle_atom_site_label_1
_geom_angle_atom_site_label_2
_geom_angle_atom_site_label_3
_geom_angle
_geom_angle_site_symmetry_1
_geom_angle_site_symmetry_2
_geom_angle_site_symmetry_3
O1 Ga1 O1 175.8(10) 2_555 1_555 1_555
O5 Ga1 O1 89.9(14) 4_576 1_555 2_555
O5 Ga1 O1 87.1(15) 4_576 1_555 1_555
O4 Ga1 O5 165(2) 3_564 1_555 4_576
O4 Ga1 O1 93.3(12) 3_564 1_555 2_555
O4 Ga1 O1 90.3(12) 3_564 1_555 1_555
O3 Ga1 O4 98.2(16) 2_545 1_555 3_564
O3 Ga1 O5 67.9(16) 2_545 1_555 4_576
O3 Ga1 O1 86(2) 2_545 1_555 2_555
O3 Ga1 O1 96(2) 2_545 1_555 1_555
O2 Ga1 O3 167.2(13) 1_555 1_555 2_545
O2 Ga1 O4 89.8(16) 1_555 1_555 3_564
O2 Ga1 O5 104.6(16) 1_555 1_555 4_576
O2 Ga1 O1 84(2) 1_555 1_555 2_555
O2 Ga1 O1 94(2) 1_555 1_555 1_555
C13 Ga1 O2 91.4(14) 4_576 1_555 1_555
C13 Ga1 O3 78.1(14) 4_576 1_555 2_545
C13 Ga1 O4 164.1(14) 4_576 1_555 3_564
C13 Ga1 O5 21.7(15) 4_576 1_555 4_576
C13 Ga1 O1 71.1(14) 4_576 1_555 2_555
C13 Ga1 O1 105.4(14) 4_576 1_555 1_555
C1 Ga1 C13 88.9(15) 2_545 1_555 4_576
C1 Ga1 O2 168.5(13) 2_545 1_555 1_555
C1 Ga1 O3 21.6(14) 2_545 1_555 2_545
C1 Ga1 O4 93.0(15) 2_545 1_555 3_564
C1 Ga1 O5 72.5(15) 2_545 1_555 4_576
C1 Ga1 O1 107(2) 2_545 1_555 2_555
C1 Ga1 O1 75(2) 2_545 1_555 1_555
C13 Ga1 C1 89.0(14) 3_564 1_555 2_545
C13 Ga1 C13 175.0(19) 3_564 1_555 4_576
C13 Ga1 O2 89.7(15) 3_564 1_555 1_555
C13 Ga1 O3 101.3(14) 3_564 1_555 2_545
C13 Ga1 O4 20.8(13) 3_564 1_555 3_564
C13 Ga1 O5 153.6(14) 3_564 1_555 4_576
C13 Ga1 O1 113.9(13) 3_564 1_555 2_555
C13 Ga1 O1 69.6(13) 3_564 1_555 1_555
C1 Ga1 C13 96.4(14) 1_555 1_555 3_564
C1 Ga1 C1 173.8(15) 1_555 1_555 2_545
C1 Ga1 C13 85.9(14) 1_555 1_555 4_576
C1 Ga1 O2 15.8(13) 1_555 1_555 1_555
C1 Ga1 O3 152.7(13) 1_555 1_555 2_545
C1 Ga1 O4 91.1(15) 1_555 1_555 3_564
C1 Ga1 O5 103.3(14) 1_555 1_555 4_576
C1 Ga1 O1 68(2) 1_555 1_555 2_555
C1 Ga1 O1 110(2) 1_555 1_555 1_555
Ga1 O1 Ga1 131(2) 2_545 1_555 1_555
O5 O1 Ga1 137(3) 4_576 1_555 2_545
O5 O1 Ga1 49.0(11) 4_576 1_555 1_555
O2 O1 O5 88(2) 2_545 1_555 4_576
O2 O1 Ga1 51.1(15) 2_545 1_555 2_545
O2 O1 Ga1 91(2) 2_545 1_555 1_555
O3 O1 O2 100.1(15) 1_545 1_555 2_545
O3 O1 O5 167.2(19) 1_545 1_555 4_576
O3 O1 Ga1 49.3(14) 1_545 1_555 2_545
O3 O1 Ga1 139(2) 1_545 1_555 1_555
O4 O1 O3 95.5(14) 3_564 1_555 1_545
O4 O1 O2 82.2(15) 3_564 1_555 2_545
O4 O1 O5 95.2(14) 3_564 1_555 4_576
O4 O1 Ga1 92.8(12) 3_564 1_555 2_545
O4 O1 Ga1 47.2(9) 3_564 1_555 1_555
O5 O1 O4 52.2(10) 3_564 1_555 3_564
O5 O1 O3 49.0(12) 3_564 1_555 1_545
O5 O1 O2 73.3(15) 3_564 1_555 2_545
O5 O1 O5 143.7(16) 3_564 1_555 4_576
O5 O1 Ga1 46.6(10) 3_564 1_555 2_545
O5 O1 Ga1 99.2(12) 3_564 1_555 1_555
O4 O1 O5 90.6(11) 4_566 1_555 3_564
O4 O1 O4 136.2(14) 4_566 1_555 3_564
O4 O1 O3 67.2(13) 4_566 1_555 1_545
O4 O1 O2 63.2(15) 4_566 1_555 2_545
O4 O1 O5 109.1(18) 4_566 1_555 4_576
O4 O1 Ga1 44.9(9) 4_566 1_555 2_545
O4 O1 Ga1 148(3) 4_566 1_555 1_555
O2 O1 O4 160(2) 1_555 1_555 4_566
O2 O1 O5 100.1(15) 1_555 1_555 3_564
O2 O1 O4 61.9(12) 1_555 1_555 3_564
O2 O1 O3 108(2) 1_555 1_555 1_545
O2 O1 O2 135.8(16) 1_555 1_555 2_545
O2 O1 O5 71.4(13) 1_555 1_555 4_576
O2 O1 Ga1 146(2) 1_555 1_555 2_545
O2 O1 Ga1 46.2(14) 1_555 1_555 1_555
O3 O1 O2 90.6(14) 2_545 1_555 1_555
O3 O1 O4 104(2) 2_545 1_555 4_566
O3 O1 O5 98.5(16) 2_545 1_555 3_564
O3 O1 O4 65.9(14) 2_545 1_555 3_564
O3 O1 O3 144.2(15) 2_545 1_555 1_545
O3 O1 O2 49.3(14) 2_545 1_555 2_545
O3 O1 O5 47.9(13) 2_545 1_555 4_576
O3 O1 Ga1 99(2) 2_545 1_555 2_545
O3 O1 Ga1 44.8(15) 2_545 1_555 1_555
C13 O1 O3 85.5(16) 3_564 1_555 2_545
C13 O1 O2 77.7(16) 3_564 1_555 1_555
C13 O1 O4 115.8(16) 3_564 1_555 4_566
C13 O1 O5 26.1(14) 3_564 1_555 3_564
C13 O1 O4 26.9(14) 3_564 1_555 3_564
C13 O1 O3 69.5(15) 3_564 1_555 1_545
C13 O1 O2 80.9(16) 3_564 1_555 2_545
C13 O1 O5 121.8(17) 3_564 1_555 4_576
C13 O1 Ga1 71.0(15) 3_564 1_555 2_545
C13 O1 Ga1 74.0(15) 3_564 1_555 1_555
C1 O1 C13 88.7(17) 2_545 1_555 3_564
C1 O1 O3 25.1(12) 2_545 1_555 2_545
C1 O1 O2 115.6(17) 2_545 1_555 1_555
C1 O1 O4 80.5(19) 2_545 1_555 4_566
C1 O1 O5 91.0(17) 2_545 1_555 3_564
C1 O1 O4 78.4(16) 2_545 1_555 3_564
C1 O1 O3 125.5(18) 2_545 1_555 1_545
C1 O1 O2 25.6(13) 2_545 1_555 2_545
C1 O1 O5 63.9(18) 2_545 1_555 4_576
C1 O1 Ga1 77(2) 2_545 1_555 2_545
C1 O1 Ga1 69(2) 2_545 1_555 1_555
O4 O1 C1 157.3(14) 1_555 1_555 2_545
O4 O1 C13 113(2) 1_555 1_555 3_564
O4 O1 O3 145.5(12) 1_555 1_555 2_545
O4 O1 O2 67.5(14) 1_555 1_555 1_555
O4 O1 O4 93.2(15) 1_555 1_555 4_566
O4 O1 O5 111(2) 1_555 1_555 3_564
O4 O1 O4 119(2) 1_555 1_555 3_564
O4 O1 O3 70.0(15) 1_555 1_555 1_545
O4 O1 O2 156.4(13) 1_555 1_555 2_545
O4 O1 O5 98.5(14) 1_555 1_555 4_576
O4 O1 Ga1 113.9(19) 1_555 1_555 2_545
O4 O1 Ga1 110.7(19) 1_555 1_555 1_555
Ga1 O2 C1 139(4) 1_555 1_555 1_555
O3 O2 Ga1 114(2) 1_555 1_555 1_555
O3 O2 C1 27(3) 1_555 1_555 1_555
C2 O2 O3 61.7(14) 1_555 1_555 1_555
C2 O2 Ga1 161.4(14) 1_555 1_555 1_555
C2 O2 C1 34(3) 1_555 1_555 1_555
O1 O2 C2 123.0(14) 2_555 1_555 1_555
O1 O2 O3 70.3(17) 2_555 1_555 1_555
O1 O2 Ga1 45.1(12) 2_555 1_555 1_555
O1 O2 C1 94(3) 2_555 1_555 1_555
C13 O2 O1 151.9(17) 1_555 1_555 2_555
C13 O2 C2 77.4(17) 1_555 1_555 1_555
C13 O2 O3 111(2) 1_555 1_555 1_555
C13 O2 Ga1 119.5(17) 1_555 1_555 1_555
C13 O2 C1 97(4) 1_555 1_555 1_555
O1 O2 C13 83.1(17) 1_555 1_555 1_555
O1 O2 O1 84.8(15) 1_555 1_555 2_555
O1 O2 C2 148.4(19) 1_555 1_555 1_555
O1 O2 O3 150(2) 1_555 1_555 1_555
O1 O2 Ga1 39.7(12) 1_555 1_555 1_555
O1 O2 C1 177(3) 1_555 1_555 1_555
O4 O2 O1 56.6(11) 3_564 1_555 1_555
O4 O2 C13 128.6(17) 3_564 1_555 1_555
O4 O2 O1 61.4(13) 3_564 1_555 2_555
O4 O2 C2 120.3(13) 3_564 1_555 1_555
O4 O2 O3 119.9(17) 3_564 1_555 1_555
O4 O2 Ga1 44.0(10) 3_564 1_555 1_555
O4 O2 C1 125(3) 3_564 1_555 1_555
O5 O2 O4 153.4(14) 1_555 1_555 3_564
O5 O2 O1 100.4(13) 1_555 1_555 1_555
O5 O2 C13 25.6(14) 1_555 1_555 1_555
O5 O2 O1 135.8(14) 1_555 1_555 2_555
O5 O2 C2 71.1(13) 1_555 1_555 1_555
O5 O2 O3 86.6(15) 1_555 1_555 1_555
O5 O2 Ga1 127.5(14) 1_555 1_555 1_555
O5 O2 C1 79(3) 1_555 1_555 1_555
C12 O2 O5 46.0(10) 1_555 1_555 1_555
C12 O2 O4 118.0(13) 1_555 1_555 3_564
C12 O2 O1 97.2(14) 1_555 1_555 1_555
C12 O2 C13 30.9(11) 1_555 1_555 1_555
C12 O2 O1 177.1(15) 1_555 1_555 2_555
C12 O2 C2 54.5(9) 1_555 1_555 1_555
C12 O2 O3 108(2) 1_555 1_555 1_555
C12 O2 Ga1 136.7(12) 1_555 1_555 1_555
C12 O2 C1 85(3) 1_555 1_555 1_555
C7 O2 C12 27.7(4) 1_555 1_555 1_555
C7 O2 O5 60.7(12) 1_555 1_555 1_555
C7 O2 O4 116.7(13) 1_555 1_555 3_564
C7 O2 O1 120.8(16) 1_555 1_555 1_555
C7 O2 C13 55.8(13) 1_555 1_555 1_555
C7 O2 O1 149.5(13) 1_555 1_555 2_555
C7 O2 C2 28.3(5) 1_555 1_555 1_555
C7 O2 O3 88.5(17) 1_555 1_555 1_555
C7 O2 Ga1 155.3(14) 1_555 1_555 1_555
C7 O2 C1 62(3) 1_555 1_555 1_555
O5 O2 C7 154.1(13) 4_576 1_555 1_555
O5 O2 C12 128.2(11) 4_576 1_555 1_555
O5 O2 O5 94.9(14) 4_576 1_555 1_555
O5 O2 O4 80.8(15) 4_576 1_555 3_564
O5 O2 O1 51.0(12) 4_576 1_555 1_555
O5 O2 C13 98.5(14) 4_576 1_555 1_555
O5 O2 O1 54.7(13) 4_576 1_555 2_555
O5 O2 C2 156.2(12) 4_576 1_555 1_555
O5 O2 O3 99.3(17) 4_576 1_555 1_555
O5 O2 Ga1 36.8(9) 4_576 1_555 1_555
O5 O2 C1 126(3) 4_576 1_555 1_555
Ga1 O3 C1 123(4) 2_555 1_555 1_555
O5 O3 Ga1 55.3(15) 3_574 1_555 2_555
O5 O3 C1 114(3) 3_574 1_555 1_555
O2 O3 O5 108.0(18) 1_555 1_555 3_574
O2 O3 Ga1 97(2) 1_555 1_555 2_555
O2 O3 C1 28(3) 1_555 1_555 1_555
C2 O3 O2 62.3(14) 1_555 1_555 1_555
C2 O3 O5 114.7(14) 1_555 1_555 3_574
C2 O3 Ga1 154.4(16) 1_555 1_555 2_555
C2 O3 C1 35(3) 1_555 1_555 1_555
O1 O3 C2 159(2) 1_565 1_555 1_555
O1 O3 O2 138(2) 1_565 1_555 1_555
O1 O3 O5 67.2(14) 1_565 1_555 3_574
O1 O3 Ga1 44.9(13) 1_565 1_555 2_555
O1 O3 C1 166(4) 1_565 1_555 1_555
O1 O3 O1 84.3(14) 2_555 1_555 1_565
O1 O3 C2 115.1(13) 2_555 1_555 1_555
O1 O3 O2 60.4(16) 2_555 1_555 1_555
O1 O3 O5 60.7(15) 2_555 1_555 3_574
O1 O3 Ga1 39.5(11) 2_555 1_555 2_555
O1 O3 C1 84(3) 2_555 1_555 1_555
C3 O3 O1 124.2(11) 1_555 1_555 2_555
C3 O3 O1 133.5(15) 1_555 1_555 1_565
C3 O3 C2 29.3(5) 1_555 1_555 1_555
C3 O3 O2 87.5(15) 1_555 1_555 1_555
C3 O3 O5 93.8(13) 1_555 1_555 3_574
C3 O3 Ga1 148.7(11) 1_555 1_555 2_555
C3 O3 C1 61(3) 1_555 1_555 1_555
O4 O3 C3 167.1(13) 4_576 1_555 1_555
O4 O3 O1 54.7(12) 4_576 1_555 2_555
O4 O3 O1 58.8(13) 4_576 1_555 1_565
O4 O3 C2 137.7(12) 4_576 1_555 1_555
O4 O3 O2 81.3(15) 4_576 1_555 1_555
O4 O3 O5 96(2) 4_576 1_555 3_574
O4 O3 Ga1 40.5(10) 4_576 1_555 2_555
O4 O3 C1 107(3) 4_576 1_555 1_555
C13 O3 O4 102.4(17) 3_574 1_555 4_576
C13 O3 C3 89.3(11) 3_574 1_555 1_555
C13 O3 O1 78.2(15) 3_574 1_555 2_555
C13 O3 O1 58.8(12) 3_574 1_555 1_565
C13 O3 C2 115.9(13) 3_574 1_555 1_555
C13 O3 O2 126.2(18) 3_574 1_555 1_555
C13 O3 O5 18.9(14) 3_574 1_555 3_574
C13 O3 Ga1 63.2(13) 3_574 1_555 2_555
C13 O3 C1 127(2) 3_574 1_555 1_555
O2 C1 O3 125(5) 1_555 1_555 1_555
C2 C1 O2 117(4) 1_555 1_555 1_555
C2 C1 O3 118(4) 1_555 1_555 1_555
C3 C1 C2 30.4(9) 1_555 1_555 1_555
C3 C1 O2 139(3) 1_555 1_555 1_555
C3 C1 O3 93(3) 1_555 1_555 1_555
C7 C1 C3 56.7(11) 1_555 1_555 1_555
C7 C1 C2 26.7(10) 1_555 1_555 1_555
C7 C1 O2 93(3) 1_555 1_555 1_555
C7 C1 O3 141(4) 1_555 1_555 1_555
Ga1 C1 C7 176(2) 2_555 1_555 1_555
Ga1 C1 C3 120.4(18) 2_555 1_555 1_555
Ga1 C1 C2 150(3) 2_555 1_555 1_555
Ga1 C1 O2 91(3) 2_555 1_555 1_555
Ga1 C1 O3 35(3) 2_555 1_555 1_555
O5 C1 Ga1 115.8(14) 1_555 1_555 2_555
O5 C1 C7 64.4(15) 1_555 1_555 1_555
O5 C1 C3 108(2) 1_555 1_555 1_555
O5 C1 C2 82(2) 1_555 1_555 1_555
O5 C1 O2 76(3) 1_555 1_555 1_555
O5 C1 O3 110(2) 1_555 1_555 1_555
O5 C1 O5 151.7(18) 3_574 1_555 1_555
O5 C1 Ga1 39.1(10) 3_574 1_555 2_555
O5 C1 C7 139.5(16) 3_574 1_555 1_555
O5 C1 C3 85.6(15) 3_574 1_555 1_555
O5 C1 C2 116(2) 3_574 1_555 1_555
O5 C1 O2 111(4) 3_574 1_555 1_555
O5 C1 O3 43(2) 3_574 1_555 1_555
O1 C1 O5 51.8(13) 2_555 1_555 3_574
O1 C1 O5 119.4(17) 2_555 1_555 1_555
O1 C1 Ga1 35.8(9) 2_555 1_555 2_555
O1 C1 C7 148(2) 2_555 1_555 1_555
O1 C1 C3 132.7(18) 2_555 1_555 1_555
O1 C1 C2 154(2) 2_555 1_555 1_555
O1 C1 O2 61(3) 2_555 1_555 1_555
O1 C1 O3 71(3) 2_555 1_555 1_555
C12 C1 O1 131.9(17) 1_555 1_555 2_555
C12 C1 O5 163.6(16) 1_555 1_555 3_574
C12 C1 O5 44.4(10) 1_555 1_555 1_555
C12 C1 Ga1 155.4(15) 1_555 1_555 2_555
C12 C1 C7 26.9(5) 1_555 1_555 1_555
C12 C1 C3 83.4(15) 1_555 1_555 1_555
C12 C1 C2 53.1(16) 1_555 1_555 1_555
C12 C1 O2 71(3) 1_555 1_555 1_555
C12 C1 O3 150(4) 1_555 1_555 1_555
Ga1 C1 C12 96.7(13) 1_555 1_555 1_555
Ga1 C1 O1 35.3(9) 1_555 1_555 2_555
Ga1 C1 O5 85.9(17) 1_555 1_555 3_574
Ga1 C1 O5 94.4(14) 1_555 1_555 1_555
Ga1 C1 Ga1 67.2(12) 1_555 1_555 2_555
Ga1 C1 C7 116.8(16) 1_555 1_555 1_555
Ga1 C1 C3 146.8(17) 1_555 1_555 1_555
Ga1 C1 C2 139(2) 1_555 1_555 1_555
Ga1 C1 O2 25(3) 1_555 1_555 1_555
Ga1 C1 O3 102(4) 1_555 1_555 1_555
C13 C1 Ga1 82.3(15) 1_555 1_555 1_555
C13 C1 C12 28.3(10) 1_555 1_555 1_555
C13 C1 O1 115.0(19) 1_555 1_555 2_555
C13 C1 O5 166(2) 1_555 1_555 3_574
C13 C1 O5 23.5(11) 1_555 1_555 1_555
C13 C1 Ga1 127.5(16) 1_555 1_555 2_555
C13 C1 C7 54.3(13) 1_555 1_555 1_555
C13 C1 C3 109(2) 1_555 1_555 1_555
C13 C1 C2 79(2) 1_555 1_555 1_555
C13 C1 O2 59(3) 1_555 1_555 1_555
C13 C1 O3 133(3) 1_555 1_555 1_555
O4 C13 O5 135(3) 1_555 1_555 1_555
C12 C13 O4 115(4) 1_555 1_555 1_555
C12 C13 O5 110(4) 1_555 1_555 1_555
C10 C13 C12 33.2(12) 1_555 1_555 1_555
C10 C13 O4 89(3) 1_555 1_555 1_555
C10 C13 O5 129(4) 1_555 1_555 1_555
C7 C13 C10 56.8(9) 1_555 1_555 1_555
C7 C13 C12 23.9(10) 1_555 1_555 1_555
C7 C13 O4 135(3) 1_555 1_555 1_555
C7 C13 O5 91(3) 1_555 1_555 1_555
O2 C13 C7 66.7(12) 1_555 1_555 1_555
O2 C13 C10 110.4(13) 1_555 1_555 1_555
O2 C13 C12 83.0(17) 1_555 1_555 1_555
O2 C13 O4 106(4) 1_555 1_555 1_555
O2 C13 O5 85(3) 1_555 1_555 1_555
Ga1 C13 O2 98.6(19) 4_576 1_555 1_555
Ga1 C13 C7 126(2) 4_576 1_555 1_555
Ga1 C13 C10 146(2) 4_576 1_555 1_555
Ga1 C13 C12 144(3) 4_576 1_555 1_555
Ga1 C13 O4 100(2) 4_576 1_555 1_555
Ga1 C13 O5 35.1(17) 4_576 1_555 1_555
O1 C13 Ga1 37.9(7) 3_565 1_555 4_576
O1 C13 O2 127(2) 3_565 1_555 1_555
O1 C13 C7 153(2) 3_565 1_555 1_555
O1 C13 C10 122(2) 3_565 1_555 1_555
O1 C13 C12 149(3) 3_565 1_555 1_555
O1 C13 O4 68.7(18) 3_565 1_555 1_555
O1 C13 O5 69.9(18) 3_565 1_555 1_555
Ga1 C13 O1 36.3(8) 3_565 1_555 3_565
Ga1 C13 Ga1 70.4(7) 3_565 1_555 4_576
Ga1 C13 O2 123(2) 3_565 1_555 1_555
Ga1 C13 C7 162(2) 3_565 1_555 1_555
Ga1 C13 C10 106(2) 3_565 1_555 1_555
Ga1 C13 C12 138(3) 3_565 1_555 1_555
Ga1 C13 O4 32.4(14) 3_565 1_555 1_555
Ga1 C13 O5 105(2) 3_565 1_555 1_555
O3 C13 Ga1 86.8(10) 3_575 1_555 3_565
O3 C13 O1 51.8(12) 3_575 1_555 3_565
O3 C13 Ga1 38.6(10) 3_575 1_555 4_576
O3 C13 O2 120(2) 3_575 1_555 1_555
O3 C13 C7 101.6(19) 3_575 1_555 1_555
O3 C13 C10 109(2) 3_575 1_555 1_555
O3 C13 C12 110(3) 3_575 1_555 1_555
O3 C13 O4 119(2) 3_575 1_555 1_555
O3 C13 O5 35(2) 3_575 1_555 1_555
C1 C13 O3 101(2) 1_555 1_555 3_575
C1 C13 Ga1 142(2) 1_555 1_555 3_565
C1 C13 O1 129(2) 1_555 1_555 3_565
C1 C13 Ga1 92.5(18) 1_555 1_555 4_576
C1 C13 O2 23.9(13) 1_555 1_555 1_555
C1 C13 C7 52.6(12) 1_555 1_555 1_555
C1 C13 C10 106.9(14) 1_555 1_555 1_555
C1 C13 C12 74.4(18) 1_555 1_555 1_555
C1 C13 O4 130(4) 1_555 1_555 1_555
C1 C13 O5 68(3) 1_555 1_555 1_555
Ga1 O4 C13 127(2) 3_565 1_555 1_555
O5 O4 Ga1 106.6(12) 1_555 1_555 3_565
O5 O4 C13 22.4(19) 1_555 1_555 1_555
C12 O4 O5 57.8(11) 1_555 1_555 1_555
C12 O4 Ga1 149(2) 1_555 1_555 3_565
C12 O4 C13 36(2) 1_555 1_555 1_555
O1 O4 C12 113.8(16) 3_565 1_555 1_555
O1 O4 O5 64.4(11) 3_565 1_555 1_555
O1 O4 Ga1 42.4(8) 3_565 1_555 3_565
O1 O4 C13 84(2) 3_565 1_555 1_555
C10 O4 O1 117(2) 1_555 1_555 3_565
C10 O4 C12 31.1(5) 1_555 1_555 1_555
C10 O4 O5 82.2(15) 1_555 1_555 1_555
C10 O4 Ga1 131(2) 1_555 1_555 3_565
C10 O4 C13 62(3) 1_555 1_555 1_555
O1 O4 C10 119.2(16) 4_566 1_555 1_555
O1 O4 O1 84.3(9) 4_566 1_555 3_565
O1 O4 C12 149.4(17) 4_566 1_555 1_555
O1 O4 O5 148.3(13) 4_566 1_555 1_555
O1 O4 Ga1 41.8(7) 4_566 1_555 3_565
O1 O4 C13 168(3) 4_566 1_555 1_555
O2 O4 O1 55.4(14) 3_565 1_555 4_566
O2 O4 C10 84.7(15) 3_565 1_555 1_555
O2 O4 O1 61.6(12) 3_565 1_555 3_565
O2 O4 C12 110.0(19) 3_565 1_555 1_555
O2 O4 O5 108.9(18) 3_565 1_555 1_555
O2 O4 Ga1 46.2(12) 3_565 1_555 3_565
O2 O4 C13 114(3) 3_565 1_555 1_555
O3 O4 O2 87.1(13) 4_576 1_555 3_565
O3 O4 O1 54.0(13) 4_576 1_555 4_566
O3 O4 C10 171.6(14) 4_576 1_555 1_555
O3 O4 O1 59.4(14) 4_576 1_555 3_565
O3 O4 C12 156.4(14) 4_576 1_555 1_555
O3 O4 O5 102.0(15) 4_576 1_555 1_555
O3 O4 Ga1 41.3(11) 4_576 1_555 3_565
O3 O4 C13 123(3) 4_576 1_555 1_555
O1 O4 O3 69.4(14) 1_555 1_555 4_576
O1 O4 O2 142.1(15) 1_555 1_555 3_565
O1 O4 O1 86.8(15) 1_555 1_555 4_566
O1 O4 C10 116.8(11) 1_555 1_555 1_555
O1 O4 O1 122(2) 1_555 1_555 3_565
O1 O4 C12 102.1(11) 1_555 1_555 1_555
O1 O4 O5 104.9(17) 1_555 1_555 1_555
O1 O4 Ga1 107.7(19) 1_555 1_555 3_565
O1 O4 C13 104(3) 1_555 1_555 1_555
Ga1 O5 C13 123(3) 4_576 1_555 1_555
O3 O5 Ga1 56.8(14) 3_575 1_555 4_576
O3 O5 C13 126(3) 3_575 1_555 1_555
C12 O5 O3 121(2) 1_555 1_555 3_575
C12 O5 Ga1 159.6(16) 1_555 1_555 4_576
C12 O5 C13 39(2) 1_555 1_555 1_555
O4 O5 C12 61.7(11) 1_555 1_555 1_555
O4 O5 O3 118.1(18) 1_555 1_555 3_575
O4 O5 Ga1 100.3(15) 1_555 1_555 4_576
O4 O5 C13 23(2) 1_555 1_555 1_555
O1 O5 O4 134(2) 4_576 1_555 1_555
O1 O5 C12 156.1(14) 4_576 1_555 1_555
O1 O5 O3 71.4(16) 4_576 1_555 3_575
O1 O5 Ga1 44.0(9) 4_576 1_555 4_576
O1 O5 C13 152(4) 4_576 1_555 1_555
O1 O5 O1 87.4(10) 3_565 1_555 4_576
O1 O5 O4 63.4(11) 3_565 1_555 1_555
O1 O5 C12 116.2(14) 3_565 1_555 1_555
O1 O5 O3 63.8(14) 3_565 1_555 3_575
O1 O5 Ga1 43.5(9) 3_565 1_555 4_576
O1 O5 C13 84(2) 3_565 1_555 1_555
O2 O5 O1 126(2) 1_555 1_555 3_565
O2 O5 O1 95.3(17) 1_555 1_555 4_576
O2 O5 O4 77.6(14) 1_555 1_555 1_555
O2 O5 C12 68.3(10) 1_555 1_555 1_555
O2 O5 O3 163.9(17) 1_555 1_555 3_575
O2 O5 Ga1 120(2) 1_555 1_555 4_576
O2 O5 C13 69(3) 1_555 1_555 1_555
C1 O5 O2 25.5(12) 1_555 1_555 1_555
C1 O5 O1 149(2) 1_555 1_555 3_565
C1 O5 O1 85.9(15) 1_555 1_555 4_576
C1 O5 O4 101.2(17) 1_555 1_555 1_555
C1 O5 C12 72.0(11) 1_555 1_555 1_555
C1 O5 O3 140.3(18) 1_555 1_555 3_575
C1 O5 Ga1 124(2) 1_555 1_555 4_576
C1 O5 C13 88(3) 1_555 1_555 1_555
C1 O5 C1 117.5(11) 3_575 1_555 1_555
C1 O5 O2 142.4(15) 3_575 1_555 1_555
C1 O5 O1 86.0(14) 3_575 1_555 3_565
C1 O5 O1 64.3(17) 3_575 1_555 4_576
C1 O5 O4 140(2) 3_575 1_555 1_555
C1 O5 C12 118.1(19) 3_575 1_555 1_555
C1 O5 O3 23.0(12) 3_575 1_555 3_575
C1 O5 Ga1 68.4(13) 3_575 1_555 4_576
C1 O5 C13 141(4) 3_575 1_555 1_555
C7 O5 C1 106.4(15) 1_555 1_555 3_575
C7 O5 C1 52.7(10) 1_555 1_555 1_555
C7 O5 O2 60.8(9) 1_555 1_555 1_555
C7 O5 O1 143.4(15) 1_555 1_555 3_565
C7 O5 O1 129.2(13) 1_555 1_555 4_576
C7 O5 O4 87.2(11) 1_555 1_555 1_555
C7 O5 C12 27.7(3) 1_555 1_555 1_555
C7 O5 O3 120(2) 1_555 1_555 3_575
C7 O5 Ga1 172.4(17) 1_555 1_555 4_576
C7 O5 C13 64(2) 1_555 1_555 1_555
C2 O5 C7 26.8(2) 1_555 1_555 1_555
C2 O5 C1 104.4(13) 1_555 1_555 3_575
C2 O5 C1 29.3(10) 1_555 1_555 1_555
C2 O5 O2 47.2(8) 1_555 1_555 1_555
C2 O5 O1 167.3(13) 1_555 1_555 3_565
C2 O5 O1 103.5(11) 1_555 1_555 4_576
C2 O5 O4 104.0(11) 1_555 1_555 1_555
C2 O5 C12 52.6(5) 1_555 1_555 1_555
C2 O5 O3 125.6(17) 1_555 1_555 3_575
C2 O5 Ga1 147.3(16) 1_555 1_555 4_576
C2 O5 C13 83(2) 1_555 1_555 1_555
O2 O5 C2 129.1(16) 4_576 1_555 1_555
O2 O5 C7 144.8(16) 4_576 1_555 1_555
O2 O5 C1 106.3(13) 4_576 1_555 3_575
O2 O5 C1 99.8(18) 4_576 1_555 1_555
O2 O5 O2 85.1(14) 4_576 1_555 1_555
O2 O5 O1 52.0(15) 4_576 1_555 3_565
O2 O5 O1 57.6(14) 4_576 1_555 4_576
O2 O5 O4 76.3(15) 4_576 1_555 1_555
O2 O5 C12 133.7(16) 4_576 1_555 1_555
O2 O5 O3 94.8(15) 4_576 1_555 3_575
O2 O5 Ga1 38.6(11) 4_576 1_555 4_576
O2 O5 C13 97(3) 4_576 1_555 1_555
C7 C2 C3 118.886 1_555 1_555 1_555
C1 C2 C7 124.1(17) 1_555 1_555 1_555
C1 C2 C3 115.7(17) 1_555 1_555 1_555
O3 C2 C1 27.8(19) 1_555 1_555 1_555
O3 C2 C7 147.6(6) 1_555 1_555 1_555
O3 C2 C3 93.2(6) 1_555 1_555 1_555
O2 C2 O3 55.9(11) 1_555 1_555 1_555
O2 C2 C1 28.1(19) 1_555 1_555 1_555
O2 C2 C7 97.8(8) 1_555 1_555 1_555
O2 C2 C3 136.0(8) 1_555 1_555 1_555
C4 C2 O2 152.2(7) 1_555 1_555 1_555
C4 C2 O3 122.1(6) 1_555 1_555 1_555
C4 C2 C1 142.9(17) 1_555 1_555 1_555
C4 C2 C7 90.074 1_555 1_555 1_555
C4 C2 C3 28.854 1_555 1_555 1_555
C6 C2 C4 59.036 1_555 1_555 1_555
C6 C2 O2 124.1(8) 1_555 1_555 1_555
C6 C2 O3 177.9(6) 1_555 1_555 1_555
C6 C2 C1 152.2(18) 1_555 1_555 1_555
C6 C2 C7 31.091 1_555 1_555 1_555
C6 C2 C3 87.886 1_555 1_555 1_555
C12 C2 C6 58.893 1_555 1_555 1_555
C12 C2 C4 117.831 1_555 1_555 1_555
C12 C2 O2 73.7(8) 1_555 1_555 1_555
C12 C2 O3 119.8(6) 1_555 1_555 1_555
C12 C2 C1 97.4(17) 1_555 1_555 1_555
C12 C2 C7 27.802 1_555 1_555 1_555
C12 C2 C3 146.542 1_555 1_555 1_555
C5 C2 C12 88.569 1_555 1_555 1_555
C5 C2 C6 29.711 1_555 1_555 1_555
C5 C2 C4 29.328 1_555 1_555 1_555
C5 C2 O2 146.0(7) 1_555 1_555 1_555
C5 C2 O3 151.4(7) 1_555 1_555 1_555
C5 C2 C1 164.8(16) 1_555 1_555 1_555
C5 C2 C7 60.778 1_555 1_555 1_555
C5 C2 C3 58.182 1_555 1_555 1_555
O5 C2 C5 124.3(8) 1_555 1_555 1_555
O5 C2 C12 46.5(6) 1_555 1_555 1_555
O5 C2 C6 98.7(8) 1_555 1_555 1_555
O5 C2 C4 145.2(9) 1_555 1_555 1_555
O5 C2 O2 61.6(11) 1_555 1_555 1_555
O5 C2 O3 79.4(9) 1_555 1_555 1_555
O5 C2 C1 68.5(18) 1_555 1_555 1_555
O5 C2 C7 70.5(7) 1_555 1_555 1_555
O5 C2 C3 150.2(6) 1_555 1_555 1_555
C2 C3 C4 121.701 1_555 1_555 1_555
C5 C3 C2 91.801 1_555 1_555 1_555
C5 C3 C4 29.900 1_555 1_555 1_555
C7 C3 C5 61.052 1_555 1_555 1_555
C7 C3 C2 30.799 1_555 1_555 1_555
C7 C3 C4 90.945 1_555 1_555 1_555
C1 C3 C7 64.3(12) 1_555 1_555 1_555
C1 C3 C5 124.2(12) 1_555 1_555 1_555
C1 C3 C2 33.9(12) 1_555 1_555 1_555
C1 C3 C4 153.1(11) 1_555 1_555 1_555
C6 C3 C1 94.6(12) 1_555 1_555 1_555
C6 C3 C7 30.923 1_555 1_555 1_555
C6 C3 C5 30.132 1_555 1_555 1_555
C6 C3 C2 61.676 1_555 1_555 1_555
C6 C3 C4 60.031 1_555 1_555 1_555
O3 C3 C6 119.1(6) 1_555 1_555 1_555
O3 C3 C1 26.3(13) 1_555 1_555 1_555
O3 C3 C7 88.2(6) 1_555 1_555 1_555
O3 C3 C5 149.2(6) 1_555 1_555 1_555
O3 C3 C2 57.4(6) 1_555 1_555 1_555
O3 C3 C4 178.8(6) 1_555 1_555 1_555
C3 C4 C5 120.098 1_555 1_555 1_555
C6 C4 C3 90.123 1_555 1_555 1_555
C6 C4 C5 29.978 1_555 1_555 1_555
C2 C4 C6 60.682 1_555 1_555 1_555
C2 C4 C3 29.445 1_555 1_555 1_555
C2 C4 C5 90.654 1_555 1_555 1_555
C7 C4 C2 30.357 1_555 1_555 1_555
C7 C4 C6 30.353 1_555 1_555 1_555
C7 C4 C3 59.780 1_555 1_555 1_555
C7 C4 C5 60.330 1_555 1_555 1_555
C6 C5 C4 120.430 1_555 1_555 1_555
C3 C5 C6 90.431 1_555 1_555 1_555
C3 C5 C4 30.002 1_555 1_555 1_555
C8 C5 C3 121.327 1_555 1_555 1_555
C8 C5 C6 30.905 1_555 1_555 1_555
C8 C5 C4 151.329 1_555 1_555 1_555
C7 C5 C8 60.847 1_555 1_555 1_555
C7 C5 C3 60.496 1_555 1_555 1_555
C7 C5 C6 29.941 1_555 1_555 1_555
C7 C5 C4 90.490 1_555 1_555 1_555
C2 C5 C7 30.504 1_555 1_555 1_555
C2 C5 C8 91.311 1_555 1_555 1_555
C2 C5 C3 30.017 1_555 1_555 1_555
C2 C5 C6 60.420 1_555 1_555 1_555
C2 C5 C4 60.018 1_555 1_555 1_555
C8 C6 C5 118.194 1_555 1_555 1_555
C7 C6 C8 120.900 1_555 1_555 1_555
C7 C6 C5 120.905 1_555 1_555 1_555
C9 C6 C7 91.302 1_555 1_555 1_555
C9 C6 C8 29.599 1_555 1_555 1_555
C9 C6 C5 147.793 1_555 1_555 1_555
C4 C6 C9 177.363 1_555 1_555 1_555
C4 C6 C7 91.315 1_555 1_555 1_555
C4 C6 C8 147.782 1_555 1_555 1_555
C4 C6 C5 29.592 1_555 1_555 1_555
C12 C6 C4 122.365 1_555 1_555 1_555
C12 C6 C9 60.262 1_555 1_555 1_555
C12 C6 C7 31.104 1_555 1_555 1_555
C12 C6 C8 89.847 1_555 1_555 1_555
C12 C6 C5 151.905 1_555 1_555 1_555
C2 C6 C12 62.190 1_555 1_555 1_555
C2 C6 C4 60.282 1_555 1_555 1_555
C2 C6 C9 122.322 1_555 1_555 1_555
C2 C6 C7 31.086 1_555 1_555 1_555
C2 C6 C8 151.876 1_555 1_555 1_555
C2 C6 C5 89.869 1_555 1_555 1_555
C10 C6 C2 92.538 1_555 1_555 1_555
C10 C6 C12 30.435 1_555 1_555 1_555
C10 C6 C4 152.793 1_555 1_555 1_555
C10 C6 C9 29.830 1_555 1_555 1_555
C10 C6 C7 61.481 1_555 1_555 1_555
C10 C6 C8 59.425 1_555 1_555 1_555
C10 C6 C5 177.500 1_555 1_555 1_555
C3 C6 C10 122.959 1_555 1_555 1_555
C3 C6 C2 30.438 1_555 1_555 1_555
C3 C6 C12 92.560 1_555 1_555 1_555
C3 C6 C4 29.846 1_555 1_555 1_555
C3 C6 C9 152.760 1_555 1_555 1_555
C3 C6 C7 61.479 1_555 1_555 1_555
C3 C6 C8 177.387 1_555 1_555 1_555
C3 C6 C5 59.437 1_555 1_555 1_555
C2 C7 C12 124.393 1_555 1_555 1_555
C6 C7 C2 117.823 1_555 1_555 1_555
C6 C7 C12 117.784 1_555 1_555 1_555
C10 C7 C6 87.590 1_555 1_555 1_555
C10 C7 C2 154.452 1_555 1_555 1_555
C10 C7 C12 30.306 1_555 1_555 1_555
C3 C7 C10 175.177 1_555 1_555 1_555
C3 C7 C6 87.598 1_555 1_555 1_555
C3 C7 C2 30.314 1_555 1_555 1_555
C3 C7 C12 154.516 1_555 1_555 1_555
C5 C7 C3 58.452 1_555 1_555 1_555
C5 C7 C10 116.740 1_555 1_555 1_555
C5 C7 C6 29.153 1_555 1_555 1_555
C5 C7 C2 88.718 1_555 1_555 1_555
C5 C7 C12 146.851 1_555 1_555 1_555
C8 C7 C5 58.311 1_555 1_555 1_555
C8 C7 C3 116.749 1_555 1_555 1_555
C8 C7 C10 58.436 1_555 1_555 1_555
C8 C7 C6 29.158 1_555 1_555 1_555
C8 C7 C2 146.888 1_555 1_555 1_555
C8 C7 C12 88.676 1_555 1_555 1_555
C1 C7 C8 168.0(9) 1_555 1_555 1_555
C1 C7 C5 116.6(9) 1_555 1_555 1_555
C1 C7 C3 59.1(9) 1_555 1_555 1_555
C1 C7 C10 125.6(9) 1_555 1_555 1_555
C1 C7 C6 144.7(8) 1_555 1_555 1_555
C1 C7 C2 29.2(10) 1_555 1_555 1_555
C1 C7 C12 96.4(9) 1_555 1_555 1_555
C13 C7 C1 73.1(15) 1_555 1_555 1_555
C13 C7 C8 113.6(13) 1_555 1_555 1_555
C13 C7 C5 167.8(11) 1_555 1_555 1_555
C13 C7 C3 128.9(13) 1_555 1_555 1_555
C13 C7 C10 55.9(13) 1_555 1_555 1_555
C13 C7 C6 142.1(12) 1_555 1_555 1_555
C13 C7 C2 99.4(13) 1_555 1_555 1_555
C13 C7 C12 25.9(13) 1_555 1_555 1_555
C9 C7 C13 84.9(13) 1_555 1_555 1_555
C9 C7 C1 153.2(10) 1_555 1_555 1_555
C9 C7 C8 29.180 1_555 1_555 1_555
C9 C7 C5 87.491 1_555 1_555 1_555
C9 C7 C3 145.920 1_555 1_555 1_555
C9 C7 C10 29.261 1_555 1_555 1_555
C9 C7 C6 58.338 1_555 1_555 1_555
C9 C7 C2 175.082 1_555 1_555 1_555
C9 C7 C12 59.540 1_555 1_555 1_555
C4 C7 C9 116.670 1_555 1_555 1_555
C4 C7 C13 156.7(13) 1_555 1_555 1_555
C4 C7 C1 87.9(9) 1_555 1_555 1_555
C4 C7 C8 87.490 1_555 1_555 1_555
C4 C7 C5 29.180 1_555 1_555 1_555
C4 C7 C3 29.275 1_555 1_555 1_555
C4 C7 C10 145.919 1_555 1_555 1_555
C4 C7 C6 58.332 1_555 1_555 1_555
C4 C7 C2 59.569 1_555 1_555 1_555
C4 C7 C12 175.238 1_555 1_555 1_555
O5 C7 C4 132.8(6) 1_555 1_555 1_555
O5 C7 C9 102.2(7) 1_555 1_555 1_555
O5 C7 C13 25.1(14) 1_555 1_555 1_555
O5 C7 C1 63.0(12) 1_555 1_555 1_555
O5 C7 C8 127.3(8) 1_555 1_555 1_555
O5 C7 C5 150.7(7) 1_555 1_555 1_555
O5 C7 C3 108.6(6) 1_555 1_555 1_555
O5 C7 C10 75.8(6) 1_555 1_555 1_555
O5 C7 C6 147.8(9) 1_555 1_555 1_555
O5 C7 C2 82.6(7) 1_555 1_555 1_555
O5 C7 C12 48.6(6) 1_555 1_555 1_555
O2 C7 O5 58.5(10) 1_555 1_555 1_555
O2 C7 C4 108.9(5) 1_555 1_555 1_555
O2 C7 C9 127.9(5) 1_555 1_555 1_555
O2 C7 C13 57.5(13) 1_555 1_555 1_555
O2 C7 C1 25.6(12) 1_555 1_555 1_555
O2 C7 C8 149.7(5) 1_555 1_555 1_555
O2 C7 C5 134.4(5) 1_555 1_555 1_555
O2 C7 C3 82.0(5) 1_555 1_555 1_555
O2 C7 C10 102.3(5) 1_555 1_555 1_555
O2 C7 C6 153.5(5) 1_555 1_555 1_555
O2 C7 C2 53.9(5) 1_555 1_555 1_555
O2 C7 C12 75.8(5) 1_555 1_555 1_555
C6 C8 C9 120.406 1_555 1_555 1_555
C10 C8 C6 90.432 1_555 1_555 1_555
C10 C8 C9 29.981 1_555 1_555 1_555
C5 C8 C10 121.329 1_555 1_555 1_555
C5 C8 C6 30.900 1_555 1_555 1_555
C5 C8 C9 151.306 1_555 1_555 1_555
C7 C8 C5 60.842 1_555 1_555 1_555
C7 C8 C10 60.495 1_555 1_555 1_555
C7 C8 C6 29.942 1_555 1_555 1_555
C7 C8 C9 90.465 1_555 1_555 1_555
C12 C8 C7 30.511 1_555 1_555 1_555
C12 C8 C5 91.314 1_555 1_555 1_555
C12 C8 C10 30.019 1_555 1_555 1_555
C12 C8 C6 60.427 1_555 1_555 1_555
C12 C8 C9 59.999 1_555 1_555 1_555
C10 C9 C8 120.126 1_555 1_555 1_555
C6 C9 C10 90.137 1_555 1_555 1_555
C6 C9 C8 29.995 1_555 1_555 1_555
C12 C9 C6 60.687 1_555 1_555 1_555
C12 C9 C10 29.457 1_555 1_555 1_555
C12 C9 C8 90.670 1_555 1_555 1_555
C7 C9 C12 30.360 1_555 1_555 1_555
C7 C9 C6 30.360 1_555 1_555 1_555
C7 C9 C10 59.788 1_555 1_555 1_555
C7 C9 C8 60.355 1_555 1_555 1_555
C12 C10 C9 121.688 1_555 1_555 1_555
C8 C10 C12 91.796 1_555 1_555 1_555
C8 C10 C9 29.894 1_555 1_555 1_555
C13 C10 C8 127.4(12) 1_555 1_555 1_555
C13 C10 C12 36.7(11) 1_555 1_555 1_555
C13 C10 C9 156.3(13) 1_555 1_555 1_555
C7 C10 C13 67.3(11) 1_555 1_555 1_555
C7 C10 C8 61.069 1_555 1_555 1_555
C7 C10 C12 30.796 1_555 1_555 1_555
C7 C10 C9 90.951 1_555 1_555 1_555
O4 C10 C7 92.0(6) 1_555 1_555 1_555
O4 C10 C13 28.5(14) 1_555 1_555 1_555
O4 C10 C8 152.8(6) 1_555 1_555 1_555
O4 C10 C12 61.6(6) 1_555 1_555 1_555
O4 C10 C9 174.1(5) 1_555 1_555 1_555
C6 C10 O4 122.9(6) 1_555 1_555 1_555
C6 C10 C7 30.929 1_555 1_555 1_555
C6 C10 C13 97.7(12) 1_555 1_555 1_555
C6 C10 C8 30.142 1_555 1_555 1_555
C6 C10 C12 61.666 1_555 1_555 1_555
C6 C10 C9 60.032 1_555 1_555 1_555
C7 C12 C10 118.897 1_555 1_555 1_555
C13 C12 C7 130(2) 1_555 1_555 1_555
C13 C12 C10 110(2) 1_555 1_555 1_555
O5 C12 C13 31(2) 1_555 1_555 1_555
O5 C12 C7 103.7(7) 1_555 1_555 1_555
O5 C12 C10 128.2(8) 1_555 1_555 1_555
O4 C12 O5 60.5(10) 1_555 1_555 1_555
O4 C12 C13 29(2) 1_555 1_555 1_555
O4 C12 C7 152.2(9) 1_555 1_555 1_555
O4 C12 C10 87.4(8) 1_555 1_555 1_555
C9 C12 O4 116.1(8) 1_555 1_555 1_555
C9 C12 O5 145.1(10) 1_555 1_555 1_555
C9 C12 C13 138(2) 1_555 1_555 1_555
C9 C12 C7 90.100 1_555 1_555 1_555
C9 C12 C10 28.855 1_555 1_555 1_555
C6 C12 C9 59.051 1_555 1_555 1_555
C6 C12 O4 171.7(5) 1_555 1_555 1_555
C6 C12 O5 127.6(8) 1_555 1_555 1_555
C6 C12 C13 158(2) 1_555 1_555 1_555
C6 C12 C7 31.112 1_555 1_555 1_555
C6 C12 C10 87.899 1_555 1_555 1_555
C2 C12 C6 58.917 1_555 1_555 1_555
C2 C12 C9 117.849 1_555 1_555 1_555
C2 C12 O4 124.9(9) 1_555 1_555 1_555
C2 C12 O5 80.9(7) 1_555 1_555 1_555
C2 C12 C13 103(2) 1_555 1_555 1_555
C2 C12 C7 27.805 1_555 1_555 1_555
C2 C12 C10 146.514 1_555 1_555 1_555
C8 C12 C2 88.606 1_555 1_555 1_555
C8 C12 C6 29.726 1_555 1_555 1_555
C8 C12 C9 29.331 1_555 1_555 1_555
C8 C12 O4 145.1(8) 1_555 1_555 1_555
C8 C12 O5 144.9(10) 1_555 1_555 1_555
C8 C12 C13 163.3(18) 1_555 1_555 1_555
C8 C12 C7 60.813 1_555 1_555 1_555
C8 C12 C10 58.185 1_555 1_555 1_555
O2 C12 C8 130.3(5) 1_555 1_555 1_555
O2 C12 C2 51.7(6) 1_555 1_555 1_555
O2 C12 C6 104.9(5) 1_555 1_555 1_555
O2 C12 C9 149.2(5) 1_555 1_555 1_555
O2 C12 O4 76.0(11) 1_555 1_555 1_555
O2 C12 O5 65.7(12) 1_555 1_555 1_555
O2 C12 C13 66.1(19) 1_555 1_555 1_555
O2 C12 C7 76.5(6) 1_555 1_555 1_555
O2 C12 C10 148.3(6) 1_555 1_555 1_555
C1 C12 O2 24.3(11) 1_555 1_555 1_555
C1 C12 C8 116.6(7) 1_555 1_555 1_555
C1 C12 C2 29.4(8) 1_555 1_555 1_555
C1 C12 C6 87.5(8) 1_555 1_555 1_555
C1 C12 C9 144.7(7) 1_555 1_555 1_555
C1 C12 O4 95.7(12) 1_555 1_555 1_555
C1 C12 O5 63.6(11) 1_555 1_555 1_555
C1 C12 C13 77(2) 1_555 1_555 1_555
C1 C12 C7 56.7(8) 1_555 1_555 1_555
C1 C12 C10 166.9(8) 1_555 1_555 1_555
loop_
_geom_bond_atom_site_label_1
_geom_bond_atom_site_label_2
_geom_bond_distance
_geom_bond_site_symmetry_1
_geom_bond_site_symmetry_2
Ga1 O1 1.82(3) 1_555 1_555
Ga1 O1 1.87(3) 1_555 2_555
Ga1 O5 1.98(3) 1_555 4_576
Ga1 O4 1.98(3) 1_555 3_564
Ga1 O3 2.01(5) 1_555 2_545
Ga1 O2 2.06(5) 1_555 1_555
Ga1 C13 2.88(4) 1_555 4_576
Ga1 C1 2.92(6) 1_555 2_545
Ga1 C13 2.96(5) 1_555 3_564
Ga1 C1 3.15(6) 1_555 1_555
O1 Ga1 1.82(3) 1_555 1_555
O1 Ga1 1.87(3) 1_555 2_545
O1 O5 2.62(5) 1_555 4_576
O1 O2 2.63(7) 1_555 2_545
O1 O3 2.65(5) 1_555 1_545
O1 O4 2.70(4) 1_555 3_564
O1 O5 2.72(4) 1_555 3_564
O1 O4 2.80(4) 1_555 4_566
O1 O2 2.84(5) 1_555 1_555
O1 O3 2.84(7) 1_555 2_545
O1 C13 2.88(4) 1_555 3_564
O1 C1 3.00(8) 1_555 2_545
O1 O4 3.18(7) 1_555 1_555
O2 C1 1.30(6) 1_555 1_555
O2 Ga1 2.06(5) 1_555 1_555
O2 O3 2.29(4) 1_555 1_555
O2 C2 2.45(4) 1_555 1_555
O2 O1 2.63(7) 1_555 2_555
O2 C13 2.76(6) 1_555 1_555
O2 O1 2.84(5) 1_555 1_555
O2 O4 2.85(5) 1_555 3_564
O2 O5 2.94(5) 1_555 1_555
O2 C12 2.99(5) 1_555 1_555
O2 C7 3.00(5) 1_555 1_555
O2 O5 3.19(6) 1_555 4_576
O3 C1 1.28(6) 1_555 1_555
O3 Ga1 2.01(5) 1_555 2_555
O3 O5 2.23(5) 1_555 3_574
O3 O2 2.29(4) 1_555 1_555
O3 C2 2.43(4) 1_555 1_555
O3 O1 2.65(5) 1_555 1_565
O3 O1 2.84(7) 1_555 2_555
O3 C3 2.88(4) 1_555 1_555
O3 O4 3.02(5) 1_555 4_576
O3 C13 3.16(6) 1_555 3_574
C1 O3 1.28(6) 1_555 1_555
C1 O2 1.30(6) 1_555 1_555
C1 C2 1.56(5) 1_555 1_555
C1 C3 2.52(5) 1_555 1_555
C1 C7 2.65(6) 1_555 1_555
C1 Ga1 2.92(6) 1_555 2_555
C1 O5 2.97(6) 1_555 1_555
C1 O5 2.99(6) 1_555 3_574
C1 O1 3.00(8) 1_555 2_555
C1 C12 3.15(5) 1_555 1_555
C1 Ga1 3.15(6) 1_555 1_555
C1 C13 3.19(7) 1_555 1_555
C13 O5 1.27(6) 1_555 1_555
C13 O4 1.31(7) 1_555 1_555
C13 C12 1.55(4) 1_555 1_555
C13 C10 2.43(5) 1_555 1_555
C13 C7 2.71(4) 1_555 1_555
C13 O2 2.76(6) 1_555 1_555
C13 Ga1 2.88(4) 1_555 4_576
C13 O1 2.88(4) 1_555 3_565
C13 Ga1 2.96(5) 1_555 3_565
C13 O3 3.16(6) 1_555 3_575
C13 C1 3.19(7) 1_555 1_555
O4 C13 1.31(7) 1_555 1_555
O4 Ga1 1.98(3) 1_555 3_565
O4 O5 2.38(4) 1_555 1_555
O4 C12 2.41(3) 1_555 1_555
O4 O1 2.70(4) 1_555 3_565
O4 C10 2.74(4) 1_555 1_555
O4 O1 2.80(4) 1_555 4_566
O4 O2 2.85(5) 1_555 3_565
O4 O3 3.02(5) 1_555 4_576
O4 O1 3.18(7) 1_555 1_555
O5 C13 1.27(6) 1_555 1_555
O5 Ga1 1.98(3) 1_555 4_576
O5 O3 2.23(5) 1_555 3_575
O5 C12 2.32(3) 1_555 1_555
O5 O4 2.38(4) 1_555 1_555
O5 O1 2.62(5) 1_555 4_576
O5 O1 2.72(4) 1_555 3_565
O5 O2 2.94(5) 1_555 1_555
O5 C1 2.97(6) 1_555 1_555
O5 C1 2.99(6) 1_555 3_575
O5 C7 3.00(3) 1_555 1_555
O5 C2 3.16(3) 1_555 1_555
O5 O2 3.19(6) 1_555 4_576
C2 C3 1.41501 1_555 1_555
C2 C7 1.43544 1_555 1_555
C2 C1 1.56(5) 1_555 1_555
C2 O3 2.43(4) 1_555 1_555
C2 O2 2.45(4) 1_555 1_555
C2 C4 2.44900 1_555 1_555
C2 C6 2.45870 1_555 1_555
C2 C12 2.53931 1_555 1_555
C2 C5 2.82716 1_555 1_555
C2 O5 3.16(3) 1_555 1_555
C3 C4 1.38910 1_555 1_555
C3 C2 1.41501 1_555 1_555
C3 C5 2.40349 1_555 1_555
C3 C7 2.45461 1_555 1_555
C3 C1 2.52(5) 1_555 1_555
C3 C6 2.79120 1_555 1_555
C3 O3 2.88(4) 1_555 1_555
C4 C5 1.38484 1_555 1_555
C4 C3 1.38910 1_555 1_555
C4 C6 2.41802 1_555 1_555
C4 C2 2.44900 1_555 1_555
C4 C7 2.84028 1_555 1_555
C5 C4 1.38484 1_555 1_555
C5 C6 1.40122 1_555 1_555
C5 C3 2.40349 1_555 1_555
C5 C8 2.40477 1_555 1_555
C5 C7 2.46797 1_555 1_555
C5 C2 2.82716 1_555 1_555
C6 C5 1.40122 1_555 1_555
C6 C8 1.40141 1_555 1_555
C6 C7 1.43563 1_555 1_555
C6 C9 2.41766 1_555 1_555
C6 C4 2.41802 1_555 1_555
C6 C12 2.45808 1_555 1_555
C6 C2 2.45870 1_555 1_555
C6 C10 2.79076 1_555 1_555
C6 C3 2.79120 1_555 1_555
C7 C12 1.43529 1_555 1_555
C7 C2 1.43544 1_555 1_555
C7 C6 1.43563 1_555 1_555
C7 C10 2.45431 1_555 1_555
C7 C3 2.45461 1_555 1_555
C7 C5 2.46797 1_555 1_555
C7 C8 2.46808 1_555 1_555
C7 C1 2.65(6) 1_555 1_555
C7 C13 2.71(4) 1_555 1_555
C7 C9 2.83969 1_555 1_555
C7 C4 2.84028 1_555 1_555
C7 O5 3.00(3) 1_555 1_555
C7 O2 3.00(5) 1_555 1_555
C8 C9 1.38456 1_555 1_555
C8 C6 1.40141 1_555 1_555
C8 C10 2.40282 1_555 1_555
C8 C5 2.40477 1_555 1_555
C8 C7 2.46808 1_555 1_555
C8 C12 2.82626 1_555 1_555
C9 C8 1.38456 1_555 1_555
C9 C10 1.38822 1_555 1_555
C9 C6 2.41766 1_555 1_555
C9 C12 2.44776 1_555 1_555
C9 C7 2.83969 1_555 1_555
C10 C9 1.38822 1_555 1_555
C10 C12 1.41463 1_555 1_555
C10 C8 2.40282 1_555 1_555
C10 C13 2.43(5) 1_555 1_555
C10 C7 2.45431 1_555 1_555
C10 O4 2.74(4) 1_555 1_555
C10 C6 2.79076 1_555 1_555
C12 C10 1.41463 1_555 1_555
C12 C7 1.43529 1_555 1_555
C12 C13 1.55(4) 1_555 1_555
C12 O5 2.32(3) 1_555 1_555
C12 O4 2.41(3) 1_555 1_555
C12 C9 2.44776 1_555 1_555
C12 C6 2.45808 1_555 1_555
C12 C2 2.53931 1_555 1_555
C12 C8 2.82626 1_555 1_555
C12 O2 2.99(5) 1_555 1_555
C12 C1 3.15(5) 1_555 1_555
loop_
_pd_proc_point_id
_pd_meas_2theta_scan
_pd_proc_intensity_total
_pd_calc_intensity_total
_pd_proc_ls_weight
1 3.49500 7934.32060 7674.00000 0.00013
2 3.51000 7912.75738 7575.00000 0.00013
3 3.52500 7891.56201 7781.00000 0.00013
4 3.54000 7870.72954 7820.00000 0.00013
5 3.55500 7850.25501 7427.00000 0.00013
6 3.57000 7830.13358 7693.00000 0.00013
7 3.58500 7810.36043 7615.00000 0.00013
8 3.60000 7790.93081 7622.00000 0.00013
9 3.61500 7771.84002 7921.00000 0.00013
10 3.63000 7753.08341 7805.00000 0.00013
11 3.64500 7734.65641 7805.00000 0.00013
12 3.66000 7716.55448 7553.00000 0.00013
13 3.67500 7698.77315 7502.00000 0.00013
14 3.69000 7681.30801 7669.00000 0.00013
15 3.70500 7664.15469 7676.00000 0.00013
16 3.72000 7647.30889 7578.00000 0.00013
17 3.73500 7630.76637 7754.00000 0.00013
18 3.75000 7614.52292 7645.00000 0.00013
19 3.76500 7598.57442 7588.00000 0.00013
20 3.78000 7582.91679 7352.00000 0.00014
21 3.79500 7567.54601 7432.00000 0.00013
22 3.81000 7552.45812 7455.00000 0.00013
23 3.82500 7537.64921 7813.00000 0.00013
24 3.84000 7523.11544 7313.00000 0.00014
25 3.85500 7508.85301 7404.00000 0.00014
26 3.87000 7494.85820 7188.00000 0.00014
27 3.88500 7481.12735 7319.00000 0.00014
28 3.90000 7467.65684 7342.00000 0.00014
29 3.91500 7454.44314 7355.00000 0.00014
30 3.93000 7441.48274 7316.00000 0.00014
31 3.94500 7428.77224 7418.00000 0.00013
32 3.96000 7416.30828 7325.00000 0.00014
33 3.97500 7404.08757 7346.00000 0.00014
34 3.99000 7392.10688 7491.00000 0.00013
35 4.00500 7380.36306 7343.00000 0.00014
36 4.02000 7368.85302 7257.00000 0.00014
37 4.03500 7357.57375 7408.00000 0.00013
38 4.05000 7346.52231 7292.00000 0.00014
39 4.06500 7335.69582 7336.00000 0.00014
40 4.08000 7325.09151 7366.00000 0.00014
41 4.09500 7314.70667 7332.00000 0.00014
42 4.11000 7304.53867 7432.00000 0.00013
43 4.12500 7294.58498 7167.00000 0.00014
44 4.14000 7284.84315 7260.00000 0.00014
45 4.15500 7275.31084 7380.00000 0.00014
46 4.17000 7265.98578 7240.00000 0.00014
47 4.18500 7256.86584 7420.00000 0.00013
48 4.20000 7247.94896 7185.00000 0.00014
49 4.21500 7239.23323 6956.00000 0.00014
50 4.23000 7230.71685 7210.00000 0.00014
51 4.24500 7222.39815 7234.00000 0.00014
52 4.26000 7214.27559 6965.00000 0.00014
53 4.27500 7206.34778 7170.00000 0.00014
54 4.29000 7198.61351 7168.00000 0.00014
55 4.30500 7191.07171 7150.00000 0.00014
56 4.32000 7183.72153 7558.00000 0.00013
57 4.33500 7176.56229 7316.00000 0.00014
58 4.35000 7169.59355 7340.00000 0.00014
59 4.36500 7162.81510 7104.00000 0.00014
60 4.38000 7156.22700 7195.00000 0.00014
61 4.39500 7149.82959 7155.00000 0.00014
62 4.41000 7143.62357 7366.00000 0.00014
63 4.42500 7137.60994 7194.00000 0.00014
64 4.44000 7131.79017 7293.00000 0.00014
65 4.45500 7126.16613 7219.00000 0.00014
66 4.47000 7120.74024 7277.00000 0.00014
67 4.48500 7115.51550 7062.00000 0.00014
68 4.50000 7110.49556 7084.00000 0.00014
69 4.51500 7105.68489 7178.00000 0.00014
70 4.53000 7101.08881 7606.00000 0.00013
71 4.54500 7096.71372 7130.00000 0.00014
72 4.56000 7092.56727 7216.00000 0.00014
73 4.57500 7088.65857 6972.00000 0.00014
74 4.59000 7084.99852 7116.00000 0.00014
75 4.60500 7081.60017 7261.00000 0.00014
76 4.62000 7078.47923 7181.00000 0.00014
77 4.63500 7075.65467 7154.00000 0.00014
78 4.65000 7073.14964 7359.00000 0.00014
79 4.66500 7070.99263 7318.00000 0.00014
80 4.68000 7069.21921 7239.00000 0.00014
81 4.69500 7067.87510 7449.00000 0.00013
82 4.71000 7067.02271 7421.00000 0.00013
83 4.72500 7066.75782 7319.00000 0.00014
84 4.74000 7067.25163 7366.00000 0.00014
85 4.75500 7068.84552 7393.00000 0.00014
86 4.77000 7072.22702 7484.00000 0.00013
87 4.78500 7078.68020 7537.00000 0.00013
88 4.80000 7090.31549 7486.00000 0.00013
89 4.81500 7110.08360 7668.00000 0.00013
90 4.83000 7141.35846 7435.00000 0.00013
91 4.84500 7187.00310 7621.00000 0.00013
92 4.86000 7248.21746 7808.00000 0.00013
93 4.87500 7324.05329 7619.00000 0.00013
94 4.89000 7412.08989 7884.00000 0.00013
95 4.90500 7509.55158 7827.00000 0.00013
96 4.92000 7614.11392 7666.00000 0.00013
97 4.93500 7724.22058 7988.00000 0.00013
98 4.95000 7839.02797 8221.00000 0.00012
99 4.96500 7958.18655 7826.00000 0.00013
100 4.98000 8081.62686 8202.00000 0.00012
101 4.99500 8209.41919 8337.00000 0.00012
102 5.01000 8341.70255 8367.00000 0.00012
103 5.02500 8478.65522 8907.00000 0.00011
104 5.04000 8620.48453 8687.00000 0.00012
105 5.05500 8767.42385 8948.00000 0.00011
106 5.07000 8919.73238 8785.00000 0.00011
107 5.08500 9077.69604 8977.00000 0.00011
108 5.10000 9241.62904 9185.00000 0.00011
109 5.11500 9411.87606 9562.00000 0.00010
110 5.13000 9588.81502 9490.00000 0.00011
111 5.14500 9772.86030 9818.00000 0.00010
112 5.16000 9964.46670 9934.00000 0.00010
113 5.17500 10164.13403 10168.00000 0.00010
114 5.19000 10372.41250 10105.00000 0.00010
115 5.20500 10589.90900 10341.00000 0.00010
116 5.22000 10817.29449 10670.00000 0.00009
117 5.23500 11055.31269 11445.00000 0.00009
118 5.25000 11304.79023 11165.00000 0.00009
119 5.26500 11566.64874 11631.00000 0.00009
120 5.28000 11841.91920 11348.00000 0.00009
121 5.29500 12131.75900 11855.00000 0.00008
122 5.31000 12437.47252 12269.00000 0.00008
123 5.32500 12760.53599 12664.00000 0.00008
124 5.34000 13102.62766 12899.00000 0.00008
125 5.35500 13465.66489 13677.00000 0.00007
126 5.37000 13851.85000 13965.00000 0.00007
127 5.38500 14263.72737 14378.00000 0.00007
128 5.40000 14704.25552 15143.00000 0.00007
129 5.41500 15176.89883 15447.00000 0.00006
130 5.43000 15685.74595 15909.00000 0.00006
131 5.44500 16235.66463 16573.00000 0.00006
132 5.46000 16832.50762 17120.00000 0.00006
133 5.47500 17483.39158 18075.00000 0.00006
134 5.49000 18197.08359 18975.00000 0.00005
135 5.50500 18984.55207 19481.00000 0.00005
136 5.52000 19859.78193 20751.00000 0.00005
137 5.53500 20841.04396 21294.00000 0.00005
138 5.55000 21953.00884 22568.00000 0.00004
139 5.56500 23230.51642 24459.00000 0.00004
140 5.58000 24725.47383 25479.00000 0.00004
141 5.59500 26518.54455 27840.00000 0.00004
142 5.61000 28734.10799 29079.00000 0.00003
143 5.62500 31544.93099 31173.00000 0.00003
144 5.64000 35130.65304 35197.00000 0.00003
145 5.65500 39541.17459 39722.00000 0.00003
146 5.67000 44458.85945 41926.00000 0.00002
147 5.68500 48973.55502 48780.00000 0.00002
148 5.70000 51591.73925 50000.00000 0.00002
149 5.71500 50676.37105 46731.00000 0.00002
150 5.73000 45446.33427 44523.00000 0.00002
151 5.74500 37056.30994 38499.00000 0.00003
152 5.76000 27996.98248 30081.00000 0.00003
153 5.77500 20302.67615 19617.00000 0.00005
154 5.79000 14826.37955 13774.00000 0.00007
155 5.80500 11459.89423 11040.00000 0.00009
156 5.82000 9619.22067 9838.00000 0.00010
157 5.83500 8678.97179 8932.00000 0.00011
158 5.85000 8192.23886 8554.00000 0.00012
159 5.86500 7911.98317 8142.00000 0.00012
160 5.88000 7725.11305 7844.00000 0.00013
161 5.89500 7585.63903 7376.00000 0.00014
162 5.91000 7474.98313 7332.00000 0.00014
163 5.92500 7384.49731 7256.00000 0.00014
164 5.94000 7309.18579 7502.00000 0.00013
165 5.95500 7245.67445 7070.00000 0.00014
166 5.97000 7191.51113 7126.00000 0.00014
167 5.98500 7144.85564 6744.00000 0.00015
168 6.00000 7104.30119 6879.00000 0.00015
169 6.01500 7068.75696 6899.00000 0.00014
170 6.03000 7037.36632 6828.00000 0.00015
171 6.04500 7009.44886 6770.00000 0.00015
172 6.06000 6984.45852 6934.00000 0.00014
173 6.07500 6961.95280 6737.00000 0.00015
174 6.09000 6941.56998 6770.00000 0.00015
175 6.10500 6923.01198 6827.00000 0.00015
176 6.12000 6906.03130 6773.00000 0.00015
177 6.13500 6890.42098 6665.00000 0.00015
178 6.15000 6876.00688 6774.00000 0.00015
179 6.16500 6862.64155 6687.00000 0.00015
180 6.18000 6850.19947 6760.00000 0.00015
181 6.19500 6838.57318 6816.00000 0.00015
182 6.21000 6827.67026 6699.00000 0.00015
183 6.22500 6817.41085 6723.00000 0.00015
184 6.24000 6807.72563 6574.00000 0.00015
185 6.25500 6798.55417 6644.00000 0.00015
186 6.27000 6789.84363 6726.00000 0.00015
187 6.28500 6781.54757 6572.00000 0.00015
188 6.30000 6773.62508 6795.00000 0.00015
189 6.31500 6766.04000 6477.00000 0.00015
190 6.33000 6758.76024 6464.00000 0.00015
191 6.34500 6751.75725 6618.00000 0.00015
192 6.36000 6745.00557 6745.00000 0.00015
193 6.37500 6738.48242 6335.00000 0.00016
194 6.39000 6732.16737 6554.00000 0.00015
195 6.40500 6726.04204 6618.00000 0.00015
196 6.42000 6720.08988 6495.00000 0.00015
197 6.43500 6714.29594 6819.00000 0.00015
198 6.45000 6708.64667 6668.00000 0.00015
199 6.46500 6703.12980 6712.00000 0.00015
200 6.48000 6697.73416 6545.00000 0.00015
201 6.49500 6692.44959 6539.00000 0.00015
202 6.51000 6687.26682 6581.00000 0.00015
203 6.52500 6682.17737 6727.00000 0.00015
204 6.54000 6677.17349 6563.00000 0.00015
205 6.55500 6672.24808 6642.00000 0.00015
206 6.57000 6667.39459 6573.00000 0.00015
207 6.58500 6662.60703 6603.00000 0.00015
208 6.60000 6657.87987 6436.00000 0.00016
209 6.61500 6653.20801 6466.00000 0.00015
210 6.63000 6648.58674 6405.00000 0.00016
211 6.64500 6644.01172 6851.00000 0.00015
212 6.66000 6639.47892 6426.00000 0.00016
213 6.67500 6634.98461 6492.00000 0.00015
214 6.69000 6630.52533 6281.00000 0.00016
215 6.70500 6626.09787 6406.00000 0.00016
216 6.72000 6621.69925 6450.00000 0.00016
217 6.73500 6617.32676 6407.00000 0.00016
218 6.75000 6612.97786 6383.00000 0.00016
219 6.76500 6608.65016 6514.00000 0.00015
220 6.78000 6604.34142 6550.00000 0.00015
221 6.79500 6600.04955 6416.00000 0.00016
222 6.81000 6595.77261 6606.00000 0.00015
223 6.82500 6591.50879 6473.00000 0.00015
224 6.84000 6587.25637 6487.00000 0.00015
225 6.85500 6583.01379 6553.00000 0.00015
226 6.87000 6578.77957 6507.00000 0.00015
227 6.88500 6574.55231 6551.00000 0.00015
228 6.90000 6570.33073 6576.00000 0.00015
229 6.91500 6566.11363 6462.00000 0.00015
230 6.93000 6561.89987 6578.00000 0.00015
231 6.94500 6557.68842 6385.00000 0.00016
232 6.96000 6553.47829 6392.00000 0.00016
233 6.97500 6549.26858 6529.00000 0.00015
234 6.99000 6545.05845 6362.00000 0.00016
235 7.00500 6540.84714 6490.00000 0.00015
236 7.02000 6536.63393 6423.00000 0.00016
237 7.03500 6532.41821 6173.00000 0.00016
238 7.05000 6528.19940 6477.00000 0.00015
239 7.06500 6523.97706 6489.00000 0.00015
240 7.08000 6519.75084 6109.00000 0.00016
241 7.09500 6515.52058 6358.00000 0.00016
242 7.11000 6511.28641 6387.00000 0.00016
243 7.12500 6507.04914 6369.00000 0.00016
244 7.14000 6502.81172 6662.00000 0.00015
245 7.15500 6498.59659 6439.00000 0.00016
246 7.17000 6494.33383 6594.00000 0.00015
247 7.18500 6490.05001 6302.00000 0.00016
248 7.20000 6485.75744 6396.00000 0.00016
249 7.21500 6481.45579 6319.00000 0.00016
250 7.23000 6477.14477 6547.00000 0.00015
251 7.24500 6472.82410 6423.00000 0.00016
252 7.26000 6468.49351 6482.00000 0.00015
253 7.27500 6464.15277 6447.00000 0.00016
254 7.29000 6459.80166 6416.00000 0.00016
255 7.30500 6455.43998 6269.00000 0.00016
256 7.32000 6451.06755 6247.00000 0.00016
257 7.33500 6446.68419 6356.00000 0.00016
258 7.35000 6442.28977 6592.00000 0.00015
259 7.36500 6437.88413 6258.00000 0.00016
260 7.38000 6433.46716 6315.00000 0.00016
261 7.39500 6429.03875 6202.00000 0.00016
262 7.41000 6424.59880 6299.00000 0.00016
263 7.42500 6420.14723 6379.00000 0.00016
264 7.44000 6415.68398 6289.00000 0.00016
265 7.45500 6411.20897 6228.00000 0.00016
266 7.47000 6406.72217 6407.00000 0.00016
267 7.48500 6402.22353 6363.00000 0.00016
268 7.50000 6397.71302 6260.00000 0.00016
269 7.51500 6393.19063 6452.00000 0.00015
270 7.53000 6388.65635 6399.00000 0.00016
271 7.54500 6384.11017 6231.00000 0.00016
272 7.56000 6379.55212 6340.00000 0.00016
273 7.57500 6374.98219 6270.00000 0.00016
274 7.59000 6370.40042 6356.00000 0.00016
275 7.60500 6365.80684 6443.00000 0.00016
276 7.62000 6361.20148 6261.00000 0.00016
277 7.63500 6356.58439 6390.00000 0.00016
278 7.65000 6351.95563 6196.00000 0.00016
279 7.66500 6347.31526 6292.00000 0.00016
280 7.68000 6342.66333 6343.00000 0.00016
281 7.69500 6337.99993 6251.00000 0.00016
282 7.71000 6333.32512 6377.00000 0.00016
283 7.72500 6328.63899 6244.00000 0.00016
284 7.74000 6323.94163 6096.00000 0.00016
285 7.75500 6319.23313 6272.00000 0.00016
286 7.77000 6314.51359 6345.00000 0.00016
287 7.78500 6309.78311 6044.00000 0.00017
288 7.80000 6305.04179 6191.00000 0.00016
289 7.81500 6300.28975 6303.00000 0.00016
290 7.83000 6295.52711 6218.00000 0.00016
291 7.84500 6290.75399 6503.00000 0.00015
292 7.86000 6285.97050 6353.00000 0.00016
293 7.87500 6281.17677 6431.00000 0.00016
294 7.89000 6276.37294 6179.00000 0.00016
295 7.90500 6271.55914 6209.00000 0.00016
296 7.92000 6266.73551 6185.00000 0.00016
297 7.93500 6261.90219 6441.00000 0.00016
298 7.95000 6257.05933 6258.00000 0.00016
299 7.96500 6252.20706 6378.00000 0.00016
300 7.98000 6247.34554 6310.00000 0.00016
301 7.99500 6242.47493 6262.00000 0.00016
302 8.01000 6237.59538 6172.00000 0.00016
303 8.02500 6232.70704 6085.00000 0.00016
304 8.04000 6227.81009 6247.00000 0.00016
305 8.05500 6222.90467 6514.00000 0.00015
306 8.07000 6217.99096 6189.00000 0.00016
307 8.08500 6213.06912 6230.00000 0.00016
308 8.10000 6208.13932 6003.00000 0.00017
309 8.11500 6203.20174 6090.00000 0.00016
310 8.13000 6198.25655 6141.00000 0.00016
311 8.14500 6193.30392 6118.00000 0.00016
312 8.16000 6188.34402 6106.00000 0.00016
313 8.17500 6183.37705 6286.00000 0.00016
314 8.19000 6178.40318 6247.00000 0.00016
315 8.20500 6173.42258 6164.00000 0.00016
316 8.22000 6168.43545 6257.00000 0.00016
317 8.23500 6163.44197 6192.00000 0.00016
318 8.25000 6158.44232 6106.00000 0.00016
319 8.26500 6153.43670 6285.00000 0.00016
320 8.28000 6148.42528 6107.00000 0.00016
321 8.29500 6143.40827 6228.00000 0.00016
322 8.31000 6138.38585 6266.00000 0.00016
323 8.32500 6133.35821 6118.00000 0.00016
324 8.34000 6128.32555 6212.00000 0.00016
325 8.35500 6123.28806 6050.00000 0.00017
326 8.37000 6118.24593 6131.00000 0.00016
327 8.38500 6113.19936 6212.00000 0.00016
328 8.40000 6108.14855 6093.00000 0.00016
329 8.41500 6103.09370 6245.00000 0.00016
330 8.43000 6098.03499 6042.00000 0.00017
331 8.44500 6092.97263 5948.00000 0.00017
332 8.46000 6087.90682 6099.00000 0.00016
333 8.47500 6082.83776 6226.00000 0.00016
334 8.49000 6077.76565 5769.00000 0.00017
335 8.50500 6072.69069 6042.00000 0.00017
336 8.52000 6067.61307 6080.00000 0.00016
337 8.53500 6062.53301 6048.00000 0.00017
338 8.55000 6057.45069 6271.00000 0.00016
339 8.56500 6052.36633 6141.00000 0.00016
340 8.58000 6047.28012 6176.00000 0.00016
341 8.59500 6042.19228 5995.00000 0.00017
342 8.61000 6037.10299 6038.00000 0.00017
343 8.62500 6032.01246 6076.00000 0.00016
344 8.64000 6026.92090 6217.00000 0.00016
345 8.65500 6021.82851 6064.00000 0.00016
346 8.67000 6016.73548 6095.00000 0.00016
347 8.68500 6011.64203 6084.00000 0.00016
348 8.70000 6006.54836 6077.00000 0.00016
349 8.71500 6001.45466 6024.00000 0.00017
350 8.73000 5996.36115 5946.00000 0.00017
351 8.74500 5991.26802 5979.00000 0.00017
352 8.76000 5986.17522 6272.00000 0.00016
353 8.77500 5981.08275 5974.00000 0.00017
354 8.79000 5975.99078 5985.00000 0.00017
355 8.80500 5970.89951 5841.00000 0.00017
356 8.82000 5965.80913 5869.00000 0.00017
357 8.83500 5960.71983 5967.00000 0.00017
358 8.85000 5955.63180 5906.00000 0.00017
359 8.86500 5950.54523 5941.00000 0.00017
360 8.88000 5945.46031 6085.00000 0.00016
361 8.89500 5940.37722 6018.00000 0.00017
362 8.91000 5935.29615 5927.00000 0.00017
363 8.92500 5930.21729 6076.00000 0.00016
364 8.94000 5925.14081 6001.00000 0.00017
365 8.95500 5920.06690 5976.00000 0.00017
366 8.97000 5914.99574 5988.00000 0.00017
367 8.98500 5909.92750 5955.00000 0.00017
368 9.00000 5904.86236 6018.00000 0.00017
369 9.01500 5899.80050 6083.00000 0.00016
370 9.03000 5894.74208 5867.00000 0.00017
371 9.04500 5889.68728 6031.00000 0.00017
372 9.06000 5884.63627 5853.00000 0.00017
373 9.07500 5879.58921 5933.00000 0.00017
374 9.09000 5874.54626 6044.00000 0.00017
375 9.10500 5869.50759 5915.00000 0.00017
376 9.12000 5864.47334 6007.00000 0.00017
377 9.13500 5859.44368 5856.00000 0.00017
378 9.15000 5854.41874 5770.00000 0.00017
379 9.16500 5849.39868 5957.00000 0.00017
380 9.18000 5844.38364 6078.00000 0.00016
381 9.19500 5839.37375 5650.00000 0.00018
382 9.21000 5834.36913 5895.00000 0.00017
383 9.22500 5829.36992 5882.00000 0.00017
384 9.24000 5824.37623 5857.00000 0.00017
385 9.25500 5819.38816 6100.00000 0.00016
386 9.27000 5814.40581 5996.00000 0.00017
387 9.28500 5809.42928 5984.00000 0.00017
388 9.30000 5804.45864 5794.00000 0.00017
389 9.31500 5799.49395 5848.00000 0.00017
390 9.33000 5794.53526 5829.00000 0.00017
391 9.34500 5789.58259 5986.00000 0.00017
392 9.36000 5784.63597 5839.00000 0.00017
393 9.37500 5779.69535 5972.00000 0.00017
394 9.39000 5774.76070 5950.00000 0.00017
395 9.40500 5769.83193 5842.00000 0.00017
396 9.42000 5764.90889 5732.00000 0.00017
397 9.43500 5759.99139 5729.00000 0.00017
398 9.45000 5755.07915 5714.00000 0.00018
399 9.46500 5750.17180 6123.00000 0.00016
400 9.48000 5745.26884 5775.00000 0.00017
401 9.49500 5740.36957 5864.00000 0.00017
402 9.51000 5735.47306 5631.00000 0.00018
403 9.52500 5730.57798 5700.00000 0.00018
404 9.54000 5725.68246 5773.00000 0.00017
405 9.55500 5720.78367 5740.00000 0.00017
406 9.57000 5715.87718 5739.00000 0.00017
407 9.58500 5710.95528 5873.00000 0.00017
408 9.60000 5706.00248 5745.00000 0.00017
409 9.61500 5700.97679 5776.00000 0.00017
410 9.63000 5695.76428 5826.00000 0.00017
411 9.64500 5690.79588 5738.00000 0.00017
412 9.66000 5686.11355 5765.00000 0.00017
413 9.67500 5681.44292 5810.00000 0.00017
414 9.69000 5676.78416 5744.00000 0.00017
415 9.70500 5672.13746 5760.00000 0.00017
416 9.72000 5667.50297 5833.00000 0.00017
417 9.73500 5662.88090 5682.00000 0.00018
418 9.75000 5658.27155 5783.00000 0.00017
419 9.76500 5653.67470 5679.00000 0.00018
420 9.78000 5649.09060 5679.00000 0.00018
421 9.79500 5644.51953 5814.00000 0.00017
422 9.81000 5639.96166 5712.00000 0.00018
423 9.82500 5635.41716 5823.00000 0.00017
424 9.84000 5630.88620 5689.00000 0.00018
425 9.85500 5626.36893 5518.00000 0.00018
426 9.87000 5621.86552 5714.00000 0.00018
427 9.88500 5617.37615 5795.00000 0.00017
428 9.90000 5612.90097 5472.00000 0.00018
429 9.91500 5608.44016 5635.00000 0.00018
430 9.93000 5603.99388 5609.00000 0.00018
431 9.94500 5599.56230 5686.00000 0.00018
432 9.96000 5595.14558 5850.00000 0.00017
433 9.97500 5590.74390 5772.00000 0.00017
434 9.99000 5586.35742 5816.00000 0.00017
435 10.00500 5581.98632 5597.00000 0.00018
436 10.02000 5577.63077 5628.00000 0.00018
437 10.03500 5573.29094 5640.00000 0.00018
438 10.05000 5568.96701 5835.00000 0.00017
439 10.06500 5564.65915 5642.00000 0.00018
440 10.08000 5560.36754 5725.00000 0.00017
441 10.09500 5556.09237 5751.00000 0.00017
442 10.11000 5551.83382 5752.00000 0.00017
443 10.12500 5547.59207 5564.00000 0.00018
444 10.14000 5543.36731 5565.00000 0.00018
445 10.15500 5539.15975 5590.00000 0.00018
446 10.17000 5534.96956 5869.00000 0.00017
447 10.18500 5530.79697 5552.00000 0.00018
448 10.20000 5526.64216 5619.00000 0.00018
449 10.21500 5522.50535 5430.00000 0.00018
450 10.23000 5518.38677 5528.00000 0.00018
451 10.24500 5514.28662 5559.00000 0.00018
452 10.26000 5510.20514 5532.00000 0.00018
453 10.27500 5506.14258 5477.00000 0.00018
454 10.29000 5502.09916 5605.00000 0.00018
455 10.30500 5498.07514 5595.00000 0.00018
456 10.32000 5494.07080 5529.00000 0.00018
457 10.33500 5490.08640 5566.00000 0.00018
458 10.35000 5486.12223 5513.00000 0.00018
459 10.36500 5482.17859 5551.00000 0.00018
460 10.38000 5478.25580 5566.00000 0.00018
461 10.39500 5474.35419 5543.00000 0.00018
462 10.41000 5470.47409 5642.00000 0.00018
463 10.42500 5466.61589 5678.00000 0.00018
464 10.44000 5462.77998 5528.00000 0.00018
465 10.45500 5458.96676 5568.00000 0.00018
466 10.47000 5455.17667 5443.00000 0.00018
467 10.48500 5451.41020 5467.00000 0.00018
468 10.50000 5447.66783 5595.00000 0.00018
469 10.51500 5443.95011 5451.00000 0.00018
470 10.53000 5440.25763 5601.00000 0.00018
471 10.54500 5436.59100 5395.00000 0.00019
472 10.56000 5432.95090 5330.00000 0.00019
473 10.57500 5429.33808 5534.00000 0.00018
474 10.59000 5425.75332 5620.00000 0.00018
475 10.60500 5422.19751 5244.00000 0.00019
476 10.62000 5418.67159 5481.00000 0.00018
477 10.63500 5415.17662 5514.00000 0.00018
478 10.65000 5411.71376 5518.00000 0.00018
479 10.66500 5408.28428 5728.00000 0.00017
480 10.68000 5404.88961 5511.00000 0.00018
481 10.69500 5401.53131 5576.00000 0.00018
482 10.71000 5398.21116 5488.00000 0.00018
483 10.72500 5394.93112 5492.00000 0.00018
484 10.74000 5391.69344 5460.00000 0.00018
485 10.75500 5388.50063 5625.00000 0.00018
486 10.77000 5385.35556 5478.00000 0.00018
487 10.78500 5382.26151 5542.00000 0.00018
488 10.80000 5379.22224 5568.00000 0.00018
489 10.81500 5376.24211 5502.00000 0.00018
490 10.83000 5373.32619 5357.00000 0.00019
491 10.84500 5370.48039 5407.00000 0.00018
492 10.86000 5367.71179 5341.00000 0.00019
493 10.87500 5365.02916 5686.00000 0.00018
494 10.89000 5362.44271 5433.00000 0.00018
495 10.90500 5359.96486 5393.00000 0.00019
496 10.92000 5357.61130 5245.00000 0.00019
497 10.93500 5355.40301 5333.00000 0.00019
498 10.95000 5353.37074 5346.00000 0.00019
499 10.96500 5351.56469 5389.00000 0.00019
500 10.98000 5350.07327 5295.00000 0.00019
501 10.99500 5349.05393 5511.00000 0.00018
502 11.01000 5348.77351 5375.00000 0.00019
503 11.02500 5349.64476 5434.00000 0.00018
504 11.04000 5352.23477 5547.00000 0.00018
505 11.05500 5357.21719 5436.00000 0.00018
506 11.07000 5365.24859 5498.00000 0.00018
507 11.08500 5376.78446 5434.00000 0.00018
508 11.10000 5391.94132 5374.00000 0.00019
509 11.11500 5410.53256 5516.00000 0.00018
510 11.13000 5432.23325 5530.00000 0.00018
511 11.14500 5456.73998 5423.00000 0.00018
512 11.16000 5483.87779 5510.00000 0.00018
513 11.17500 5513.60735 5420.00000 0.00018
514 11.19000 5545.83517 5546.00000 0.00018
515 11.20500 5580.89836 5677.00000 0.00018
516 11.22000 5619.09741 5668.00000 0.00018
517 11.23500 5660.82325 5656.00000 0.00018
518 11.25000 5706.56441 5595.00000 0.00018
519 11.26500 5756.92744 5584.00000 0.00018
520 11.28000 5812.67126 5798.00000 0.00017
521 11.29500 5874.76069 5923.00000 0.00017
522 11.31000 5944.45144 5691.00000 0.00018
523 11.32500 6023.43182 5962.00000 0.00017
524 11.34000 6114.06828 6166.00000 0.00016
525 11.35500 6219.82046 6208.00000 0.00016
526 11.37000 6345.85625 6592.00000 0.00015
527 11.38500 6499.67736 6597.00000 0.00015
528 11.40000 6691.01403 6855.00000 0.00015
529 11.41500 6929.47185 6897.00000 0.00014
530 11.43000 7218.20678 7225.00000 0.00014
531 11.44500 7543.60101 7421.00000 0.00013
532 11.46000 7864.80455 8146.00000 0.00012
533 11.47500 8110.42006 8191.00000 0.00012
534 11.49000 8189.61777 8481.00000 0.00012
535 11.50500 8026.71867 8205.00000 0.00012
536 11.52000 7623.15146 7874.00000 0.00013
537 11.53500 7084.34169 7286.00000 0.00014
538 11.55000 6546.26706 6638.00000 0.00015
539 11.56500 6098.99894 6112.00000 0.00016
540 11.58000 5774.75555 6095.00000 0.00016
541 11.59500 5564.58209 5532.00000 0.00018
542 11.61000 5439.53623 5419.00000 0.00018
543 11.62500 5368.38116 5216.00000 0.00019
544 11.64000 5327.21715 5306.00000 0.00019
545 11.65500 5301.37760 5328.00000 0.00019
546 11.67000 5283.20983 5217.00000 0.00019
547 11.68500 5269.15336 5243.00000 0.00019
548 11.70000 5257.60183 5411.00000 0.00018
549 11.71500 5247.78126 5244.00000 0.00019
550 11.73000 5239.25744 5274.00000 0.00019
551 11.74500 5231.74678 5335.00000 0.00019
552 11.76000 5225.04583 5273.00000 0.00019
553 11.77500 5219.00182 5237.00000 0.00019
554 11.79000 5213.49736 5316.00000 0.00019
555 11.80500 5208.44090 5199.00000 0.00019
556 11.82000 5203.76017 5280.00000 0.00019
557 11.83500 5199.39752 5343.00000 0.00019
558 11.85000 5195.30648 5206.00000 0.00019
559 11.86500 5191.44929 5282.00000 0.00019
560 11.88000 5187.79499 5117.00000 0.00020
561 11.89500 5184.31798 5235.00000 0.00019
562 11.91000 5180.99698 5259.00000 0.00019
563 11.92500 5177.81417 5136.00000 0.00019
564 11.94000 5174.75452 5280.00000 0.00019
565 11.95500 5171.80528 5124.00000 0.00020
566 11.97000 5168.95559 5032.00000 0.00020
567 11.98500 5166.19615 5232.00000 0.00019
568 12.00000 5163.51892 5270.00000 0.00019
569 12.01500 5160.91699 4938.00000 0.00020
570 12.03000 5158.38433 5151.00000 0.00019
571 12.04500 5155.91568 5211.00000 0.00019
572 12.06000 5153.50643 5120.00000 0.00020
573 12.07500 5151.15255 5392.00000 0.00019
574 12.09000 5148.85045 5224.00000 0.00019
575 12.10500 5146.59698 5233.00000 0.00019
576 12.12000 5144.38933 5141.00000 0.00019
577 12.13500 5142.22499 5119.00000 0.00020
578 12.15000 5140.10173 5124.00000 0.00020
579 12.16500 5138.01754 5234.00000 0.00019
580 12.18000 5135.97062 5140.00000 0.00019
581 12.19500 5133.95934 5289.00000 0.00019
582 12.21000 5131.98232 5192.00000 0.00019
583 12.22500 5130.03842 5241.00000 0.00019
584 12.24000 5128.12648 4984.00000 0.00020
585 12.25500 5126.24541 5067.00000 0.00020
586 12.27000 5124.39425 5152.00000 0.00019
587 12.28500 5122.57216 5365.00000 0.00019
588 12.30000 5120.77838 4997.00000 0.00020
589 12.31500 5119.01220 5096.00000 0.00020
590 12.33000 5117.27299 4925.00000 0.00020
591 12.34500 5115.56018 5036.00000 0.00020
592 12.36000 5113.87330 5075.00000 0.00020
593 12.37500 5112.21193 5053.00000 0.00020
594 12.39000 5110.57580 4978.00000 0.00020
595 12.40500 5108.96471 5173.00000 0.00019
596 12.42000 5107.37869 5102.00000 0.00020
597 12.43500 5105.81807 5054.00000 0.00020
598 12.45000 5104.28385 5104.00000 0.00020
599 12.46500 5102.77895 5051.00000 0.00020
600 12.48000 5101.31920 4998.00000 0.00020
601 12.49500 5099.87627 5099.00000 0.00020
602 12.51000 5098.41270 5032.00000 0.00020
603 12.52500 5096.97077 5103.00000 0.00020
604 12.54000 5095.55148 5141.00000 0.00019
605 12.55500 5094.16357 5023.00000 0.00020
606 12.57000 5092.77655 5124.00000 0.00020
607 12.58500 5091.40885 4903.00000 0.00020
608 12.60000 5090.06024 5008.00000 0.00020
609 12.61500 5088.73049 5141.00000 0.00019
610 12.63000 5087.41937 5011.00000 0.00020
611 12.64500 5086.12666 5111.00000 0.00020
612 12.66000 5084.85212 4915.00000 0.00020
613 12.67500 5083.59572 4894.00000 0.00020
614 12.69000 5082.35717 5076.00000 0.00020
615 12.70500 5081.13629 5114.00000 0.00020
616 12.72000 5079.93318 4803.00000 0.00021
617 12.73500 5078.74797 5005.00000 0.00020
618 12.75000 5077.58054 5037.00000 0.00020
619 12.76500 5076.43081 4976.00000 0.00020
620 12.78000 5075.29869 5210.00000 0.00019
621 12.79500 5074.18412 5076.00000 0.00020
622 12.81000 5073.08707 5098.00000 0.00020
623 12.82500 5072.00751 5027.00000 0.00020
624 12.84000 5070.94549 5047.00000 0.00020
625 12.85500 5069.90106 5038.00000 0.00020
626 12.87000 5068.87439 5056.00000 0.00020
627 12.88500 5067.86570 5031.00000 0.00020
628 12.90000 5066.87541 5068.00000 0.00020
629 12.91500 5065.90417 5073.00000 0.00020
630 12.93000 5064.95315 5060.00000 0.00020
631 12.94500 5064.02457 4880.00000 0.00020
632 12.96000 5063.12370 4976.00000 0.00020
633 12.97500 5062.27520 4948.00000 0.00020
634 12.99000 5061.45652 5179.00000 0.00019
635 13.00500 5060.55907 4973.00000 0.00020
636 13.02000 5059.67630 4980.00000 0.00020
637 13.03500 5058.80810 4849.00000 0.00021
638 13.05000 5057.95435 4936.00000 0.00020
639 13.06500 5057.11492 4954.00000 0.00020
640 13.08000 5056.28972 4941.00000 0.00020
641 13.09500 5055.47861 4884.00000 0.00020
642 13.11000 5054.68149 5035.00000 0.00020
643 13.12500 5053.89824 4924.00000 0.00020
644 13.14000 5053.12875 4979.00000 0.00020
645 13.15500 5052.37292 5085.00000 0.00020
646 13.17000 5051.63062 4974.00000 0.00020
647 13.18500 5050.90176 4939.00000 0.00020
648 13.20000 5050.18622 4972.00000 0.00020
649 13.21500 5049.48390 4916.00000 0.00020
650 13.23000 5048.79468 4990.00000 0.00020
651 13.24500 5048.11847 5042.00000 0.00020
652 13.26000 5047.45515 4935.00000 0.00020
653 13.27500 5046.80462 5015.00000 0.00020
654 13.29000 5046.16678 4926.00000 0.00020
655 13.30500 5045.54152 4944.00000 0.00020
656 13.32000 5044.92874 5041.00000 0.00020
657 13.33500 5044.32834 4971.00000 0.00020
658 13.35000 5043.74021 5001.00000 0.00020
659 13.36500 5043.16426 4894.00000 0.00020
660 13.38000 5042.60038 4849.00000 0.00021
661 13.39500 5042.04847 4985.00000 0.00020
662 13.41000 5041.50844 4982.00000 0.00020
663 13.42500 5040.98019 4732.00000 0.00021
664 13.44000 5040.46362 4908.00000 0.00020
665 13.45500 5039.95864 4898.00000 0.00020
666 13.47000 5039.46514 4923.00000 0.00020
667 13.48500 5038.98304 5158.00000 0.00019
668 13.50000 5038.51224 5017.00000 0.00020
669 13.51500 5038.05266 5116.00000 0.00020
670 13.53000 5037.60419 4928.00000 0.00020
671 13.54500 5037.16675 5027.00000 0.00020
672 13.56000 5036.74026 4965.00000 0.00020
673 13.57500 5036.32462 5050.00000 0.00020
674 13.59000 5035.91977 4969.00000 0.00020
675 13.60500 5035.52564 5026.00000 0.00020
676 13.62000 5035.14214 5008.00000 0.00020
677 13.63500 5034.76921 4933.00000 0.00020
678 13.65000 5034.40677 4841.00000 0.00021
679 13.66500 5034.05476 4796.00000 0.00021
680 13.68000 5033.71311 4980.00000 0.00020
681 13.69500 5033.38178 5170.00000 0.00019
682 13.71000 5033.06071 4887.00000 0.00020
683 13.72500 5032.74987 4940.00000 0.00020
684 13.74000 5032.44923 4803.00000 0.00021
685 13.75500 5032.15877 4816.00000 0.00021
686 13.77000 5031.87851 4901.00000 0.00020
687 13.78500 5031.60848 4887.00000 0.00020
688 13.80000 5031.34878 4868.00000 0.00021
689 13.81500 5031.09963 4940.00000 0.00020
690 13.83000 5030.86185 4938.00000 0.00020
691 13.84500 5030.63528 4955.00000 0.00020
692 13.86000 5030.41563 5073.00000 0.00020
693 13.87500 5030.20683 4974.00000 0.00020
694 13.89000 5030.00952 4893.00000 0.00020
695 13.90500 5029.82486 4961.00000 0.00020
696 13.92000 5029.65483 4952.00000 0.00020
697 13.93500 5029.50256 4961.00000 0.00020
698 13.95000 5029.37247 5002.00000 0.00020
699 13.96500 5029.27018 4925.00000 0.00020
700 13.98000 5029.20179 5015.00000 0.00020
701 13.99500 5029.17264 4861.00000 0.00021
702 14.01000 5029.18592 4874.00000 0.00021
703 14.02500 5029.24219 5018.00000 0.00020
704 14.04000 5029.34032 4921.00000 0.00020
705 14.05500 5029.47886 5029.00000 0.00020
706 14.07000 5029.65714 4849.00000 0.00021
707 14.08500 5029.87593 4775.00000 0.00021
708 14.10000 5030.13772 4950.00000 0.00020
709 14.11500 5030.44688 5012.00000 0.00020
710 14.13000 5030.80984 4702.00000 0.00021
711 14.14500 5031.23567 4956.00000 0.00020
712 14.16000 5031.73714 4950.00000 0.00020
713 14.17500 5032.33271 4889.00000 0.00020
714 14.19000 5033.04947 5153.00000 0.00019
715 14.20500 5033.92643 4992.00000 0.00020
716 14.22000 5035.01514 5086.00000 0.00020
717 14.23500 5036.37126 4960.00000 0.00020
718 14.25000 5038.02894 4926.00000 0.00020
719 14.26500 5039.95454 4919.00000 0.00020
720 14.28000 5041.99087 5076.00000 0.00020
721 14.29500 5043.82010 4912.00000 0.00020
722 14.31000 5044.97833 5003.00000 0.00020
723 14.32500 5044.95923 5023.00000 0.00020
724 14.34000 5043.47454 4999.00000 0.00020
725 14.35500 5040.78506 4797.00000 0.00021
726 14.37000 5037.61666 4867.00000 0.00021
727 14.38500 5034.66148 4954.00000 0.00020
728 14.40000 5032.30478 5155.00000 0.00019
729 14.41500 5030.64708 4850.00000 0.00021
730 14.43000 5029.60627 4884.00000 0.00020
731 14.44500 5029.02112 4795.00000 0.00021
732 14.46000 5028.73043 4917.00000 0.00020
733 14.47500 5028.61323 4866.00000 0.00021
734 14.49000 5028.59495 4903.00000 0.00020
735 14.50500 5028.63620 4841.00000 0.00021
736 14.52000 5028.71865 4960.00000 0.00020
737 14.53500 5028.83489 4923.00000 0.00020
738 14.55000 5028.98302 4974.00000 0.00020
739 14.56500 5029.16466 4992.00000 0.00020
740 14.58000 5029.38548 4938.00000 0.00020
741 14.59500 5029.65970 4921.00000 0.00020
742 14.61000 5030.04224 4979.00000 0.00020
743 14.62500 5030.53648 4977.00000 0.00020
744 14.64000 5030.93177 5012.00000 0.00020
745 14.65500 5031.11866 5019.00000 0.00020
746 14.67000 5031.31762 4929.00000 0.00020
747 14.68500 5031.52865 5021.00000 0.00020
748 14.70000 5031.75185 4843.00000 0.00021
749 14.71500 5031.98740 4895.00000 0.00020
750 14.73000 5032.23551 5021.00000 0.00020
751 14.74500 5032.49651 4940.00000 0.00020
752 14.76000 5032.77075 5047.00000 0.00020
753 14.77500 5033.05865 4842.00000 0.00021
754 14.79000 5033.36069 4762.00000 0.00021
755 14.80500 5033.67744 4963.00000 0.00020
756 14.82000 5034.00950 5069.00000 0.00020
757 14.83500 5034.35756 4718.00000 0.00021
758 14.85000 5034.72237 4970.00000 0.00020
759 14.86500 5035.10476 4892.00000 0.00020
760 14.88000 5035.50567 4926.00000 0.00020
761 14.89500 5035.92609 5194.00000 0.00019
762 14.91000 5036.36715 5018.00000 0.00020
763 14.92500 5036.83006 5146.00000 0.00019
764 14.94000 5037.31618 4912.00000 0.00020
765 14.95500 5037.82697 4951.00000 0.00020
766 14.97000 5038.36406 4948.00000 0.00020
767 14.98500 5038.92924 5081.00000 0.00020
768 15.00000 5039.52447 5010.00000 0.00020
769 15.01500 5040.15193 5057.00000 0.00020
770 15.03000 5040.81401 5030.00000 0.00020
771 15.04500 5041.51337 5068.00000 0.00020
772 15.06000 5042.25294 4888.00000 0.00020
773 15.07500 5043.03596 4906.00000 0.00020
774 15.09000 5043.86608 4986.00000 0.00020
775 15.10500 5044.74730 5222.00000 0.00019
776 15.12000 5045.68414 4977.00000 0.00020
777 15.13500 5046.68162 4950.00000 0.00020
778 15.15000 5047.74539 4828.00000 0.00021
779 15.16500 5048.88178 4951.00000 0.00020
780 15.18000 5050.09796 4909.00000 0.00020
781 15.19500 5051.40202 4977.00000 0.00020
782 15.21000 5052.80313 4889.00000 0.00020
783 15.22500 5054.31176 4978.00000 0.00020
784 15.24000 5055.93985 5011.00000 0.00020
785 15.25500 5057.70114 5020.00000 0.00020
786 15.27000 5059.61143 5025.00000 0.00020
787 15.28500 5061.68905 5014.00000 0.00020
788 15.30000 5063.95532 4928.00000 0.00020
789 15.31500 5066.43523 4984.00000 0.00020
790 15.33000 5069.15820 4949.00000 0.00020
791 15.34500 5072.15915 5068.00000 0.00020
792 15.36000 5075.47979 5075.00000 0.00020
793 15.37500 5079.17052 4962.00000 0.00020
794 15.39000 5083.29294 5087.00000 0.00020
795 15.40500 5087.92448 4888.00000 0.00020
796 15.42000 5093.16715 4918.00000 0.00020
797 15.43500 5099.16114 5171.00000 0.00019
798 15.45000 5106.11941 4995.00000 0.00020
799 15.46500 5114.38727 5068.00000 0.00020
800 15.48000 5124.54147 4990.00000 0.00020
801 15.49500 5137.52787 4908.00000 0.00020
802 15.51000 5154.81160 5042.00000 0.00020
803 15.52500 5178.48104 5171.00000 0.00019
804 15.54000 5211.22368 4892.00000 0.00020
805 15.55500 5256.08851 5163.00000 0.00019
806 15.57000 5315.97941 5179.00000 0.00019
807 15.58500 5392.99501 5204.00000 0.00019
808 15.60000 5488.06703 5550.00000 0.00018
809 15.61500 5601.24924 5485.00000 0.00018
810 15.63000 5732.37394 5703.00000 0.00018
811 15.64500 5881.65148 5606.00000 0.00018
812 15.66000 6050.09338 5799.00000 0.00017
813 15.67500 6239.81639 5966.00000 0.00017
814 15.69000 6454.34755 6395.00000 0.00016
815 15.70500 6699.09286 6473.00000 0.00015
816 15.72000 6982.12964 7035.00000 0.00014
817 15.73500 7315.33632 7478.00000 0.00013
818 15.75000 7715.40093 8029.00000 0.00012
819 15.76500 8203.29746 8620.00000 0.00012
820 15.78000 8799.67298 9446.00000 0.00011
821 15.79500 9513.42721 10325.00000 0.00010
822 15.81000 10323.31040 11558.00000 0.00009
823 15.82500 11157.86549 11582.00000 0.00009
824 15.84000 11884.08141 11860.00000 0.00008
825 15.85500 12315.90992 11191.00000 0.00009
826 15.87000 12258.39739 10769.00000 0.00009
827 15.88500 11615.20789 10133.00000 0.00010
828 15.90000 10509.26368 9281.00000 0.00011
829 15.91500 9229.27933 8513.00000 0.00012
830 15.93000 8037.52428 7905.00000 0.00013
831 15.94500 7076.67925 7230.00000 0.00014
832 15.96000 6383.37297 6944.00000 0.00014
833 15.97500 5926.75914 6712.00000 0.00015
834 15.99000 5646.13196 6354.00000 0.00016
835 16.00500 5479.78748 6160.00000 0.00016
836 16.02000 5380.25257 6146.00000 0.00016
837 16.03500 5317.26916 5968.00000 0.00017
838 16.05000 5274.10932 6089.00000 0.00016
839 16.06500 5242.41939 5936.00000 0.00017
840 16.08000 5218.23075 5772.00000 0.00017
841 16.09500 5199.61498 5823.00000 0.00017
842 16.11000 5185.52364 5635.00000 0.00018
843 16.12500 5175.27203 5634.00000 0.00018
844 16.14000 5168.33641 5674.00000 0.00018
845 16.15500 5164.29750 5464.00000 0.00018
846 16.17000 5162.83669 5621.00000 0.00018
847 16.18500 5163.74212 5402.00000 0.00019
848 16.20000 5166.91538 5221.00000 0.00019
849 16.21500 5172.38114 5542.00000 0.00018
850 16.23000 5180.30713 5463.00000 0.00018
851 16.24500 5191.04206 5167.00000 0.00019
852 16.26000 5205.17046 5382.00000 0.00019
853 16.27500 5223.55460 5396.00000 0.00019
854 16.29000 5247.28067 5350.00000 0.00019
855 16.30500 5277.36919 5563.00000 0.00018
856 16.32000 5314.11625 5433.00000 0.00018
857 16.33500 5356.08639 5549.00000 0.00018
858 16.35000 5399.07185 5263.00000 0.00019
859 16.36500 5435.56819 5385.00000 0.00019
860 16.38000 5455.34020 5399.00000 0.00019
861 16.39500 5447.99338 5477.00000 0.00018
862 16.41000 5409.03998 5335.00000 0.00019
863 16.42500 5346.07257 5376.00000 0.00019
864 16.44000 5274.92046 5336.00000 0.00019
865 16.45500 5209.32495 5241.00000 0.00019
866 16.47000 5156.52797 5108.00000 0.00020
867 16.48500 5118.22826 5096.00000 0.00020
868 16.50000 5092.65391 5064.00000 0.00020
869 16.51500 5076.53107 5402.00000 0.00019
870 16.53000 5066.57458 5044.00000 0.00020
871 16.54500 5060.26424 5122.00000 0.00020
872 16.56000 5055.98923 4937.00000 0.00020
873 16.57500 5052.85116 5024.00000 0.00020
874 16.59000 5050.39342 5064.00000 0.00020
875 16.60500 5048.39165 5087.00000 0.00020
876 16.62000 5046.73094 4995.00000 0.00020
877 16.63500 5045.34604 5091.00000 0.00020
878 16.65000 5044.19537 5127.00000 0.00020
879 16.66500 5043.25046 5026.00000 0.00020
880 16.68000 5042.49141 5154.00000 0.00019
881 16.69500 5041.90458 5048.00000 0.00020
882 16.71000 5041.48131 5034.00000 0.00020
883 16.72500 5041.21711 5110.00000 0.00020
884 16.74000 5041.11113 5050.00000 0.00020
885 16.75500 5041.16595 5126.00000 0.00020
886 16.77000 5041.38913 5102.00000 0.00020
887 16.78500 5041.79151 5037.00000 0.00020
888 16.80000 5042.38639 5139.00000 0.00019
889 16.81500 5043.19127 4962.00000 0.00020
890 16.83000 5044.22858 5100.00000 0.00020
891 16.84500 5045.52669 5182.00000 0.00019
892 16.86000 5047.12162 5041.00000 0.00020
893 16.87500 5049.05980 5138.00000 0.00019
894 16.89000 5051.40331 5039.00000 0.00020
895 16.90500 5054.24016 4931.00000 0.00020
896 16.92000 5057.70394 5166.00000 0.00019
897 16.93500 5062.00926 5185.00000 0.00019
898 16.95000 5067.51063 4981.00000 0.00020
899 16.96500 5074.82017 5099.00000 0.00020
900 16.98000 5084.73210 5191.00000 0.00019
901 16.99500 5097.84120 5148.00000 0.00019
902 17.01000 5115.95920 5358.00000 0.00019
903 17.02500 5140.69184 5285.00000 0.00019
904 17.04000 5173.60902 5358.00000 0.00019
905 17.05500 5215.96892 5196.00000 0.00019
906 17.07000 5268.60641 5339.00000 0.00019
907 17.08500 5332.10430 5392.00000 0.00019
908 17.10000 5407.08748 5565.00000 0.00018
909 17.11500 5494.46879 5530.00000 0.00018
910 17.13000 5595.64940 5784.00000 0.00017
911 17.14500 5712.78301 5759.00000 0.00017
912 17.16000 5849.18428 5912.00000 0.00017
913 17.17500 6009.83737 5942.00000 0.00017
914 17.19000 6201.76938 6128.00000 0.00016
915 17.20500 6433.71552 6411.00000 0.00016
916 17.22000 6714.12452 7007.00000 0.00014
917 17.23500 7046.59892 6893.00000 0.00015
918 17.25000 7422.88421 7385.00000 0.00014
919 17.26500 7815.43715 7593.00000 0.00013
920 17.28000 8173.11399 8253.00000 0.00012
921 17.29500 8423.65389 8522.00000 0.00012
922 17.31000 8489.08136 8687.00000 0.00012
923 17.32500 8325.69555 8385.00000 0.00012
924 17.34000 7970.93007 8177.00000 0.00012
925 17.35500 7524.43904 7539.00000 0.00013
926 17.37000 7073.79565 6870.00000 0.00015
927 17.38500 6660.24699 6394.00000 0.00016
928 17.40000 6294.46852 5866.00000 0.00017
929 17.41500 5982.10992 5584.00000 0.00018
930 17.43000 5729.93719 5443.00000 0.00018
931 17.44500 5538.48122 5357.00000 0.00019
932 17.46000 5401.22288 5383.00000 0.00019
933 17.47500 5308.43446 5305.00000 0.00019
934 17.49000 5249.92943 5268.00000 0.00019
935 17.50500 5216.66543 5275.00000 0.00019
936 17.52000 5201.80325 5177.00000 0.00019
937 17.53500 5201.17221 5148.00000 0.00019
938 17.55000 5213.27166 5343.00000 0.00019
939 17.56500 5238.64308 5296.00000 0.00019
940 17.58000 5279.12673 5320.00000 0.00019
941 17.59500 5336.78518 5309.00000 0.00019
942 17.61000 5413.17182 5201.00000 0.00019
943 17.62500 5509.10925 5409.00000 0.00018
944 17.64000 5625.08078 5596.00000 0.00018
945 17.65500 5761.86700 5400.00000 0.00019
946 17.67000 5921.16568 5671.00000 0.00018
947 17.68500 6106.19973 5792.00000 0.00017
948 17.70000 6322.40410 5925.00000 0.00017
949 17.71500 6578.19713 6489.00000 0.00015
950 17.73000 6885.52020 6699.00000 0.00015
951 17.74500 7259.21014 7020.00000 0.00014
952 17.76000 7713.58682 7308.00000 0.00014
953 17.77500 8254.63884 7953.00000 0.00013
954 17.79000 8867.81832 8528.00000 0.00012
955 17.80500 9504.70678 9556.00000 0.00010
956 17.82000 10074.68636 10218.00000 0.00010
957 17.83500 10448.38174 10911.00000 0.00009
958 17.85000 10483.30738 10759.00000 0.00009
959 17.86500 10092.04720 10209.00000 0.00010
960 17.88000 9332.38465 9304.00000 0.00011
961 17.89500 8397.12740 8274.00000 0.00012
962 17.91000 7486.15807 7343.00000 0.00014
963 17.92500 6721.37206 6714.00000 0.00015
964 17.94000 6145.90337 5866.00000 0.00017
965 17.95500 5749.63985 5641.00000 0.00018
966 17.97000 5495.04175 5245.00000 0.00019
967 17.98500 5338.19069 5329.00000 0.00019
968 18.00000 5241.87130 5265.00000 0.00019
969 18.01500 5180.23698 5196.00000 0.00019
970 18.03000 5137.78910 5167.00000 0.00019
971 18.04500 5106.17805 5246.00000 0.00019
972 18.06000 5081.16598 5123.00000 0.00020
973 18.07500 5060.59029 5146.00000 0.00019
974 18.09000 5043.25820 5211.00000 0.00019
975 18.10500 5028.42849 5150.00000 0.00019
976 18.12000 5015.58886 5118.00000 0.00020
977 18.13500 5004.36080 5102.00000 0.00020
978 18.15000 4994.45425 5144.00000 0.00019
979 18.16500 4985.64237 5135.00000 0.00019
980 18.18000 4977.74556 5139.00000 0.00019
981 18.19500 4970.62022 5048.00000 0.00020
982 18.21000 4964.15051 5136.00000 0.00019
983 18.22500 4958.24234 4912.00000 0.00020
984 18.24000 4952.81881 5038.00000 0.00020
985 18.25500 4947.81680 5107.00000 0.00020
986 18.27000 4943.18453 5012.00000 0.00020
987 18.28500 4938.88001 5092.00000 0.00020
988 18.30000 4934.87131 4954.00000 0.00020
989 18.31500 4931.15585 4862.00000 0.00021
990 18.33000 4927.65219 5081.00000 0.00020
991 18.34500 4924.30781 5107.00000 0.00020
992 18.36000 4921.15499 4804.00000 0.00021
993 18.37500 4918.18003 5031.00000 0.00020
994 18.39000 4915.37268 5064.00000 0.00020
995 18.40500 4912.72646 5015.00000 0.00020
996 18.42000 4910.23966 5205.00000 0.00019
997 18.43500 4907.91739 5071.00000 0.00020
998 18.45000 4905.77490 5108.00000 0.00020
999 18.46500 4903.84208 4925.00000 0.00020
1000 18.48000 4902.16829 4916.00000 0.00020
1001 18.49500 4900.82579 5021.00000 0.00020
1002 18.51000 4899.90945 5128.00000 0.00020
1003 18.52500 4899.53008 4990.00000 0.00020
1004 18.54000 4899.79953 5111.00000 0.00020
1005 18.55500 4900.81043 4993.00000 0.00020
1006 18.57000 4902.62458 5065.00000 0.00020
1007 18.58500 4905.28301 4890.00000 0.00020
1008 18.60000 4908.83155 4897.00000 0.00020
1009 18.61500 4913.34980 4990.00000 0.00020
1010 18.63000 4918.98005 5173.00000 0.00019
1011 18.64500 4925.95732 4985.00000 0.00020
1012 18.66000 4934.63484 4976.00000 0.00020
1013 18.67500 4945.48343 4769.00000 0.00021
1014 18.69000 4959.02048 5014.00000 0.00020
1015 18.70500 4975.61227 4958.00000 0.00020
1016 18.72000 4995.12189 4949.00000 0.00020
1017 18.73500 5016.46114 4902.00000 0.00020
1018 18.75000 5037.21092 5094.00000 0.00020
1019 18.76500 5053.51908 5075.00000 0.00020
1020 18.78000 5060.51797 5060.00000 0.00020
1021 18.79500 5053.83822 5054.00000 0.00020
1022 18.81000 5032.70661 5005.00000 0.00020
1023 18.82500 5001.92060 5075.00000 0.00020
1024 18.84000 4968.86140 5048.00000 0.00020
1025 18.85500 4939.19060 4966.00000 0.00020
1026 18.87000 4915.65622 5016.00000 0.00020
1027 18.88500 4898.75426 5061.00000 0.00020
1028 18.90000 4887.62706 4935.00000 0.00020
1029 18.91500 4880.85403 5029.00000 0.00020
1030 18.93000 4877.03355 4844.00000 0.00021
1031 18.94500 4875.08681 4934.00000 0.00020
1032 18.96000 4874.31559 5017.00000 0.00020
1033 18.97500 4874.32860 4855.00000 0.00021
1034 18.99000 4874.93237 4985.00000 0.00020
1035 19.00500 4876.04373 4870.00000 0.00021
1036 19.02000 4877.63600 4769.00000 0.00021
1037 19.03500 4879.71164 4955.00000 0.00020
1038 19.05000 4882.29023 5009.00000 0.00020
1039 19.06500 4885.40382 4724.00000 0.00021
1040 19.08000 4889.09559 4918.00000 0.00020
1041 19.09500 4893.41994 4952.00000 0.00020
1042 19.11000 4898.44332 4896.00000 0.00020
1043 19.12500 4904.24581 5148.00000 0.00019
1044 19.14000 4910.92315 5010.00000 0.00020
1045 19.15500 4918.58935 5096.00000 0.00020
1046 19.17000 4927.38030 4917.00000 0.00020
1047 19.18500 4937.46712 4954.00000 0.00020
1048 19.20000 4949.04391 4949.00000 0.00020
1049 19.21500 4962.35251 5059.00000 0.00020
1050 19.23000 4977.69150 4967.00000 0.00020
1051 19.24500 4995.43817 5032.00000 0.00020
1052 19.26000 5016.08757 5122.00000 0.00020
1053 19.27500 5040.32556 5116.00000 0.00020
1054 19.29000 5069.16394 5027.00000 0.00020
1055 19.30500 5104.17468 4969.00000 0.00020
1056 19.32000 5147.85603 5145.00000 0.00019
1057 19.33500 5204.13013 5486.00000 0.00018
1058 19.35000 5278.90354 5278.00000 0.00019
1059 19.36500 5380.53386 5378.00000 0.00019
1060 19.38000 5519.96892 5334.00000 0.00019
1061 19.39500 5710.28169 5599.00000 0.00018
1062 19.41000 5965.36768 5912.00000 0.00017
1063 19.42500 6297.97747 6160.00000 0.00016
1064 19.44000 6718.17608 6445.00000 0.00016
1065 19.45500 7233.69762 7112.00000 0.00014
1066 19.47000 7852.47213 7526.00000 0.00013
1067 19.48500 8586.28468 8185.00000 0.00012
1068 19.50000 9454.61786 9081.00000 0.00011
1069 19.51500 10488.01510 10017.00000 0.00010
1070 19.53000 11729.40711 11232.00000 0.00009
1071 19.54500 13229.98004 12970.00000 0.00008
1072 19.56000 15034.62643 14605.00000 0.00007
1073 19.57500 17153.10112 16966.00000 0.00006
1074 19.59000 19518.76180 19797.00000 0.00005
1075 19.60500 21945.96667 22147.00000 0.00005
1076 19.62000 24104.41261 25152.00000 0.00004
1077 19.63500 25533.71879 26251.00000 0.00004
1078 19.65000 25741.56382 26523.00000 0.00004
1079 19.66500 24437.17775 25681.00000 0.00004
1080 19.68000 21793.44897 22733.00000 0.00004
1081 19.69500 18425.89065 19770.00000 0.00005
1082 19.71000 15036.50766 15368.00000 0.00007
1083 19.72500 12101.92861 11733.00000 0.00009
1084 19.74000 9821.60743 9996.00000 0.00010
1085 19.75500 8195.27414 8254.00000 0.00012
1086 19.77000 7112.00331 6906.00000 0.00014
1087 19.78500 6423.31789 6553.00000 0.00015
1088 19.80000 5992.40389 6094.00000 0.00016
1089 19.81500 5716.79210 5767.00000 0.00017
1090 19.83000 5530.39103 5836.00000 0.00017
1091 19.84500 5395.10968 5526.00000 0.00018
1092 19.86000 5290.56557 5436.00000 0.00018
1093 19.87500 5206.10465 5113.00000 0.00020
1094 19.89000 5135.93091 5125.00000 0.00020
1095 19.90500 5076.58099 5014.00000 0.00020
1096 19.92000 5025.75133 5070.00000 0.00020
1097 19.93500 4981.77931 4932.00000 0.00020
1098 19.95000 4943.40524 5000.00000 0.00020
1099 19.96500 4909.64902 4942.00000 0.00020
1100 19.98000 4879.73585 4877.00000 0.00021
1101 19.99500 4853.04613 4716.00000 0.00021
1102 20.01000 4829.07961 4702.00000 0.00021
1103 20.02500 4807.42885 4751.00000 0.00021
1104 20.04000 4787.75934 4956.00000 0.00020
1105 20.05500 4769.79440 4626.00000 0.00022
1106 20.07000 4753.30357 4756.00000 0.00021
1107 20.08500 4738.09357 4553.00000 0.00022
1108 20.10000 4724.00132 4636.00000 0.00022
1109 20.11500 4710.88828 4661.00000 0.00021
1110 20.13000 4698.63599 4614.00000 0.00022
1111 20.14500 4687.14233 4634.00000 0.00022
1112 20.16000 4676.31832 4751.00000 0.00021
1113 20.17500 4666.08525 4630.00000 0.00022
1114 20.19000 4656.37190 4674.00000 0.00021
1115 20.20500 4647.11205 4636.00000 0.00022
1116 20.22000 4638.24225 4663.00000 0.00021
1117 20.23500 4629.70029 4639.00000 0.00022
1118 20.25000 4621.42474 4642.00000 0.00022
1119 20.26500 4613.35610 4622.00000 0.00022
1120 20.28000 4605.43953 4654.00000 0.00021
1121 20.29500 4597.62761 4694.00000 0.00021
1122 20.31000 4589.87971 4550.00000 0.00022
1123 20.32500 4582.15754 4635.00000 0.00022
1124 20.34000 4574.41734 4548.00000 0.00022
1125 20.35500 4566.60233 4693.00000 0.00021
1126 20.37000 4558.63731 4640.00000 0.00022
1127 20.38500 4550.42940 4559.00000 0.00022
1128 20.40000 4541.88241 4689.00000 0.00021
1129 20.41500 4532.93300 4477.00000 0.00022
1130 20.43000 4523.61096 4425.00000 0.00023
1131 20.44500 4514.11229 4613.00000 0.00022
1132 20.46000 4504.85931 4678.00000 0.00021
1133 20.47500 4496.51717 4358.00000 0.00023
1134 20.49000 4489.92628 4581.00000 0.00022
1135 20.50500 4485.84538 4551.00000 0.00022
1136 20.52000 4484.41996 4465.00000 0.00022
1137 20.53500 4484.83625 4752.00000 0.00021
1138 20.55000 4485.81285 4592.00000 0.00022
1139 20.56500 4486.34193 4682.00000 0.00021
1140 20.58000 4485.90940 4498.00000 0.00022
1141 20.59500 4484.35921 4483.00000 0.00022
1142 20.61000 4481.88928 4487.00000 0.00022
1143 20.62500 4478.80000 4641.00000 0.00022
1144 20.64000 4475.23882 4514.00000 0.00022
1145 20.65500 4471.39967 4620.00000 0.00022
1146 20.67000 4467.41469 4512.00000 0.00022
1147 20.68500 4463.36280 4518.00000 0.00022
1148 20.70000 4459.28674 4446.00000 0.00022
1149 20.71500 4455.20825 4447.00000 0.00022
1150 20.73000 4451.13832 4502.00000 0.00022
1151 20.74500 4447.08277 4687.00000 0.00021
1152 20.76000 4443.04497 4415.00000 0.00023
1153 20.77500 4439.02710 4487.00000 0.00022
1154 20.79000 4435.03080 4308.00000 0.00023
1155 20.80500 4431.05769 4384.00000 0.00023
1156 20.82000 4427.10564 4447.00000 0.00022
1157 20.83500 4423.17702 4415.00000 0.00023
1158 20.85000 4419.27222 4461.00000 0.00022
1159 20.86500 4415.39157 4538.00000 0.00022
1160 20.88000 4411.53535 4486.00000 0.00022
1161 20.89500 4407.70381 4415.00000 0.00023
1162 20.91000 4403.89723 4498.00000 0.00022
1163 20.92500 4400.11592 4447.00000 0.00022
1164 20.94000 4396.36024 4404.00000 0.00023
1165 20.95500 4392.63057 4441.00000 0.00023
1166 20.97000 4388.92736 4425.00000 0.00023
1167 20.98500 4385.25113 4465.00000 0.00022
1168 21.00000 4381.60246 4412.00000 0.00023
1169 21.01500 4377.98200 4420.00000 0.00023
1170 21.03000 4374.39044 4501.00000 0.00022
1171 21.04500 4370.82842 4332.00000 0.00023
1172 21.06000 4367.29728 4420.00000 0.00023
1173 21.07500 4363.79839 4451.00000 0.00022
1174 21.09000 4360.33247 4394.00000 0.00023
1175 21.10500 4356.90080 4504.00000 0.00022
1176 21.12000 4353.50503 4369.00000 0.00023
1177 21.13500 4350.14680 4291.00000 0.00023
1178 21.15000 4346.82750 4394.00000 0.00023
1179 21.16500 4343.54649 4425.00000 0.00023
1180 21.18000 4340.31238 4208.00000 0.00024
1181 21.19500 4337.12911 4398.00000 0.00023
1182 21.21000 4333.99553 4359.00000 0.00023
1183 21.22500 4330.91518 4420.00000 0.00023
1184 21.24000 4327.89271 4565.00000 0.00022
1185 21.25500 4324.93945 4514.00000 0.00022
1186 21.27000 4322.04602 4623.00000 0.00022
1187 21.28500 4319.24243 4385.00000 0.00023
1188 21.30000 4316.45270 4481.00000 0.00022
1189 21.31500 4313.73524 4488.00000 0.00022
1190 21.33000 4311.09519 4573.00000 0.00022
1191 21.34500 4308.53857 4472.00000 0.00022
1192 21.36000 4306.07412 4594.00000 0.00022
1193 21.37500 4303.71031 4527.00000 0.00022
1194 21.39000 4301.42811 4669.00000 0.00021
1195 21.40500 4299.25345 4445.00000 0.00022
1196 21.42000 4297.19448 4436.00000 0.00023
1197 21.43500 4295.26015 4446.00000 0.00022
1198 21.45000 4293.46031 4605.00000 0.00022
1199 21.46500 4291.80570 4410.00000 0.00023
1200 21.48000 4290.30810 4437.00000 0.00023
1201 21.49500 4288.98033 4292.00000 0.00023
1202 21.51000 4287.83629 4392.00000 0.00023
1203 21.52500 4286.89107 4413.00000 0.00023
1204 21.54000 4286.16103 4298.00000 0.00023
1205 21.55500 4285.66408 4264.00000 0.00023
1206 21.57000 4285.42015 4387.00000 0.00023
1207 21.58500 4285.45187 4340.00000 0.00023
1208 21.60000 4285.78544 4307.00000 0.00023
1209 21.61500 4286.45138 4336.00000 0.00023
1210 21.63000 4287.48464 4358.00000 0.00023
1211 21.64500 4288.92446 4280.00000 0.00023
1212 21.66000 4290.81434 4371.00000 0.00023
1213 21.67500 4293.20285 4266.00000 0.00023
1214 21.69000 4296.14596 4303.00000 0.00023
1215 21.70500 4299.71189 4309.00000 0.00023
1216 21.72000 4303.98915 4254.00000 0.00024
1217 21.73500 4309.09696 4291.00000 0.00023
1218 21.75000 4315.19614 4213.00000 0.00024
1219 21.76500 4322.49724 4270.00000 0.00023
1220 21.78000 4331.26289 4320.00000 0.00023
1221 21.79500 4341.79572 4316.00000 0.00023
1222 21.81000 4354.39654 4367.00000 0.00023
1223 21.82500 4369.31393 4203.00000 0.00024
1224 21.84000 4386.77513 4153.00000 0.00024
1225 21.85500 4407.10402 4384.00000 0.00023
1226 21.87000 4430.82431 4408.00000 0.00023
1227 21.88500 4458.74474 4086.00000 0.00024
1228 21.90000 4492.09711 4410.00000 0.00023
1229 21.91500 4532.78289 4447.00000 0.00022
1230 21.93000 4583.76220 4403.00000 0.00023
1231 21.94500 4649.58676 4760.00000 0.00021
1232 21.96000 4737.01467 4744.00000 0.00021
1233 21.97500 4855.56435 4886.00000 0.00020
1234 21.99000 5017.79922 4881.00000 0.00020
1235 22.00500 5239.09231 5118.00000 0.00020
1236 22.02000 5536.61200 5372.00000 0.00019
1237 22.03500 5927.56561 5879.00000 0.00017
1238 22.05000 6427.81301 6215.00000 0.00016
1239 22.06500 7052.77079 6889.00000 0.00015
1240 22.08000 7820.93021 7503.00000 0.00013
1241 22.09500 8757.94278 8419.00000 0.00012
1242 22.11000 9898.47389 9240.00000 0.00011
1243 22.12500 11282.55969 10626.00000 0.00009
1244 22.14000 12942.70215 12316.00000 0.00008
1245 22.15500 14879.42105 15181.00000 0.00007
1246 22.17000 17027.74057 17061.00000 0.00006
1247 22.18500 19223.90872 20225.00000 0.00005
1248 22.20000 21184.96922 22322.00000 0.00004
1249 22.21500 22515.81383 24310.00000 0.00004
1250 22.23000 22778.11887 24238.00000 0.00004
1251 22.24500 21689.56889 22807.00000 0.00004
1252 22.26000 19395.83969 20034.00000 0.00005
1253 22.27500 16462.29978 16947.00000 0.00006
1254 22.29000 13508.04749 12983.00000 0.00008
1255 22.30500 10934.41475 9794.00000 0.00010
1256 22.32000 8908.72699 7829.00000 0.00013
1257 22.33500 7436.95641 6642.00000 0.00015
1258 22.35000 6434.04620 5794.00000 0.00017
1259 22.36500 5780.54189 5374.00000 0.00019
1260 22.38000 5362.28756 4992.00000 0.00020
1261 22.39500 5090.55923 4888.00000 0.00020
1262 22.41000 4905.84062 4750.00000 0.00021
1263 22.42500 4772.40969 4507.00000 0.00022
1264 22.44000 4670.41612 4532.00000 0.00022
1265 22.45500 4589.04561 4337.00000 0.00023
1266 22.47000 4522.40716 4309.00000 0.00023
1267 22.48500 4466.97370 4349.00000 0.00023
1268 22.50000 4420.49311 4225.00000 0.00024
1269 22.51500 4381.53463 4314.00000 0.00023
1270 22.53000 4349.26929 4089.00000 0.00024
1271 22.54500 4323.31423 4116.00000 0.00024
1272 22.56000 4303.68084 4224.00000 0.00024
1273 22.57500 4290.82946 4223.00000 0.00024
1274 22.59000 4285.76429 4046.00000 0.00025
1275 22.60500 4290.11419 4221.00000 0.00024
1276 22.62000 4306.15413 4253.00000 0.00024
1277 22.63500 4336.72220 4272.00000 0.00023
1278 22.65000 4385.01419 4466.00000 0.00022
1279 22.66500 4454.32877 4520.00000 0.00022
1280 22.68000 4547.96461 4607.00000 0.00022
1281 22.69500 4669.48964 4557.00000 0.00022
1282 22.71000 4823.31495 4803.00000 0.00021
1283 22.72500 5015.08987 4916.00000 0.00020
1284 22.74000 5251.26422 5319.00000 0.00019
1285 22.75500 5537.19691 5408.00000 0.00018
1286 22.77000 5873.69964 5848.00000 0.00017
1287 22.78500 6251.19991 6189.00000 0.00016
1288 22.80000 6644.46308 6466.00000 0.00015
1289 22.81500 7008.36620 6661.00000 0.00015
1290 22.83000 7278.53028 6825.00000 0.00015
1291 22.84500 7382.14454 6984.00000 0.00014
1292 22.86000 7264.14103 7128.00000 0.00014
1293 22.87500 6922.25895 6498.00000 0.00015
1294 22.89000 6424.50726 6159.00000 0.00016
1295 22.90500 5877.37373 5415.00000 0.00018
1296 22.92000 5369.80897 5100.00000 0.00020
1297 22.93500 4949.37425 4771.00000 0.00021
1298 22.95000 4629.12481 4493.00000 0.00022
1299 22.96500 4400.73872 4281.00000 0.00023
1300 22.98000 4245.54958 4305.00000 0.00023
1301 22.99500 4142.65671 4113.00000 0.00024
1302 23.01000 4074.07729 4076.00000 0.00025
1303 23.02500 4026.68150 4062.00000 0.00025
1304 23.04000 3992.00006 3920.00000 0.00026
1305 23.05500 3965.04865 3951.00000 0.00025
1306 23.07000 3943.07920 3925.00000 0.00025
1307 23.08500 3924.57770 3892.00000 0.00026
1308 23.10000 3908.66012 3886.00000 0.00026
1309 23.11500 3894.74065 3945.00000 0.00025
1310 23.13000 3882.36713 3857.00000 0.00026
1311 23.14500 3871.14663 3877.00000 0.00026
1312 23.16000 3860.72382 3831.00000 0.00026
1313 23.17500 3850.81443 3819.00000 0.00026
1314 23.19000 3841.28112 3909.00000 0.00026
1315 23.20500 3832.18989 3822.00000 0.00026
1316 23.22000 3823.69917 3846.00000 0.00026
1317 23.23500 3815.93162 3774.00000 0.00026
1318 23.25000 3808.93954 3644.00000 0.00027
1319 23.26500 3802.72403 3829.00000 0.00026
1320 23.28000 3797.25988 3790.00000 0.00026
1321 23.29500 3792.51651 3620.00000 0.00028
1322 23.31000 3788.47447 3696.00000 0.00027
1323 23.32500 3785.13678 3742.00000 0.00027
1324 23.34000 3782.53557 3710.00000 0.00027
1325 23.35500 3780.73751 3928.00000 0.00025
1326 23.37000 3779.85223 3839.00000 0.00026
1327 23.38500 3780.04986 3861.00000 0.00026
1328 23.40000 3781.59399 3756.00000 0.00027
1329 23.41500 3784.89694 3790.00000 0.00026
1330 23.43000 3790.60195 3791.00000 0.00026
1331 23.44500 3799.69022 3917.00000 0.00026
1332 23.46000 3813.59974 3879.00000 0.00026
1333 23.47500 3834.33075 3964.00000 0.00025
1334 23.49000 3864.50351 3941.00000 0.00025
1335 23.50500 3907.32381 4035.00000 0.00025
1336 23.52000 3966.42187 4015.00000 0.00025
1337 23.53500 4045.60014 4085.00000 0.00024
1338 23.55000 4148.70007 4189.00000 0.00024
1339 23.56500 4279.83895 4600.00000 0.00022
1340 23.58000 4443.91105 4558.00000 0.00022
1341 23.59500 4646.79458 4782.00000 0.00021
1342 23.61000 4894.55487 4945.00000 0.00020
1343 23.62500 5191.05926 5364.00000 0.00019
1344 23.64000 5533.83439 5913.00000 0.00017
1345 23.65500 5908.77502 6291.00000 0.00016
1346 23.67000 6285.14837 6840.00000 0.00015
1347 23.68500 6612.77091 7408.00000 0.00013
1348 23.70000 6824.16899 7711.00000 0.00013
1349 23.71500 6848.79308 7693.00000 0.00013
1350 23.73000 6647.76144 7592.00000 0.00013
1351 23.74500 6251.35184 7031.00000 0.00014
1352 23.76000 5751.16173 6344.00000 0.00016
1353 23.77500 5246.30157 5810.00000 0.00017
1354 23.79000 4802.64631 5155.00000 0.00019
1355 23.80500 4448.54538 4809.00000 0.00021
1356 23.82000 4186.11688 4539.00000 0.00022
1357 23.83500 4002.47864 4254.00000 0.00024
1358 23.85000 3878.80186 4154.00000 0.00024
1359 23.86500 3796.52945 3894.00000 0.00026
1360 23.88000 3740.76458 3932.00000 0.00025
1361 23.89500 3701.14963 3876.00000 0.00026
1362 23.91000 3671.22766 3810.00000 0.00026
1363 23.92500 3647.27385 3889.00000 0.00026
1364 23.94000 3627.22169 3671.00000 0.00027
1365 23.95500 3609.91330 3575.00000 0.00028
1366 23.97000 3594.66012 3639.00000 0.00027
1367 23.98500 3581.01491 3702.00000 0.00027
1368 24.00000 3568.66197 3496.00000 0.00029
1369 24.01500 3557.36509 3572.00000 0.00028
1370 24.03000 3546.94128 3577.00000 0.00028
1371 24.04500 3537.24592 3544.00000 0.00028
1372 24.06000 3528.16322 3730.00000 0.00027
1373 24.07500 3519.59986 3566.00000 0.00028
1374 24.09000 3511.48016 3609.00000 0.00028
1375 24.10500 3503.73936 3473.00000 0.00029
1376 24.12000 3496.32805 3500.00000 0.00029
1377 24.13500 3489.18568 3419.00000 0.00029
1378 24.15000 3482.28698 3509.00000 0.00028
1379 24.16500 3475.60015 3494.00000 0.00029
1380 24.18000 3469.09786 3499.00000 0.00029
1381 24.19500 3462.75632 3498.00000 0.00029
1382 24.21000 3456.55464 3462.00000 0.00029
1383 24.22500 3450.47417 3381.00000 0.00030
1384 24.24000 3444.49804 3350.00000 0.00030
1385 24.25500 3438.61063 3383.00000 0.00030
1386 24.27000 3432.79712 3522.00000 0.00028
1387 24.28500 3427.04296 3373.00000 0.00030
1388 24.30000 3421.33318 3382.00000 0.00030
1389 24.31500 3415.65133 3247.00000 0.00031
1390 24.33000 3409.97788 3303.00000 0.00030
1391 24.34500 3404.28750 3371.00000 0.00030
1392 24.36000 3398.54512 3373.00000 0.00030
1393 24.37500 3392.70037 3306.00000 0.00030
1394 24.39000 3386.68097 3391.00000 0.00029
1395 24.40500 3380.38587 3311.00000 0.00030
1396 24.42000 3373.67969 3367.00000 0.00030
1397 24.43500 3366.39049 3397.00000 0.00029
1398 24.45000 3358.31297 3384.00000 0.00030
1399 24.46500 3349.21849 3330.00000 0.00030
1400 24.48000 3338.86792 3363.00000 0.00030
1401 24.49500 3327.01233 3329.00000 0.00030
1402 24.51000 3313.37652 3357.00000 0.00030
1403 24.52500 3297.64880 3365.00000 0.00030
1404 24.54000 3279.52207 3309.00000 0.00030
1405 24.55500 3258.81808 3312.00000 0.00030
1406 24.57000 3235.70152 3307.00000 0.00030
1407 24.58500 3210.94953 3299.00000 0.00030
1408 24.60000 3186.20852 3373.00000 0.00030
1409 24.61500 3164.09608 3317.00000 0.00030
1410 24.63000 3148.17561 3360.00000 0.00030
1411 24.64500 3142.23284 3241.00000 0.00031
1412 24.66000 3148.35906 3233.00000 0.00031
1413 24.67500 3164.72516 3335.00000 0.00030
1414 24.69000 3186.14485 3351.00000 0.00030
1415 24.70500 3207.32938 3096.00000 0.00032
1416 24.72000 3225.18975 3286.00000 0.00030
1417 24.73500 3238.69751 3222.00000 0.00031
1418 24.75000 3247.50414 3275.00000 0.00031
1419 24.76500 3252.29691 3434.00000 0.00029
1420 24.78000 3254.04664 3314.00000 0.00030
1421 24.79500 3253.70040 3269.00000 0.00031
1422 24.81000 3252.02372 3254.00000 0.00031
1423 24.82500 3249.51053 3237.00000 0.00031
1424 24.84000 3246.50806 3269.00000 0.00031
1425 24.85500 3243.20629 3331.00000 0.00030
1426 24.87000 3239.71125 3309.00000 0.00030
1427 24.88500 3236.08280 3370.00000 0.00030
1428 24.90000 3232.35676 3298.00000 0.00030
1429 24.91500 3228.55653 3290.00000 0.00030
1430 24.93000 3224.69863 3271.00000 0.00031
1431 24.94500 3220.79545 3221.00000 0.00031
1432 24.96000 3216.85654 3266.00000 0.00031
1433 24.97500 3212.88945 3432.00000 0.00029
1434 24.99000 3208.90022 3243.00000 0.00031
1435 25.00500 3204.89371 3229.00000 0.00031
1436 25.02000 3200.87388 3036.00000 0.00033
1437 25.03500 3196.84396 3141.00000 0.00032
1438 25.05000 3192.80664 3142.00000 0.00032
1439 25.06500 3188.76415 3102.00000 0.00032
1440 25.08000 3184.71833 3107.00000 0.00032
1441 25.09500 3180.67076 3177.00000 0.00031
1442 25.11000 3176.62276 3143.00000 0.00032
1443 25.12500 3172.57546 3076.00000 0.00033
1444 25.14000 3168.52981 3189.00000 0.00031
1445 25.15500 3164.48665 3139.00000 0.00032
1446 25.17000 3160.44669 3116.00000 0.00032
1447 25.18500 3156.41056 3142.00000 0.00032
1448 25.20000 3152.37880 3152.00000 0.00032
1449 25.21500 3148.35202 3195.00000 0.00031
1450 25.23000 3144.33070 3244.00000 0.00031
1451 25.24500 3140.31525 3204.00000 0.00031
1452 25.26000 3136.30607 3180.00000 0.00031
1453 25.27500 3132.30354 3195.00000 0.00031
1454 25.29000 3128.30807 3211.00000 0.00031
1455 25.30500 3124.32018 3200.00000 0.00031
1456 25.32000 3120.34069 3101.00000 0.00032
1457 25.33500 3116.37259 3146.00000 0.00032
1458 25.35000 3112.41292 3040.00000 0.00033
1459 25.36500 3108.45196 2958.00000 0.00034
1460 25.38000 3104.49880 3051.00000 0.00033
1461 25.39500 3100.55364 3069.00000 0.00033
1462 25.41000 3096.61673 2884.00000 0.00035
1463 25.42500 3092.68835 3034.00000 0.00033
1464 25.44000 3088.76870 2983.00000 0.00034
1465 25.45500 3084.85800 2933.00000 0.00034
1466 25.47000 3080.95654 3062.00000 0.00033
1467 25.48500 3077.06466 3024.00000 0.00033
1468 25.50000 3073.18303 3016.00000 0.00033
1469 25.51500 3069.31334 2962.00000 0.00034
1470 25.53000 3065.45374 3033.00000 0.00033
1471 25.54500 3061.60917 2912.00000 0.00034
1472 25.56000 3057.76153 3083.00000 0.00032
1473 25.57500 3053.92365 2966.00000 0.00034
1474 25.59000 3050.09570 3023.00000 0.00033
1475 25.60500 3046.27788 2968.00000 0.00034
1476 25.62000 3042.47045 3018.00000 0.00033
1477 25.63500 3038.67387 2872.00000 0.00035
1478 25.65000 3034.88702 2930.00000 0.00034
1479 25.66500 3031.11096 2935.00000 0.00034
1480 25.68000 3027.34590 3062.00000 0.00033
1481 25.69500 3023.59204 2857.00000 0.00035
1482 25.71000 3019.84963 2937.00000 0.00034
1483 25.72500 3016.11889 2784.00000 0.00036
1484 25.74000 3012.40009 2878.00000 0.00035
1485 25.75500 3008.69357 2889.00000 0.00035
1486 25.77000 3004.99985 2902.00000 0.00034
1487 25.78500 3001.31934 2849.00000 0.00035
1488 25.80000 2997.65244 2950.00000 0.00034
1489 25.81500 2993.99959 2953.00000 0.00034
1490 25.83000 2990.36116 2900.00000 0.00034
1491 25.84500 2986.73862 2911.00000 0.00034
1492 25.86000 2983.13282 2861.00000 0.00035
1493 25.87500 2979.54613 2891.00000 0.00035
1494 25.89000 2975.99123 2953.00000 0.00034
1495 25.90500 2972.42977 2892.00000 0.00035
1496 25.92000 2968.88286 2894.00000 0.00035
1497 25.93500 2965.35386 2927.00000 0.00034
1498 25.95000 2961.84366 2839.00000 0.00035
1499 25.96500 2958.35317 2907.00000 0.00034
1500 25.98000 2954.88346 2808.00000 0.00036
1501 25.99500 2951.43573 2834.00000 0.00035
1502 26.01000 2948.01146 2865.00000 0.00035
1503 26.02500 2944.61249 2843.00000 0.00035
1504 26.04000 2941.24167 2930.00000 0.00034
1505 26.05500 2937.90918 2786.00000 0.00036
1506 26.07000 2934.59498 2716.00000 0.00037
1507 26.08500 2931.30508 2869.00000 0.00035
1508 26.10000 2928.04959 2918.00000 0.00034
1509 26.11500 2924.83195 2693.00000 0.00037
1510 26.13000 2921.65649 2857.00000 0.00035
1511 26.14500 2918.52887 2826.00000 0.00035
1512 26.16000 2915.45688 2818.00000 0.00035
1513 26.17500 2912.45164 2941.00000 0.00034
1514 26.19000 2909.52944 2905.00000 0.00034
1515 26.20500 2906.71411 2858.00000 0.00035
1516 26.22000 2904.03992 2762.00000 0.00036
1517 26.23500 2901.55447 2820.00000 0.00035
1518 26.25000 2899.32126 2783.00000 0.00036
1519 26.26500 2897.42117 2868.00000 0.00035
1520 26.28000 2895.95172 2790.00000 0.00036
1521 26.29500 2895.02341 2854.00000 0.00035
1522 26.31000 2894.75425 2807.00000 0.00036
1523 26.32500 2895.26555 2807.00000 0.00036
1524 26.34000 2896.67680 2791.00000 0.00036
1525 26.35500 2899.08147 2770.00000 0.00036
1526 26.37000 2902.50669 2788.00000 0.00036
1527 26.38500 2906.83591 2974.00000 0.00034
1528 26.40000 2911.72307 2823.00000 0.00035
1529 26.41500 2916.51733 2826.00000 0.00035
1530 26.43000 2920.22494 2760.00000 0.00036
1531 26.44500 2921.56558 2803.00000 0.00036
1532 26.46000 2919.28442 2875.00000 0.00035
1533 26.47500 2912.86806 2807.00000 0.00036
1534 26.49000 2903.18204 2771.00000 0.00036
1535 26.50500 2892.06863 2899.00000 0.00034
1536 26.52000 2881.24781 2813.00000 0.00036
1537 26.53500 2871.74235 2832.00000 0.00035
1538 26.55000 2863.94109 2862.00000 0.00035
1539 26.56500 2857.82279 2820.00000 0.00035
1540 26.58000 2853.14423 2829.00000 0.00035
1541 26.59500 2849.58223 2821.00000 0.00035
1542 26.61000 2846.83476 2786.00000 0.00036
1543 26.62500 2844.68480 2836.00000 0.00035
1544 26.64000 2843.03995 2882.00000 0.00035
1545 26.65500 2841.96462 2807.00000 0.00036
1546 26.67000 2841.71648 2827.00000 0.00035
1547 26.68500 2842.79202 2784.00000 0.00036
1548 26.70000 2845.97866 2797.00000 0.00036
1549 26.71500 2852.39695 2898.00000 0.00035
1550 26.73000 2863.46553 2823.00000 0.00035
1551 26.74500 2880.70035 2946.00000 0.00034
1552 26.76000 2905.51074 2836.00000 0.00035
1553 26.77500 2939.43356 2818.00000 0.00035
1554 26.79000 2984.68978 3000.00000 0.00033
1555 26.80500 3044.46905 3080.00000 0.00032
1556 26.82000 3122.82405 2934.00000 0.00034
1557 26.83500 3224.38134 3178.00000 0.00031
1558 26.85000 3353.98754 3360.00000 0.00030
1559 26.86500 3516.17469 3468.00000 0.00029
1560 26.88000 3714.29764 3804.00000 0.00026
1561 26.89500 3948.82472 4007.00000 0.00025
1562 26.91000 4214.80142 4219.00000 0.00024
1563 26.92500 4499.00409 4371.00000 0.00023
1564 26.94000 4777.59339 4663.00000 0.00021
1565 26.95500 5015.82813 4846.00000 0.00021
1566 26.97000 5172.44629 5085.00000 0.00020
1567 26.98500 5211.17362 4951.00000 0.00020
1568 27.00000 5119.05389 5024.00000 0.00020
1569 27.01500 4922.40945 4732.00000 0.00021
1570 27.03000 4677.28303 4599.00000 0.00022
1571 27.04500 4435.51519 4234.00000 0.00024
1572 27.06000 4222.73510 4083.00000 0.00024
1573 27.07500 4039.15063 3975.00000 0.00025
1574 27.09000 3870.23697 3957.00000 0.00025
1575 27.10500 3701.25272 3582.00000 0.00028
1576 27.12000 3529.95712 3399.00000 0.00029
1577 27.13500 3366.18062 3117.00000 0.00032
1578 27.15000 3221.03087 3077.00000 0.00032
1579 27.16500 3100.34660 3004.00000 0.00033
1580 27.18000 3004.91762 2878.00000 0.00035
1581 27.19500 2932.41348 2752.00000 0.00036
1582 27.21000 2878.89448 2791.00000 0.00036
1583 27.22500 2839.92794 2744.00000 0.00036
1584 27.24000 2811.40911 2700.00000 0.00037
1585 27.25500 2790.03188 2724.00000 0.00037
1586 27.27000 2773.41283 2708.00000 0.00037
1587 27.28500 2759.97628 2646.00000 0.00038
1588 27.30000 2748.74071 2658.00000 0.00038
1589 27.31500 2739.10930 2689.00000 0.00037
1590 27.33000 2730.71385 2668.00000 0.00037
1591 27.34500 2723.31827 2642.00000 0.00038
1592 27.36000 2716.76096 2628.00000 0.00038
1593 27.37500 2710.92526 2616.00000 0.00038
1594 27.39000 2705.72416 2535.00000 0.00039
1595 27.40500 2701.09170 2560.00000 0.00039
1596 27.42000 2696.97823 2621.00000 0.00038
1597 27.43500 2693.34722 2566.00000 0.00039
1598 27.45000 2690.17284 2597.00000 0.00039
1599 27.46500 2687.43785 2509.00000 0.00040
1600 27.48000 2685.13222 2477.00000 0.00040
1601 27.49500 2683.25926 2549.00000 0.00039
1602 27.51000 2681.75703 2567.00000 0.00039
1603 27.52500 2680.58242 2440.00000 0.00041
1604 27.54000 2680.22941 2541.00000 0.00039
1605 27.55500 2680.55771 2554.00000 0.00039
1606 27.57000 2681.52497 2536.00000 0.00039
1607 27.58500 2683.20945 2624.00000 0.00038
1608 27.60000 2685.71108 2564.00000 0.00039
1609 27.61500 2689.15836 2596.00000 0.00039
1610 27.63000 2693.71967 2489.00000 0.00040
1611 27.64500 2699.62252 2510.00000 0.00040
1612 27.66000 2707.18628 2506.00000 0.00040
1613 27.67500 2716.87638 2561.00000 0.00039
1614 27.69000 2729.38885 2510.00000 0.00040
1615 27.70500 2745.77263 2590.00000 0.00039
1616 27.72000 2767.59107 2579.00000 0.00039
1617 27.73500 2797.11520 2612.00000 0.00038
1618 27.75000 2837.53106 2569.00000 0.00039
1619 27.76500 2893.13287 2594.00000 0.00039
1620 27.78000 2969.45067 2684.00000 0.00037
1621 27.79500 3073.21535 2874.00000 0.00035
1622 27.81000 3212.04090 2845.00000 0.00035
1623 27.82500 3393.81611 3099.00000 0.00032
1624 27.84000 3625.90122 3235.00000 0.00031
1625 27.85500 3913.89472 3589.00000 0.00028
1626 27.87000 4259.33685 4070.00000 0.00025
1627 27.88500 4656.06450 4666.00000 0.00021
1628 27.90000 5085.75543 5228.00000 0.00019
1629 27.91500 5513.73349 5932.00000 0.00017
1630 27.93000 5886.24527 6277.00000 0.00016
1631 27.94500 6131.81801 6567.00000 0.00015
1632 27.96000 6175.17174 6581.00000 0.00015
1633 27.97500 5975.06596 6270.00000 0.00016
1634 27.99000 5566.66733 5751.00000 0.00017
1635 28.00500 5050.21159 5311.00000 0.00019
1636 28.02000 4529.25329 4860.00000 0.00021
1637 28.03500 4070.57475 4567.00000 0.00022
1638 28.05000 3703.95892 4315.00000 0.00023
1639 28.06500 3434.76460 3993.00000 0.00025
1640 28.08000 3254.75309 3987.00000 0.00025
1641 28.09500 3149.97843 3808.00000 0.00026
1642 28.11000 3106.31402 3749.00000 0.00027
1643 28.12500 3112.58128 3761.00000 0.00027
1644 28.14000 3161.46710 3695.00000 0.00027
1645 28.15500 3248.86748 3736.00000 0.00027
1646 28.17000 3372.24819 3719.00000 0.00027
1647 28.18500 3528.33435 3645.00000 0.00027
1648 28.20000 3710.44364 3862.00000 0.00026
1649 28.21500 3905.79315 3953.00000 0.00025
1650 28.23000 4093.48720 3799.00000 0.00026
1651 28.24500 4243.35510 4012.00000 0.00025
1652 28.26000 4318.29089 4062.00000 0.00025
1653 28.27500 4284.96755 3928.00000 0.00025
1654 28.29000 4135.56963 4065.00000 0.00025
1655 28.30500 3901.35816 3832.00000 0.00026
1656 28.32000 3634.73838 3708.00000 0.00027
1657 28.33500 3379.73952 3450.00000 0.00029
1658 28.35000 3160.84397 3363.00000 0.00030
1659 28.36500 2986.63836 3245.00000 0.00031
1660 28.38000 2855.83141 3218.00000 0.00031
1661 28.39500 2761.85060 3097.00000 0.00032
1662 28.41000 2696.17723 3150.00000 0.00032
1663 28.42500 2650.62260 3074.00000 0.00033
1664 28.44000 2618.55225 3031.00000 0.00033
1665 28.45500 2595.21927 2896.00000 0.00035
1666 28.47000 2577.53800 2867.00000 0.00035
1667 28.48500 2563.63933 2914.00000 0.00034
1668 28.50000 2552.43853 3012.00000 0.00033
1669 28.51500 2543.31440 2880.00000 0.00035
1670 28.53000 2535.90893 2907.00000 0.00034
1671 28.54500 2530.01781 2796.00000 0.00036
1672 28.56000 2525.53929 2792.00000 0.00036
1673 28.57500 2522.45599 2846.00000 0.00035
1674 28.59000 2520.84094 2795.00000 0.00036
1675 28.60500 2520.88115 2738.00000 0.00037
1676 28.62000 2522.91965 2854.00000 0.00035
1677 28.63500 2527.51592 2797.00000 0.00036
1678 28.65000 2535.52230 2782.00000 0.00036
1679 28.66500 2548.17151 2864.00000 0.00035
1680 28.68000 2567.16527 2791.00000 0.00036
1681 28.69500 2594.74158 2735.00000 0.00037
1682 28.71000 2633.67085 2788.00000 0.00036
1683 28.72500 2687.14745 2802.00000 0.00036
1684 28.74000 2758.48741 2908.00000 0.00034
1685 28.75500 2850.70795 2922.00000 0.00034
1686 28.77000 2965.91865 2930.00000 0.00034
1687 28.78500 3104.35223 2981.00000 0.00034
1688 28.80000 3262.96914 3002.00000 0.00033
1689 28.81500 3433.85091 2971.00000 0.00034
1690 28.83000 3602.74092 3152.00000 0.00032
1691 28.84500 3748.17400 3165.00000 0.00032
1692 28.86000 3842.57182 3193.00000 0.00031
1693 28.87500 3859.21603 3146.00000 0.00032
1694 28.89000 3787.74672 3134.00000 0.00032
1695 28.90500 3645.90050 3217.00000 0.00031
1696 28.92000 3468.76540 3137.00000 0.00032
1697 28.93500 3286.78750 2944.00000 0.00034
1698 28.95000 3117.36151 3036.00000 0.00033
1699 28.96500 2969.40410 2925.00000 0.00034
1700 28.98000 2848.13543 2858.00000 0.00035
1701 28.99500 2755.38741 2971.00000 0.00034
1702 29.01000 2689.18163 2810.00000 0.00036
1703 29.02500 2644.89208 2817.00000 0.00035
1704 29.04000 2616.75936 2721.00000 0.00037
1705 29.05500 2598.77357 2730.00000 0.00037
1706 29.07000 2585.04153 2701.00000 0.00037
1707 29.08500 2570.19129 2777.00000 0.00036
1708 29.10000 2550.47921 2749.00000 0.00036
1709 29.11500 2525.28575 2718.00000 0.00037
1710 29.13000 2497.03643 2680.00000 0.00037
1711 29.14500 2469.12529 2688.00000 0.00037
1712 29.16000 2443.97862 2523.00000 0.00040
1713 29.17500 2422.67759 2524.00000 0.00040
1714 29.19000 2405.35530 2456.00000 0.00041
1715 29.20500 2391.62482 2602.00000 0.00038
1716 29.22000 2380.83617 2441.00000 0.00041
1717 29.23500 2372.27908 2442.00000 0.00041
1718 29.25000 2365.31387 2343.00000 0.00043
1719 29.26500 2359.43275 2390.00000 0.00042
1720 29.28000 2354.26760 2432.00000 0.00041
1721 29.29500 2349.56890 2425.00000 0.00041
1722 29.31000 2345.17715 2404.00000 0.00042
1723 29.32500 2341.00023 2449.00000 0.00041
1724 29.34000 2337.00260 2426.00000 0.00041
1725 29.35500 2333.20616 2400.00000 0.00042
1726 29.37000 2329.69819 2467.00000 0.00041
1727 29.38500 2326.64084 2360.00000 0.00042
1728 29.40000 2324.27546 2377.00000 0.00042
1729 29.41500 2322.90276 2388.00000 0.00042
1730 29.43000 2322.79593 2340.00000 0.00043
1731 29.44500 2324.04082 2383.00000 0.00042
1732 29.46000 2326.46117 2386.00000 0.00042
1733 29.47500 2329.77913 2385.00000 0.00042
1734 29.49000 2333.84244 2421.00000 0.00041
1735 29.50500 2338.72116 2331.00000 0.00043
1736 29.52000 2344.71755 2344.00000 0.00043
1737 29.53500 2352.37818 2416.00000 0.00041
1738 29.55000 2362.53303 2398.00000 0.00042
1739 29.56500 2376.35606 2406.00000 0.00042
1740 29.58000 2395.43557 2350.00000 0.00043
1741 29.59500 2421.84078 2334.00000 0.00043
1742 29.61000 2458.12728 2473.00000 0.00040
1743 29.62500 2507.23021 2480.00000 0.00040
1744 29.64000 2572.19600 2435.00000 0.00041
1745 29.65500 2655.74935 2547.00000 0.00039
1746 29.67000 2759.65842 2561.00000 0.00039
1747 29.68500 2883.82869 2678.00000 0.00037
1748 29.70000 3025.15192 2921.00000 0.00034
1749 29.71500 3176.24126 2941.00000 0.00034
1750 29.73000 3324.24149 3057.00000 0.00033
1751 29.74500 3450.22536 3128.00000 0.00032
1752 29.76000 3530.91688 3175.00000 0.00031
1753 29.77500 3545.81895 3269.00000 0.00031
1754 29.79000 3488.34884 3337.00000 0.00030
1755 29.80500 3369.74684 3243.00000 0.00031
1756 29.82000 3211.64539 3217.00000 0.00031
1757 29.83500 3038.56373 3107.00000 0.00032
1758 29.85000 2872.79710 2914.00000 0.00034
1759 29.86500 2729.32090 2729.00000 0.00037
1760 29.88000 2614.41995 2634.00000 0.00038
1761 29.89500 2528.06437 2621.00000 0.00038
1762 29.91000 2466.89979 2621.00000 0.00038
1763 29.92500 2426.44862 2503.00000 0.00040
1764 29.94000 2402.48413 2493.00000 0.00040
1765 29.95500 2391.75723 2409.00000 0.00042
1766 29.97000 2392.22262 2444.00000 0.00041
1767 29.98500 2402.90108 2483.00000 0.00040
1768 30.00000 2423.51022 2513.00000 0.00040
1769 30.01500 2453.97941 2534.00000 0.00039
1770 30.03000 2493.92378 2610.00000 0.00038
1771 30.04500 2542.09015 2617.00000 0.00038
1772 30.06000 2595.77841 2625.00000 0.00038
1773 30.07500 2650.31419 2784.00000 0.00036
1774 30.09000 2698.77752 2797.00000 0.00036
1775 30.10500 2732.38730 2771.00000 0.00036
1776 30.12000 2742.07637 2817.00000 0.00035
1777 30.13500 2721.69815 2814.00000 0.00036
1778 30.15000 2672.15832 2764.00000 0.00036
1779 30.16500 2603.04533 2736.00000 0.00037
1780 30.18000 2527.78456 2632.00000 0.00038
1781 30.19500 2457.11960 2605.00000 0.00038
1782 30.21000 2396.80647 2460.00000 0.00041
1783 30.22500 2348.66350 2530.00000 0.00040
1784 30.24000 2312.13197 2486.00000 0.00040
1785 30.25500 2285.43387 2396.00000 0.00042
1786 30.27000 2266.37072 2475.00000 0.00040
1787 30.28500 2252.84968 2366.00000 0.00042
1788 30.30000 2243.16553 2328.00000 0.00043
1789 30.31500 2236.08192 2350.00000 0.00043
1790 30.33000 2230.78391 2412.00000 0.00041
1791 30.34500 2226.77684 2239.00000 0.00045
1792 30.36000 2223.78477 2309.00000 0.00043
1793 30.37500 2221.67532 2305.00000 0.00043
1794 30.39000 2220.41197 2320.00000 0.00043
1795 30.40500 2220.03066 2400.00000 0.00042
1796 30.42000 2220.66674 2379.00000 0.00042
1797 30.43500 2222.55536 2378.00000 0.00042
1798 30.45000 2226.07290 2327.00000 0.00043
1799 30.46500 2231.78265 2327.00000 0.00043
1800 30.48000 2240.48605 2328.00000 0.00043
1801 30.49500 2253.26924 2412.00000 0.00041
1802 30.51000 2271.52252 2323.00000 0.00043
1803 30.52500 2296.89111 2376.00000 0.00042
1804 30.54000 2331.10828 2349.00000 0.00043
1805 30.55500 2375.69685 2402.00000 0.00042
1806 30.57000 2431.57026 2330.00000 0.00043
1807 30.58500 2498.54125 2342.00000 0.00043
1808 30.60000 2574.72105 2364.00000 0.00042
1809 30.61500 2655.84586 2497.00000 0.00040
1810 30.63000 2734.64933 2385.00000 0.00042
1811 30.64500 2800.48860 2498.00000 0.00040
1812 30.66000 2839.97821 2364.00000 0.00042
1813 30.67500 2840.60477 2457.00000 0.00041
1814 30.69000 2798.42928 2428.00000 0.00041
1815 30.70500 2723.80488 2443.00000 0.00041
1816 30.72000 2636.25896 2430.00000 0.00041
1817 30.73500 2553.72973 2476.00000 0.00040
1818 30.75000 2487.46252 2464.00000 0.00041
1819 30.76500 2442.80602 2436.00000 0.00041
1820 30.78000 2421.25885 2460.00000 0.00041
1821 30.79500 2421.91160 2434.00000 0.00041
1822 30.81000 2442.28285 2430.00000 0.00041
1823 30.82500 2478.72028 2491.00000 0.00040
1824 30.84000 2526.37531 2488.00000 0.00040
1825 30.85500 2578.91037 2526.00000 0.00040
1826 30.87000 2628.01773 2547.00000 0.00039
1827 30.88500 2663.30505 2487.00000 0.00040
1828 30.90000 2673.45730 2544.00000 0.00039
1829 30.91500 2650.58722 2452.00000 0.00041
1830 30.93000 2596.36281 2488.00000 0.00040
1831 30.94500 2522.66959 2491.00000 0.00040
1832 30.96000 2444.21727 2394.00000 0.00042
1833 30.97500 2371.63900 2359.00000 0.00042
1834 30.99000 2310.21307 2313.00000 0.00043
1835 31.00500 2261.39367 2237.00000 0.00045
1836 31.02000 2224.39446 2330.00000 0.00043
1837 31.03500 2197.29852 2311.00000 0.00043
1838 31.05000 2177.83667 2179.00000 0.00046
1839 31.06500 2163.87529 2240.00000 0.00045
1840 31.08000 2153.61448 2236.00000 0.00045
1841 31.09500 2145.86620 2234.00000 0.00045
1842 31.11000 2139.80420 2325.00000 0.00043
1843 31.12500 2134.91401 2256.00000 0.00044
1844 31.14000 2130.88793 2271.00000 0.00044
1845 31.15500 2127.54528 2183.00000 0.00046
1846 31.17000 2124.78142 2237.00000 0.00045
1847 31.18500 2122.53792 2196.00000 0.00046
1848 31.20000 2120.78911 2191.00000 0.00046
1849 31.21500 2119.53815 2171.00000 0.00046
1850 31.23000 2118.82024 2228.00000 0.00045
1851 31.24500 2118.71270 2222.00000 0.00045
1852 31.26000 2119.36374 2181.00000 0.00046
1853 31.27500 2120.92804 2132.00000 0.00047
1854 31.29000 2123.72241 2086.00000 0.00048
1855 31.30500 2128.20194 2171.00000 0.00046
1856 31.32000 2134.97238 2252.00000 0.00044
1857 31.33500 2144.82936 2163.00000 0.00046
1858 31.35000 2158.65493 2162.00000 0.00046
1859 31.36500 2177.48441 2112.00000 0.00047
1860 31.38000 2202.21217 2168.00000 0.00046
1861 31.39500 2233.38376 2146.00000 0.00047
1862 31.41000 2270.91546 2155.00000 0.00046
1863 31.42500 2313.77610 2176.00000 0.00046
1864 31.44000 2359.64163 2239.00000 0.00045
1865 31.45500 2404.56650 2234.00000 0.00045
1866 31.47000 2442.78278 2177.00000 0.00046
1867 31.48500 2467.05510 2243.00000 0.00045
1868 31.50000 2470.68321 2250.00000 0.00044
1869 31.51500 2451.73074 2244.00000 0.00045
1870 31.53000 2416.16764 2246.00000 0.00045
1871 31.54500 2375.13728 2266.00000 0.00044
1872 31.56000 2339.07121 2311.00000 0.00043
1873 31.57500 2314.76514 2352.00000 0.00043
1874 31.59000 2305.65076 2331.00000 0.00043
1875 31.60500 2312.74915 2437.00000 0.00041
1876 31.62000 2335.26865 2452.00000 0.00041
1877 31.63500 2370.85871 2449.00000 0.00041
1878 31.65000 2415.62959 2625.00000 0.00038
1879 31.66500 2464.01412 2590.00000 0.00039
1880 31.68000 2508.67387 2676.00000 0.00037
1881 31.69500 2540.77261 2707.00000 0.00037
1882 31.71000 2551.46360 2643.00000 0.00038
1883 31.72500 2534.65056 2694.00000 0.00037
1884 31.74000 2490.90432 2678.00000 0.00037
1885 31.75500 2428.94775 2459.00000 0.00041
1886 31.77000 2361.15883 2466.00000 0.00041
1887 31.78500 2297.46502 2437.00000 0.00041
1888 31.80000 2243.23945 2329.00000 0.00043
1889 31.81500 2200.28373 2372.00000 0.00042
1890 31.83000 2168.26936 2271.00000 0.00044
1891 31.84500 2145.79372 2231.00000 0.00045
1892 31.86000 2131.09596 2155.00000 0.00046
1893 31.87500 2122.54592 2114.00000 0.00047
1894 31.89000 2118.94279 2129.00000 0.00047
1895 31.90500 2119.65732 2192.00000 0.00046
1896 31.92000 2124.66985 2094.00000 0.00048
1897 31.93500 2134.55582 2189.00000 0.00046
1898 31.95000 2150.44290 2150.00000 0.00047
1899 31.96500 2173.92183 2142.00000 0.00047
1900 31.98000 2206.85796 2182.00000 0.00046
1901 31.99500 2251.05809 2226.00000 0.00045
1902 32.01000 2307.81074 2286.00000 0.00044
1903 32.02500 2377.34937 2503.00000 0.00040
1904 32.04000 2458.22554 2472.00000 0.00040
1905 32.05500 2546.55823 2615.00000 0.00038
1906 32.07000 2635.26425 2666.00000 0.00038
1907 32.08500 2713.63328 2838.00000 0.00035
1908 32.10000 2768.00054 2900.00000 0.00034
1909 32.11500 2785.24160 2914.00000 0.00034
1910 32.13000 2760.29100 2828.00000 0.00035
1911 32.14500 2702.64467 2799.00000 0.00036
1912 32.16000 2632.55519 2624.00000 0.00038
1913 32.17500 2569.88485 2536.00000 0.00039
1914 32.19000 2527.31742 2452.00000 0.00041
1915 32.20500 2510.09590 2345.00000 0.00043
1916 32.22000 2517.78212 2329.00000 0.00043
1917 32.23500 2545.58710 2328.00000 0.00043
1918 32.25000 2585.09588 2320.00000 0.00043
1919 32.26500 2624.70240 2335.00000 0.00043
1920 32.28000 2650.34838 2316.00000 0.00043
1921 32.29500 2648.00085 2218.00000 0.00045
1922 32.31000 2609.72127 2343.00000 0.00043
1923 32.32500 2539.72904 2231.00000 0.00045
1924 32.34000 2452.46457 2242.00000 0.00045
1925 32.35500 2363.43957 2261.00000 0.00044
1926 32.37000 2282.93562 2212.00000 0.00045
1927 32.38500 2215.64801 2145.00000 0.00047
1928 32.40000 2162.54021 2111.00000 0.00047
1929 32.41500 2122.47215 2019.00000 0.00050
1930 32.43000 2093.30231 2124.00000 0.00047
1931 32.44500 2072.63955 2102.00000 0.00048
1932 32.46000 2058.32292 1967.00000 0.00051
1933 32.47500 2048.65701 2006.00000 0.00050
1934 32.49000 2042.43910 2023.00000 0.00049
1935 32.50500 2038.86120 2032.00000 0.00049
1936 32.52000 2037.36047 2094.00000 0.00048
1937 32.53500 2037.47100 2073.00000 0.00048
1938 32.55000 2038.69926 2074.00000 0.00048
1939 32.56500 2040.42696 1984.00000 0.00050
1940 32.58000 2041.84545 1990.00000 0.00050
1941 32.59500 2041.95618 1946.00000 0.00051
1942 32.61000 2039.75620 2032.00000 0.00049
1943 32.62500 2034.71846 1954.00000 0.00051
1944 32.64000 2027.26643 1999.00000 0.00050
1945 32.65500 2018.59442 2035.00000 0.00049
1946 32.67000 2009.93988 2000.00000 0.00050
1947 32.68500 2002.10439 1940.00000 0.00052
1948 32.70000 1995.45520 1914.00000 0.00052
1949 32.71500 1990.05537 1982.00000 0.00050
1950 32.73000 1985.80525 2069.00000 0.00048
1951 32.74500 1982.59080 1912.00000 0.00052
1952 32.76000 1980.17686 1944.00000 0.00051
1953 32.77500 1978.39300 1896.00000 0.00053
1954 32.79000 1977.10781 1957.00000 0.00051
1955 32.80500 1976.23306 1936.00000 0.00052
1956 32.82000 1975.71927 1923.00000 0.00052
1957 32.83500 1975.54314 1971.00000 0.00051
1958 32.85000 1975.72611 1962.00000 0.00051
1959 32.86500 1976.30648 1941.00000 0.00052
1960 32.88000 1977.32412 1961.00000 0.00051
1961 32.89500 1978.83934 2001.00000 0.00050
1962 32.91000 1980.97213 2002.00000 0.00050
1963 32.92500 1983.85076 1988.00000 0.00050
1964 32.94000 1987.74041 1990.00000 0.00050
1965 32.95500 1992.99926 2013.00000 0.00050
1966 32.97000 2000.15773 2017.00000 0.00050
1967 32.98500 2009.98632 2046.00000 0.00049
1968 33.00000 2023.57122 2034.00000 0.00049
1969 33.01500 2042.38292 2157.00000 0.00046
1970 33.03000 2068.30548 2093.00000 0.00048
1971 33.04500 2103.56030 2123.00000 0.00047
1972 33.06000 2150.45606 2187.00000 0.00046
1973 33.07500 2210.91069 2254.00000 0.00044
1974 33.09000 2285.80071 2382.00000 0.00042
1975 33.10500 2374.24781 2439.00000 0.00041
1976 33.12000 2472.86646 2562.00000 0.00039
1977 33.13500 2575.09628 2712.00000 0.00037
1978 33.15000 2670.46219 2962.00000 0.00034
1979 33.16500 2744.36475 2872.00000 0.00035
1980 33.18000 2779.80772 3009.00000 0.00033
1981 33.19500 2763.47865 2964.00000 0.00034
1982 33.21000 2694.93842 2903.00000 0.00034
1983 33.22500 2589.69757 2893.00000 0.00035
1984 33.24000 2470.41006 2707.00000 0.00037
1985 33.25500 2355.58915 2534.00000 0.00039
1986 33.27000 2255.58453 2261.00000 0.00044
1987 33.28500 2174.17842 2211.00000 0.00045
1988 33.30000 2111.15424 2165.00000 0.00046
1989 33.31500 2064.17595 2197.00000 0.00046
1990 33.33000 2030.03564 2020.00000 0.00050
1991 33.34500 2005.48186 2047.00000 0.00049
1992 33.36000 1987.70806 2006.00000 0.00050
1993 33.37500 1974.55208 1998.00000 0.00050
1994 33.39000 1964.48828 1959.00000 0.00051
1995 33.40500 1956.50927 1961.00000 0.00051
1996 33.42000 1949.97810 1960.00000 0.00051
1997 33.43500 1944.49855 2066.00000 0.00048
1998 33.45000 1939.82116 2003.00000 0.00050
1999 33.46500 1935.78182 1973.00000 0.00051
2000 33.48000 1932.26884 1900.00000 0.00053
2001 33.49500 1929.20199 1958.00000 0.00051
2002 33.51000 1926.52234 1972.00000 0.00051
2003 33.52500 1924.18652 1961.00000 0.00051
2004 33.54000 1922.16331 1959.00000 0.00051
2005 33.55500 1920.43171 2027.00000 0.00049
2006 33.57000 1918.97976 1988.00000 0.00050
2007 33.58500 1917.80419 2012.00000 0.00050
2008 33.60000 1916.91071 2037.00000 0.00049
2009 33.61500 1916.31548 2013.00000 0.00050
2010 33.63000 1916.04803 1984.00000 0.00050
2011 33.64500 1916.15671 2078.00000 0.00048
2012 33.66000 1916.71993 2009.00000 0.00050
2013 33.67500 1917.86145 2044.00000 0.00049
2014 33.69000 1919.77386 2081.00000 0.00048
2015 33.70500 1922.75092 2037.00000 0.00049
2016 33.72000 1927.22901 2074.00000 0.00048
2017 33.73500 1933.83431 2036.00000 0.00049
2018 33.75000 1943.42424 2051.00000 0.00049
2019 33.76500 1957.09204 2118.00000 0.00047
2020 33.78000 1976.07589 2112.00000 0.00047
2021 33.79500 2001.54460 2184.00000 0.00046
2022 33.81000 2034.45197 2119.00000 0.00047
2023 33.82500 2074.76870 2135.00000 0.00047
2024 33.84000 2121.49457 2242.00000 0.00045
2025 33.85500 2172.17346 2244.00000 0.00045
2026 33.87000 2222.32421 2109.00000 0.00047
2027 33.88500 2264.63206 2133.00000 0.00047
2028 33.90000 2289.05826 2167.00000 0.00046
2029 33.91500 2286.49793 2139.00000 0.00047
2030 33.93000 2255.46847 2181.00000 0.00046
2031 33.94500 2204.31837 2098.00000 0.00048
2032 33.96000 2145.34213 2105.00000 0.00048
2033 33.97500 2088.21177 1969.00000 0.00051
2034 33.99000 2038.17743 2029.00000 0.00049
2035 34.00500 1997.20361 1966.00000 0.00051
2036 34.02000 1965.25121 2049.00000 0.00049
2037 34.03500 1941.24971 1990.00000 0.00050
2038 34.05000 1923.65698 1988.00000 0.00050
2039 34.06500 1910.88072 2015.00000 0.00050
2040 34.08000 1901.52109 2000.00000 0.00050
2041 34.09500 1894.50868 1900.00000 0.00053
2042 34.11000 1889.07795 1910.00000 0.00052
2043 34.12500 1884.70880 1916.00000 0.00052
2044 34.14000 1881.11924 2014.00000 0.00050
2045 34.15500 1878.13216 1896.00000 0.00053
2046 34.17000 1875.60300 1915.00000 0.00052
2047 34.18500 1873.46011 1843.00000 0.00054
2048 34.20000 1871.66096 1882.00000 0.00053
2049 34.21500 1870.19679 1867.00000 0.00054
2050 34.23000 1869.07930 1884.00000 0.00053
2051 34.24500 1868.34888 1838.00000 0.00054
2052 34.26000 1868.08219 1907.00000 0.00052
2053 34.27500 1868.40242 1875.00000 0.00053
2054 34.29000 1869.49052 1912.00000 0.00052
2055 34.30500 1871.59369 1968.00000 0.00051
2056 34.32000 1875.02458 1955.00000 0.00051
2057 34.33500 1880.14033 1943.00000 0.00051
2058 34.35000 1887.28932 1982.00000 0.00050
2059 34.36500 1896.72028 1945.00000 0.00051
2060 34.38000 1908.46600 2020.00000 0.00050
2061 34.39500 1922.22422 2057.00000 0.00049
2062 34.41000 1937.24552 2052.00000 0.00049
2063 34.42500 1952.22644 2152.00000 0.00046
2064 34.44000 1965.23073 2114.00000 0.00047
2065 34.45500 1973.75609 2101.00000 0.00048
2066 34.47000 1975.23906 2166.00000 0.00046
2067 34.48500 1968.26388 2107.00000 0.00047
2068 34.50000 1953.82892 2164.00000 0.00046
2069 34.51500 1935.08347 2018.00000 0.00050
2070 34.53000 1915.48101 1955.00000 0.00051
2071 34.54500 1897.38593 1997.00000 0.00050
2072 34.56000 1881.92740 1947.00000 0.00051
2073 34.57500 1869.38963 1858.00000 0.00054
2074 34.59000 1859.59318 1907.00000 0.00052
2075 34.60500 1852.11823 1863.00000 0.00054
2076 34.62000 1846.46432 1836.00000 0.00054
2077 34.63500 1842.15938 1925.00000 0.00052
2078 34.65000 1838.80829 1886.00000 0.00053
2079 34.66500 1836.11292 1930.00000 0.00052
2080 34.68000 1833.86522 1830.00000 0.00055
2081 34.69500 1831.92822 1856.00000 0.00054
2082 34.71000 1830.21485 1859.00000 0.00054
2083 34.72500 1828.67013 1912.00000 0.00052
2084 34.74000 1827.25869 1858.00000 0.00054
2085 34.75500 1825.95657 1870.00000 0.00053
2086 34.77000 1824.74582 1835.00000 0.00054
2087 34.78500 1823.60513 1821.00000 0.00055
2088 34.80000 1822.54181 1801.00000 0.00056
2089 34.81500 1821.57658 1788.00000 0.00056
2090 34.83000 1820.67835 1806.00000 0.00055
2091 34.84500 1819.84490 1857.00000 0.00054
2092 34.86000 1819.07487 1744.00000 0.00057
2093 34.87500 1818.36971 1845.00000 0.00054
2094 34.89000 1817.73997 1750.00000 0.00057
2095 34.90500 1817.18423 1806.00000 0.00055
2096 34.92000 1816.71053 1803.00000 0.00055
2097 34.93500 1816.32792 1803.00000 0.00055
2098 34.95000 1816.05328 1800.00000 0.00056
2099 34.96500 1815.89242 1859.00000 0.00054
2100 34.98000 1815.85480 1804.00000 0.00055
2101 34.99500 1815.98252 1781.00000 0.00056
2102 35.01000 1816.31530 1850.00000 0.00054
2103 35.02500 1816.90892 1832.00000 0.00055
2104 35.04000 1817.84606 1808.00000 0.00055
2105 35.05500 1819.24477 1834.00000 0.00055
2106 35.07000 1821.26238 1816.00000 0.00055
2107 35.08500 1824.11429 1867.00000 0.00054
2108 35.10000 1828.07729 1887.00000 0.00053
2109 35.11500 1833.48198 1872.00000 0.00053
2110 35.13000 1840.67550 1888.00000 0.00053
2111 35.14500 1849.94531 1855.00000 0.00054
2112 35.16000 1861.41649 1918.00000 0.00052
2113 35.17500 1874.94716 1970.00000 0.00051
2114 35.19000 1890.03368 1959.00000 0.00051
2115 35.20500 1905.72439 2022.00000 0.00049
2116 35.22000 1920.54921 1976.00000 0.00051
2117 35.23500 1932.54412 1934.00000 0.00052
2118 35.25000 1939.64918 2074.00000 0.00048
2119 35.26500 1940.65851 2042.00000 0.00049
2120 35.28000 1936.39470 1927.00000 0.00052
2121 35.29500 1929.84717 1996.00000 0.00050
2122 35.31000 1924.84916 1952.00000 0.00051
2123 35.32500 1924.65799 1909.00000 0.00052
2124 35.34000 1931.45688 2005.00000 0.00050
2125 35.35500 1946.40433 1922.00000 0.00052
2126 35.37000 1969.67733 1945.00000 0.00051
2127 35.38500 2000.39413 1881.00000 0.00053
2128 35.40000 2036.47808 1851.00000 0.00054
2129 35.41500 2074.47897 1888.00000 0.00053
2130 35.43000 2109.38294 1969.00000 0.00051
2131 35.44500 2134.67393 1870.00000 0.00053
2132 35.46000 2143.47219 1934.00000 0.00052
2133 35.47500 2131.60694 1910.00000 0.00052
2134 35.49000 2101.08470 1944.00000 0.00051
2135 35.50500 2059.72342 1878.00000 0.00053
2136 35.52000 2016.60061 1938.00000 0.00052
2137 35.53500 1978.31640 1919.00000 0.00052
2138 35.55000 1948.43085 2031.00000 0.00049
2139 35.56500 1928.38398 1918.00000 0.00052
2140 35.58000 1918.35851 1952.00000 0.00051
2141 35.59500 1917.89415 1945.00000 0.00051
2142 35.61000 1925.89727 1969.00000 0.00051
2143 35.62500 1940.98944 2067.00000 0.00048
2144 35.64000 1961.19942 2100.00000 0.00048
2145 35.65500 1983.93104 2172.00000 0.00046
2146 35.67000 2006.03145 2301.00000 0.00043
2147 35.68500 2024.09585 2331.00000 0.00043
2148 35.70000 2034.73427 2409.00000 0.00042
2149 35.71500 2034.67747 2469.00000 0.00041
2150 35.73000 2021.64627 2411.00000 0.00041
2151 35.74500 1996.31380 2258.00000 0.00044
2152 35.76000 1962.99341 2245.00000 0.00045
2153 35.77500 1927.39529 2127.00000 0.00047
2154 35.79000 1893.99928 2052.00000 0.00049
2155 35.80500 1865.09496 1953.00000 0.00051
2156 35.82000 1841.39116 1863.00000 0.00054
2157 35.83500 1822.70421 1870.00000 0.00053
2158 35.85000 1808.34859 1817.00000 0.00055
2159 35.86500 1797.48304 1779.00000 0.00056
2160 35.88000 1789.27385 1794.00000 0.00056
2161 35.89500 1782.99873 1761.00000 0.00057
2162 35.91000 1778.09332 1812.00000 0.00055
2163 35.92500 1774.14795 1704.00000 0.00059
2164 35.94000 1770.88348 1701.00000 0.00059
2165 35.95500 1768.11840 1740.00000 0.00057
2166 35.97000 1765.73866 1764.00000 0.00057
2167 35.98500 1763.67520 1677.00000 0.00060
2168 36.00000 1761.88961 1749.00000 0.00057
2169 36.01500 1760.36646 1690.00000 0.00059
2170 36.03000 1759.11010 1699.00000 0.00059
2171 36.04500 1758.14386 1775.00000 0.00056
2172 36.06000 1757.50993 1722.00000 0.00058
2173 36.07500 1757.26718 1741.00000 0.00057
2174 36.09000 1757.48450 1669.00000 0.00060
2175 36.10500 1758.22675 1683.00000 0.00059
2176 36.12000 1759.53227 1688.00000 0.00059
2177 36.13500 1761.38546 1769.00000 0.00057
2178 36.15000 1763.68969 1699.00000 0.00059
2179 36.16500 1766.24445 1713.00000 0.00058
2180 36.18000 1768.71204 1686.00000 0.00059
2181 36.19500 1770.63769 1700.00000 0.00059
2182 36.21000 1771.43006 1620.00000 0.00062
2183 36.22500 1770.58098 1640.00000 0.00061
2184 36.24000 1767.95671 1702.00000 0.00059
2185 36.25500 1763.97137 1732.00000 0.00058
2186 36.27000 1759.36534 1665.00000 0.00060
2187 36.28500 1754.80823 1674.00000 0.00060
2188 36.30000 1750.70615 1637.00000 0.00061
2189 36.31500 1747.23047 1674.00000 0.00060
2190 36.33000 1744.40639 1662.00000 0.00060
2191 36.34500 1742.18101 1651.00000 0.00061
2192 36.36000 1740.46608 1644.00000 0.00061
2193 36.37500 1739.16528 1697.00000 0.00059
2194 36.39000 1738.19121 1669.00000 0.00060
2195 36.40500 1737.47429 1670.00000 0.00060
2196 36.42000 1736.96526 1693.00000 0.00059
2197 36.43500 1736.63327 1676.00000 0.00060
2198 36.45000 1736.46257 1668.00000 0.00060
2199 36.46500 1736.44929 1693.00000 0.00059
2200 36.48000 1736.59921 1680.00000 0.00060
2201 36.49500 1736.92443 1715.00000 0.00058
2202 36.51000 1737.42787 1651.00000 0.00061
2203 36.52500 1738.14400 1706.00000 0.00059
2204 36.54000 1739.10478 1719.00000 0.00058
2205 36.55500 1740.35241 1697.00000 0.00059
2206 36.57000 1741.94325 1683.00000 0.00059
2207 36.58500 1743.95434 1697.00000 0.00059
2208 36.60000 1746.49369 1733.00000 0.00058
2209 36.61500 1749.71601 1719.00000 0.00058
2210 36.63000 1753.84574 1674.00000 0.00060
2211 36.64500 1759.20793 1663.00000 0.00060
2212 36.66000 1766.27534 1746.00000 0.00057
2213 36.67500 1775.70286 1722.00000 0.00058
2214 36.69000 1788.37614 1651.00000 0.00061
2215 36.70500 1805.42903 1771.00000 0.00056
2216 36.72000 1828.20759 1765.00000 0.00057
2217 36.73500 1858.14296 1795.00000 0.00056
2218 36.75000 1896.49255 1913.00000 0.00052
2219 36.76500 1943.93249 1913.00000 0.00052
2220 36.78000 2000.06929 2013.00000 0.00050
2221 36.79500 2062.91691 2000.00000 0.00050
2222 36.81000 2128.41868 2078.00000 0.00048
2223 36.82500 2190.18646 2142.00000 0.00047
2224 36.84000 2239.60251 2221.00000 0.00045
2225 36.85500 2266.89023 2186.00000 0.00046
2226 36.87000 2263.99716 2219.00000 0.00045
2227 36.88500 2229.22057 2202.00000 0.00045
2228 36.90000 2170.01338 2153.00000 0.00046
2229 36.91500 2099.49745 2047.00000 0.00049
2230 36.93000 2029.70631 1965.00000 0.00051
2231 36.94500 1968.09455 1936.00000 0.00052
2232 36.96000 1917.97160 1958.00000 0.00051
2233 36.97500 1880.09263 1829.00000 0.00055
2234 36.99000 1853.90093 1790.00000 0.00056
2235 37.00500 1838.27817 1713.00000 0.00058
2236 37.02000 1831.96103 1759.00000 0.00057
2237 37.03500 1833.71794 1753.00000 0.00057
2238 37.05000 1842.35710 1770.00000 0.00056
2239 37.06500 1856.51024 1760.00000 0.00057
2240 37.08000 1874.47866 1822.00000 0.00055
2241 37.09500 1893.98739 1835.00000 0.00054
2242 37.11000 1911.96959 1843.00000 0.00054
2243 37.12500 1924.54508 1840.00000 0.00054
2244 37.14000 1927.68068 1844.00000 0.00054
2245 37.15500 1918.96856 1819.00000 0.00055
2246 37.17000 1899.53912 1870.00000 0.00053
2247 37.18500 1873.75480 1832.00000 0.00055
2248 37.20000 1846.61754 1852.00000 0.00054
2249 37.21500 1821.67485 1828.00000 0.00055
2250 37.23000 1800.69918 1807.00000 0.00055
2251 37.24500 1784.22343 1815.00000 0.00055
2252 37.26000 1772.06916 1703.00000 0.00059
2253 37.27500 1763.68343 1688.00000 0.00059
2254 37.29000 1758.34281 1723.00000 0.00058
2255 37.30500 1755.28134 1622.00000 0.00062
2256 37.32000 1753.76628 1654.00000 0.00060
2257 37.33500 1753.05814 1663.00000 0.00060
2258 37.35000 1752.68339 1594.00000 0.00063
2259 37.36500 1752.39683 1666.00000 0.00060
2260 37.38000 1752.27710 1679.00000 0.00060
2261 37.39500 1752.60341 1615.00000 0.00062
2262 37.41000 1753.66401 1633.00000 0.00061
2263 37.42500 1755.68971 1659.00000 0.00060
2264 37.44000 1758.88347 1657.00000 0.00060
2265 37.45500 1763.51175 1743.00000 0.00057
2266 37.47000 1770.01430 1740.00000 0.00057
2267 37.48500 1779.13360 1781.00000 0.00056
2268 37.50000 1792.05293 1733.00000 0.00058
2269 37.51500 1810.50712 1743.00000 0.00057
2270 37.53000 1836.79535 1783.00000 0.00056
2271 37.54500 1873.62682 1898.00000 0.00053
2272 37.56000 1923.76582 1904.00000 0.00053
2273 37.57500 1989.45396 2020.00000 0.00050
2274 37.59000 2071.51073 2102.00000 0.00048
2275 37.60500 2167.91306 2188.00000 0.00046
2276 37.62000 2272.04912 2177.00000 0.00046
2277 37.63500 2371.91751 2291.00000 0.00044
2278 37.65000 2451.87328 2345.00000 0.00043
2279 37.66500 2497.36943 2496.00000 0.00040
2280 37.68000 2501.33119 2386.00000 0.00042
2281 37.69500 2468.69059 2337.00000 0.00043
2282 37.71000 2415.16777 2199.00000 0.00045
2283 37.72500 2360.35950 2244.00000 0.00045
2284 37.74000 2320.85183 2215.00000 0.00045
2285 37.75500 2308.00146 2224.00000 0.00045
2286 37.77000 2329.01894 2249.00000 0.00044
2287 37.78500 2388.28928 2440.00000 0.00041
2288 37.80000 2487.66834 2507.00000 0.00040
2289 37.81500 2625.82464 2760.00000 0.00036
2290 37.83000 2797.10178 3076.00000 0.00033
2291 37.84500 2990.27976 3391.00000 0.00029
2292 37.86000 3187.28652 3652.00000 0.00027
2293 37.87500 3362.12245 3898.00000 0.00026
2294 37.89000 3481.96011 4026.00000 0.00025
2295 37.90500 3514.98374 4037.00000 0.00025
2296 37.92000 3447.03125 3924.00000 0.00025
2297 37.93500 3295.26975 3746.00000 0.00027
2298 37.95000 3100.73107 3598.00000 0.00028
2299 37.96500 2905.71831 3291.00000 0.00030
2300 37.98000 2739.33491 3113.00000 0.00032
2301 37.99500 2617.04265 3025.00000 0.00033
2302 38.01000 2545.25916 2872.00000 0.00035
2303 38.02500 2525.13176 2827.00000 0.00035
2304 38.04000 2554.37005 2764.00000 0.00036
2305 38.05500 2627.82713 2762.00000 0.00036
2306 38.07000 2737.43080 2876.00000 0.00035
2307 38.08500 2871.67514 2959.00000 0.00034
2308 38.10000 3014.72017 2831.00000 0.00035
2309 38.11500 3145.85318 3042.00000 0.00033
2310 38.13000 3241.78802 3069.00000 0.00033
2311 38.14500 3284.69664 3111.00000 0.00032
2312 38.16000 3272.49005 3340.00000 0.00030
2313 38.17500 3219.18483 3327.00000 0.00030
2314 38.19000 3141.86548 3425.00000 0.00029
2315 38.20500 3048.25680 3228.00000 0.00031
2316 38.22000 2935.94392 3292.00000 0.00030
2317 38.23500 2801.23549 3120.00000 0.00032
2318 38.25000 2648.75621 3064.00000 0.00033
2319 38.26500 2492.02159 2828.00000 0.00035
2320 38.28000 2345.50450 2676.00000 0.00037
2321 38.29500 2218.24127 2492.00000 0.00040
2322 38.31000 2113.31040 2337.00000 0.00043
2323 38.32500 2030.03204 2108.00000 0.00047
2324 38.34000 1965.96042 2095.00000 0.00048
2325 38.35500 1918.06644 2007.00000 0.00050
2326 38.37000 1883.38129 2072.00000 0.00048
2327 38.38500 1859.42828 1949.00000 0.00051
2328 38.40000 1844.32324 1912.00000 0.00052
2329 38.41500 1836.96980 1823.00000 0.00055
2330 38.43000 1837.05710 1819.00000 0.00055
2331 38.44500 1845.02387 1864.00000 0.00054
2332 38.46000 1861.96698 1840.00000 0.00054
2333 38.47500 1889.46844 1823.00000 0.00055
2334 38.49000 1929.28813 1897.00000 0.00053
2335 38.50500 1982.86253 1873.00000 0.00053
2336 38.52000 2050.60123 1863.00000 0.00054
2337 38.53500 2131.07775 1908.00000 0.00052
2338 38.55000 2220.24923 1951.00000 0.00051
2339 38.56500 2310.73070 1921.00000 0.00052
2340 38.58000 2391.27469 1964.00000 0.00051
2341 38.59500 2447.00602 1969.00000 0.00051
2342 38.61000 2462.74505 2009.00000 0.00050
2343 38.62500 2430.36407 1996.00000 0.00050
2344 38.64000 2355.62695 1939.00000 0.00052
2345 38.65500 2255.91638 1947.00000 0.00051
2346 38.67000 2150.11088 1866.00000 0.00054
2347 38.68500 2051.15421 1843.00000 0.00054
2348 38.70000 1965.29790 1846.00000 0.00054
2349 38.71500 1894.36784 1810.00000 0.00055
2350 38.73000 1837.83923 1839.00000 0.00054
2351 38.74500 1794.02731 1754.00000 0.00057
2352 38.76000 1760.74441 1679.00000 0.00060
2353 38.77500 1735.75213 1766.00000 0.00057
2354 38.79000 1717.01457 1748.00000 0.00057
2355 38.80500 1702.91034 1650.00000 0.00061
2356 38.82000 1692.26081 1712.00000 0.00058
2357 38.83500 1684.15964 1734.00000 0.00058
2358 38.85000 1678.11919 1686.00000 0.00059
2359 38.86500 1673.84061 1795.00000 0.00056
2360 38.88000 1671.20232 1760.00000 0.00057
2361 38.89500 1670.22067 1755.00000 0.00057
2362 38.91000 1671.01896 1736.00000 0.00058
2363 38.92500 1673.79922 1730.00000 0.00058
2364 38.94000 1678.78671 1693.00000 0.00059
2365 38.95500 1686.16476 1759.00000 0.00057
2366 38.97000 1695.97537 1717.00000 0.00058
2367 38.98500 1708.01111 1762.00000 0.00057
2368 39.00000 1721.71286 1738.00000 0.00058
2369 39.01500 1736.08044 1744.00000 0.00057
2370 39.03000 1749.61963 1669.00000 0.00060
2371 39.04500 1760.46503 1698.00000 0.00059
2372 39.06000 1766.96795 1753.00000 0.00057
2373 39.07500 1768.81223 1831.00000 0.00055
2374 39.09000 1767.83236 1754.00000 0.00057
2375 39.10500 1767.48805 1784.00000 0.00056
2376 39.12000 1771.51787 1758.00000 0.00057
2377 39.13500 1783.13635 1794.00000 0.00056
2378 39.15000 1805.00064 1871.00000 0.00053
2379 39.16500 1839.35015 1869.00000 0.00054
2380 39.18000 1887.90473 1889.00000 0.00053
2381 39.19500 1951.43313 1972.00000 0.00051
2382 39.21000 2029.07901 2014.00000 0.00050
2383 39.22500 2117.60628 2047.00000 0.00049
2384 39.24000 2210.66100 2127.00000 0.00047
2385 39.25500 2298.09434 2128.00000 0.00047
2386 39.27000 2365.83982 2140.00000 0.00047
2387 39.28500 2398.02269 2151.00000 0.00046
2388 39.30000 2383.22245 2116.00000 0.00047
2389 39.31500 2322.33652 2127.00000 0.00047
2390 39.33000 2229.66174 2059.00000 0.00049
2391 39.34500 2124.57470 2004.00000 0.00050
2392 39.36000 2022.55609 1917.00000 0.00052
2393 39.37500 1932.27154 1876.00000 0.00053
2394 39.39000 1856.99417 1800.00000 0.00056
2395 39.40500 1796.80921 1790.00000 0.00056
2396 39.42000 1750.11325 1795.00000 0.00056
2397 39.43500 1714.68193 1773.00000 0.00056
2398 39.45000 1688.13726 1716.00000 0.00058
2399 39.46500 1668.31211 1649.00000 0.00061
2400 39.48000 1653.41549 1678.00000 0.00060
2401 39.49500 1642.06215 1690.00000 0.00059
2402 39.51000 1633.27807 1590.00000 0.00063
2403 39.52500 1626.38580 1655.00000 0.00060
2404 39.54000 1620.92859 1644.00000 0.00061
2405 39.55500 1616.61780 1625.00000 0.00062
2406 39.57000 1613.27322 1699.00000 0.00059
2407 39.58500 1610.76168 1650.00000 0.00061
2408 39.60000 1608.99666 1652.00000 0.00061
2409 39.61500 1607.93439 1609.00000 0.00062
2410 39.63000 1607.56356 1642.00000 0.00061
2411 39.64500 1607.90585 1611.00000 0.00062
2412 39.66000 1609.02000 1660.00000 0.00060
2413 39.67500 1611.00850 1615.00000 0.00062
2414 39.69000 1614.02523 1689.00000 0.00059
2415 39.70500 1618.28204 1677.00000 0.00060
2416 39.72000 1624.05760 1670.00000 0.00060
2417 39.73500 1631.71998 1637.00000 0.00061
2418 39.75000 1641.76606 1656.00000 0.00060
2419 39.76500 1654.90571 1633.00000 0.00061
2420 39.78000 1672.12433 1778.00000 0.00056
2421 39.79500 1694.77873 1699.00000 0.00059
2422 39.81000 1724.66705 1741.00000 0.00057
2423 39.82500 1764.02640 1727.00000 0.00058
2424 39.84000 1815.40646 1795.00000 0.00056
2425 39.85500 1881.35977 1897.00000 0.00053
2426 39.87000 1963.89917 1972.00000 0.00051
2427 39.88500 2063.71058 2049.00000 0.00049
2428 39.90000 2179.15559 2219.00000 0.00045
2429 39.91500 2305.15418 2312.00000 0.00043
2430 39.93000 2432.19697 2416.00000 0.00041
2431 39.94500 2546.14183 2544.00000 0.00039
2432 39.96000 2629.90287 2507.00000 0.00040
2433 39.97500 2667.66613 2579.00000 0.00039
2434 39.99000 2650.11137 2568.00000 0.00039
2435 40.00500 2578.56111 2513.00000 0.00040
2436 40.02000 2466.58795 2455.00000 0.00041
2437 40.03500 2335.83948 2313.00000 0.00043
2438 40.05000 2207.16807 2161.00000 0.00046
2439 40.06500 2094.56725 2098.00000 0.00048
2440 40.08000 2004.91732 1961.00000 0.00051
2441 40.09500 1940.31582 1930.00000 0.00052
2442 40.11000 1900.07190 1866.00000 0.00054
2443 40.12500 1881.71176 1807.00000 0.00055
2444 40.14000 1881.36943 1834.00000 0.00055
2445 40.15500 1893.98305 1753.00000 0.00057
2446 40.17000 1913.37843 1705.00000 0.00059
2447 40.18500 1932.23346 1743.00000 0.00057
2448 40.20000 1942.39263 1788.00000 0.00056
2449 40.21500 1936.53762 1660.00000 0.00060
2450 40.23000 1911.44283 1725.00000 0.00058
2451 40.24500 1870.26106 1708.00000 0.00059
2452 40.26000 1820.62492 1695.00000 0.00059
2453 40.27500 1770.20046 1745.00000 0.00057
2454 40.29000 1723.97972 1702.00000 0.00059
2455 40.30500 1684.21629 1678.00000 0.00060
2456 40.32000 1651.38683 1587.00000 0.00063
2457 40.33500 1625.02381 1584.00000 0.00063
2458 40.35000 1604.23561 1578.00000 0.00063
2459 40.36500 1588.00856 1599.00000 0.00063
2460 40.38000 1575.33147 1538.00000 0.00065
2461 40.39500 1565.34377 1602.00000 0.00062
2462 40.41000 1557.37177 1576.00000 0.00063
2463 40.42500 1550.86370 1564.00000 0.00064
2464 40.44000 1545.48387 1531.00000 0.00065
2465 40.45500 1540.98298 1500.00000 0.00067
2466 40.47000 1537.20879 1536.00000 0.00065
2467 40.48500 1534.06113 1585.00000 0.00063
2468 40.50000 1531.47422 1542.00000 0.00065
2469 40.51500 1529.39776 1537.00000 0.00065
2470 40.53000 1527.78024 1523.00000 0.00066
2471 40.54500 1526.55377 1538.00000 0.00065
2472 40.56000 1525.62046 1517.00000 0.00066
2473 40.57500 1524.84232 1491.00000 0.00067
2474 40.59000 1524.04185 1513.00000 0.00066
2475 40.60500 1523.00637 1554.00000 0.00064
2476 40.62000 1521.58837 1489.00000 0.00067
2477 40.63500 1519.77977 1491.00000 0.00067
2478 40.65000 1517.75312 1509.00000 0.00066
2479 40.66500 1515.68800 1501.00000 0.00067
2480 40.68000 1513.80586 1521.00000 0.00066
2481 40.69500 1512.21830 1479.00000 0.00068
2482 40.71000 1510.97348 1499.00000 0.00067
2483 40.72500 1510.08377 1494.00000 0.00067
2484 40.74000 1509.54581 1482.00000 0.00067
2485 40.75500 1509.35296 1506.00000 0.00066
2486 40.77000 1509.50296 1456.00000 0.00069
2487 40.78500 1510.00401 1456.00000 0.00069
2488 40.80000 1510.88054 1484.00000 0.00067
2489 40.81500 1512.18407 1524.00000 0.00066
2490 40.83000 1513.96560 1462.00000 0.00068
2491 40.84500 1516.33985 1518.00000 0.00066
2492 40.86000 1519.45639 1445.00000 0.00069
2493 40.87500 1523.51296 1427.00000 0.00070
2494 40.89000 1528.76193 1511.00000 0.00066
2495 40.90500 1535.50768 1510.00000 0.00066
2496 40.92000 1544.09159 1475.00000 0.00068
2497 40.93500 1554.85670 1484.00000 0.00067
2498 40.95000 1568.08792 1523.00000 0.00066
2499 40.96500 1583.93025 1519.00000 0.00066
2500 40.98000 1602.30212 1622.00000 0.00062
2501 40.99500 1622.80865 1611.00000 0.00062
2502 41.01000 1644.68588 1614.00000 0.00062
2503 41.02500 1666.84988 1578.00000 0.00063
2504 41.04000 1688.24156 1603.00000 0.00062
2505 41.05500 1708.67794 1568.00000 0.00064
2506 41.07000 1729.81502 1716.00000 0.00058
2507 41.08500 1755.12688 1693.00000 0.00059
2508 41.10000 1788.56781 1708.00000 0.00059
2509 41.11500 1833.03800 1734.00000 0.00058
2510 41.13000 1889.51478 1802.00000 0.00055
2511 41.14500 1956.62940 1862.00000 0.00054
2512 41.16000 2030.29590 1941.00000 0.00052
2513 41.17500 2103.50229 2075.00000 0.00048
2514 41.19000 2166.91360 2288.00000 0.00044
2515 41.20500 2210.98646 2266.00000 0.00044
2516 41.22000 2229.17797 2282.00000 0.00044
2517 41.23500 2220.24253 2257.00000 0.00044
2518 41.25000 2188.59598 2266.00000 0.00044
2519 41.26500 2142.28628 2138.00000 0.00047
2520 41.28000 2088.82311 2061.00000 0.00049
2521 41.29500 2032.05821 1956.00000 0.00051
2522 41.31000 1973.02761 1928.00000 0.00052
2523 41.32500 1913.23849 1874.00000 0.00053
2524 41.34000 1856.35846 1828.00000 0.00055
2525 41.35500 1806.71880 1789.00000 0.00056
2526 41.37000 1767.06343 1768.00000 0.00057
2527 41.38500 1737.78968 1778.00000 0.00056
2528 41.40000 1717.37144 1769.00000 0.00057
2529 41.41500 1702.96413 1732.00000 0.00058
2530 41.43000 1690.90098 1757.00000 0.00057
2531 41.44500 1677.40089 1715.00000 0.00058
2532 41.46000 1659.80457 1667.00000 0.00060
2533 41.47500 1637.78550 1698.00000 0.00059
2534 41.49000 1613.23815 1639.00000 0.00061
2535 41.50500 1588.77019 1605.00000 0.00062
2536 41.52000 1566.33665 1606.00000 0.00062
2537 41.53500 1546.89790 1588.00000 0.00063
2538 41.55000 1530.69020 1593.00000 0.00063
2539 41.56500 1517.56074 1496.00000 0.00067
2540 41.58000 1507.18907 1460.00000 0.00068
2541 41.59500 1499.21298 1515.00000 0.00066
2542 41.61000 1493.30146 1541.00000 0.00065
2543 41.62500 1489.19572 1453.00000 0.00069
2544 41.64000 1486.72414 1546.00000 0.00065
2545 41.65500 1485.78955 1531.00000 0.00065
2546 41.67000 1486.35030 1548.00000 0.00065
2547 41.68500 1488.35137 1579.00000 0.00063
2548 41.70000 1491.65863 1602.00000 0.00062
2549 41.71500 1495.96468 1596.00000 0.00063
2550 41.73000 1500.70088 1591.00000 0.00063
2551 41.74500 1504.95981 1620.00000 0.00062
2552 41.76000 1507.47292 1583.00000 0.00063
2553 41.77500 1506.77437 1646.00000 0.00061
2554 41.79000 1501.70997 1612.00000 0.00062
2555 41.80500 1492.12183 1624.00000 0.00062
2556 41.82000 1479.05343 1598.00000 0.00063
2557 41.83500 1464.17611 1585.00000 0.00063
2558 41.85000 1449.08702 1559.00000 0.00064
2559 41.86500 1435.11571 1550.00000 0.00065
2560 41.88000 1423.51400 1518.00000 0.00066
2561 41.89500 1415.63554 1602.00000 0.00062
2562 41.91000 1412.56580 1516.00000 0.00066
2563 41.92500 1414.24965 1499.00000 0.00067
2564 41.94000 1419.15842 1472.00000 0.00068
2565 41.95500 1425.24518 1448.00000 0.00069
2566 41.97000 1431.11919 1475.00000 0.00068
2567 41.98500 1436.29620 1460.00000 0.00068
2568 42.00000 1440.80608 1481.00000 0.00068
2569 42.01500 1444.84489 1497.00000 0.00067
2570 42.03000 1448.64307 1435.00000 0.00070
2571 42.04500 1452.44193 1461.00000 0.00068
2572 42.06000 1456.49508 1468.00000 0.00068
2573 42.07500 1461.08074 1473.00000 0.00068
2574 42.09000 1466.52869 1477.00000 0.00068
2575 42.10500 1473.20670 1455.00000 0.00069
2576 42.12000 1481.58918 1453.00000 0.00069
2577 42.13500 1492.28236 1526.00000 0.00066
2578 42.15000 1506.05381 1516.00000 0.00066
2579 42.16500 1523.84235 1502.00000 0.00067
2580 42.18000 1546.72872 1550.00000 0.00065
2581 42.19500 1575.84782 1568.00000 0.00064
2582 42.21000 1612.21099 1620.00000 0.00062
2583 42.22500 1656.41777 1725.00000 0.00058
2584 42.24000 1708.25882 1726.00000 0.00058
2585 42.25500 1766.24620 1813.00000 0.00055
2586 42.27000 1827.12662 1890.00000 0.00053
2587 42.28500 1885.46990 1872.00000 0.00053
2588 42.30000 1933.61838 2027.00000 0.00049
2589 42.31500 1962.58701 2093.00000 0.00048
2590 42.33000 1964.62199 2006.00000 0.00050
2591 42.34500 1937.31133 2047.00000 0.00049
2592 42.36000 1886.24805 1973.00000 0.00051
2593 42.37500 1822.60535 1928.00000 0.00052
2594 42.39000 1757.38564 1928.00000 0.00052
2595 42.40500 1697.84231 1800.00000 0.00056
2596 42.42000 1647.35996 1760.00000 0.00057
2597 42.43500 1606.80527 1642.00000 0.00061
2598 42.45000 1575.73855 1575.00000 0.00063
2599 42.46500 1553.16640 1541.00000 0.00065
2600 42.48000 1537.95758 1567.00000 0.00064
2601 42.49500 1529.02205 1504.00000 0.00066
2602 42.51000 1525.43300 1510.00000 0.00066
2603 42.52500 1526.44136 1499.00000 0.00067
2604 42.54000 1531.37002 1491.00000 0.00067
2605 42.55500 1539.49475 1444.00000 0.00069
2606 42.57000 1549.86833 1445.00000 0.00069
2607 42.58500 1561.12608 1442.00000 0.00069
2608 42.60000 1571.35364 1547.00000 0.00065
2609 42.61500 1578.20918 1435.00000 0.00070
2610 42.63000 1579.57610 1506.00000 0.00066
2611 42.64500 1574.68954 1391.00000 0.00072
2612 42.66000 1564.82732 1473.00000 0.00068
2613 42.67500 1552.64320 1465.00000 0.00068
2614 42.69000 1540.75332 1446.00000 0.00069
2615 42.70500 1530.90105 1443.00000 0.00069
2616 42.72000 1523.96170 1475.00000 0.00068
2617 42.73500 1520.25855 1464.00000 0.00068
2618 42.75000 1519.86490 1492.00000 0.00067
2619 42.76500 1522.78757 1498.00000 0.00067
2620 42.78000 1529.09195 1495.00000 0.00067
2621 42.79500 1538.99739 1476.00000 0.00068
2622 42.81000 1552.96441 1545.00000 0.00065
2623 42.82500 1571.78196 1519.00000 0.00066
2624 42.84000 1596.65479 1568.00000 0.00064
2625 42.85500 1629.28306 1615.00000 0.00062
2626 42.87000 1671.91469 1657.00000 0.00060
2627 42.88500 1727.33423 1746.00000 0.00057
2628 42.90000 1798.73216 1803.00000 0.00055
2629 42.91500 1889.37771 1885.00000 0.00053
2630 42.93000 2002.01378 2062.00000 0.00048
2631 42.94500 2137.90613 2143.00000 0.00047
2632 42.96000 2295.57226 2341.00000 0.00043
2633 42.97500 2469.22891 2416.00000 0.00041
2634 42.99000 2647.35244 2535.00000 0.00039
2635 43.00500 2812.39586 2700.00000 0.00037
2636 43.02000 2943.07769 2793.00000 0.00036
2637 43.03500 3019.04468 2687.00000 0.00037
2638 43.05000 3025.35990 2813.00000 0.00036
2639 43.06500 2956.40142 2711.00000 0.00037
2640 43.08000 2820.81842 2595.00000 0.00039
2641 43.09500 2642.28253 2608.00000 0.00038
2642 43.11000 2450.30376 2415.00000 0.00041
2643 43.12500 2268.49836 2223.00000 0.00045
2644 43.14000 2109.96884 2037.00000 0.00049
2645 43.15500 1979.20982 1908.00000 0.00052
2646 43.17000 1875.59602 1801.00000 0.00056
2647 43.18500 1795.93416 1771.00000 0.00056
2648 43.20000 1735.89123 1653.00000 0.00060
2649 43.21500 1690.74016 1629.00000 0.00061
2650 43.23000 1655.81466 1616.00000 0.00062
2651 43.24500 1626.95422 1571.00000 0.00064
2652 43.26000 1601.14613 1502.00000 0.00067
2653 43.27500 1577.02682 1500.00000 0.00067
2654 43.29000 1554.66753 1499.00000 0.00067
2655 43.30500 1534.68730 1574.00000 0.00064
2656 43.32000 1517.47024 1465.00000 0.00068
2657 43.33500 1502.90700 1467.00000 0.00068
2658 43.35000 1490.46861 1401.00000 0.00071
2659 43.36500 1479.37886 1433.00000 0.00070
2660 43.38000 1468.85176 1449.00000 0.00069
2661 43.39500 1458.39145 1440.00000 0.00069
2662 43.41000 1447.98010 1400.00000 0.00071
2663 43.42500 1437.95398 1451.00000 0.00069
2664 43.44000 1428.69154 1415.00000 0.00071
2665 43.45500 1420.41146 1423.00000 0.00070
2666 43.47000 1413.15795 1435.00000 0.00070
2667 43.48500 1406.86827 1402.00000 0.00071
2668 43.50000 1401.43385 1414.00000 0.00071
2669 43.51500 1396.73667 1369.00000 0.00073
2670 43.53000 1392.66062 1388.00000 0.00072
2671 43.54500 1389.10277 1404.00000 0.00071
2672 43.56000 1385.97551 1453.00000 0.00069
2673 43.57500 1383.20716 1397.00000 0.00072
2674 43.59000 1380.74051 1431.00000 0.00070
2675 43.60500 1378.53574 1399.00000 0.00071
2676 43.62000 1376.55576 1366.00000 0.00073
2677 43.63500 1374.77655 1427.00000 0.00070
2678 43.65000 1373.20509 1399.00000 0.00071
2679 43.66500 1371.81342 1446.00000 0.00069
2680 43.68000 1370.59492 1389.00000 0.00072
2681 43.69500 1369.54678 1328.00000 0.00075
2682 43.71000 1368.66985 1402.00000 0.00071
2683 43.72500 1367.96870 1468.00000 0.00068
2684 43.74000 1367.45199 1335.00000 0.00075
2685 43.75500 1367.13324 1419.00000 0.00070
2686 43.77000 1367.03191 1408.00000 0.00071
2687 43.78500 1367.17534 1427.00000 0.00070
2688 43.80000 1367.60156 1455.00000 0.00069
2689 43.81500 1368.36387 1443.00000 0.00069
2690 43.83000 1369.53622 1443.00000 0.00069
2691 43.84500 1371.22421 1430.00000 0.00070
2692 43.86000 1373.57559 1391.00000 0.00072
2693 43.87500 1376.79495 1375.00000 0.00073
2694 43.89000 1381.15861 1439.00000 0.00069
2695 43.90500 1387.02680 1420.00000 0.00070
2696 43.92000 1394.84718 1401.00000 0.00071
2697 43.93500 1405.14107 1436.00000 0.00070
2698 43.95000 1418.47932 1443.00000 0.00069
2699 43.96500 1435.36190 1400.00000 0.00071
2700 43.98000 1456.09632 1409.00000 0.00071
2701 43.99500 1480.56059 1397.00000 0.00072
2702 44.01000 1507.90257 1497.00000 0.00067
2703 44.02500 1536.21521 1397.00000 0.00072
2704 44.04000 1562.29924 1421.00000 0.00070
2705 44.05500 1581.77345 1380.00000 0.00072
2706 44.07000 1589.98232 1426.00000 0.00070
2707 44.08500 1583.91344 1398.00000 0.00072
2708 44.10000 1564.15802 1413.00000 0.00071
2709 44.11500 1534.91463 1431.00000 0.00070
2710 44.13000 1501.67236 1422.00000 0.00070
2711 44.14500 1468.78650 1410.00000 0.00071
2712 44.16000 1438.68837 1439.00000 0.00069
2713 44.17500 1412.33099 1451.00000 0.00069
2714 44.19000 1389.89092 1467.00000 0.00068
2715 44.20500 1371.28940 1462.00000 0.00068
2716 44.22000 1356.49089 1474.00000 0.00068
2717 44.23500 1345.62376 1499.00000 0.00067
2718 44.25000 1338.88634 1557.00000 0.00064
2719 44.26500 1336.23411 1562.00000 0.00064
2720 44.28000 1337.06861 1525.00000 0.00066
2721 44.29500 1340.31764 1527.00000 0.00065
2722 44.31000 1344.91862 1480.00000 0.00068
2723 44.32500 1350.19417 1476.00000 0.00068
2724 44.34000 1355.85641 1565.00000 0.00064
2725 44.35500 1361.77978 1485.00000 0.00067
2726 44.37000 1367.77793 1560.00000 0.00064
2727 44.38500 1373.46640 1510.00000 0.00066
2728 44.40000 1378.20859 1490.00000 0.00067
2729 44.41500 1381.18343 1578.00000 0.00063
2730 44.43000 1381.67994 1585.00000 0.00063
2731 44.44500 1379.60921 1483.00000 0.00067
2732 44.46000 1375.81986 1610.00000 0.00062
2733 44.47500 1371.87143 1624.00000 0.00062
2734 44.49000 1369.05315 1648.00000 0.00061
2735 44.50500 1367.64593 1663.00000 0.00060
2736 44.52000 1366.91504 1657.00000 0.00060
2737 44.53500 1365.82403 1666.00000 0.00060
2738 44.55000 1363.94228 1575.00000 0.00063
2739 44.56500 1361.50189 1585.00000 0.00063
2740 44.58000 1359.03088 1535.00000 0.00065
2741 44.59500 1356.95226 1556.00000 0.00064
2742 44.61000 1355.49074 1491.00000 0.00067
2743 44.62500 1354.73137 1512.00000 0.00066
2744 44.64000 1354.69114 1453.00000 0.00069
2745 44.65500 1355.36325 1438.00000 0.00070
2746 44.67000 1356.73959 1402.00000 0.00071
2747 44.68500 1358.82229 1390.00000 0.00072
2748 44.70000 1361.63506 1377.00000 0.00073
2749 44.71500 1365.22885 1422.00000 0.00070
2750 44.73000 1369.69137 1383.00000 0.00072
2751 44.74500 1375.17204 1386.00000 0.00072
2752 44.76000 1381.81507 1316.00000 0.00076
2753 44.77500 1389.88083 1371.00000 0.00073
2754 44.79000 1399.82473 1387.00000 0.00072
2755 44.80500 1412.21188 1388.00000 0.00072
2756 44.82000 1427.75751 1407.00000 0.00071
2757 44.83500 1447.46781 1428.00000 0.00070
2758 44.85000 1472.64740 1434.00000 0.00070
2759 44.86500 1504.90550 1466.00000 0.00068
2760 44.88000 1546.12903 1572.00000 0.00064
2761 44.89500 1598.33870 1586.00000 0.00063
2762 44.91000 1663.39577 1674.00000 0.00060
2763 44.92500 1742.47440 1804.00000 0.00055
2764 44.94000 1835.24217 1894.00000 0.00053
2765 44.95500 1938.69719 2066.00000 0.00048
2766 44.97000 2045.90426 2217.00000 0.00045
2767 44.98500 2145.04516 2266.00000 0.00044
2768 45.00000 2219.87902 2407.00000 0.00042
2769 45.01500 2253.53327 2393.00000 0.00042
2770 45.03000 2236.27275 2336.00000 0.00043
2771 45.04500 2172.47312 2288.00000 0.00044
2772 45.06000 2078.90894 2179.00000 0.00046
2773 45.07500 1975.01160 1998.00000 0.00050
2774 45.09000 1874.75143 1828.00000 0.00055
2775 45.10500 1784.86926 1644.00000 0.00061
2776 45.12000 1707.16673 1647.00000 0.00061
2777 45.13500 1641.34364 1620.00000 0.00062
2778 45.15000 1586.62364 1470.00000 0.00068
2779 45.16500 1542.04244 1458.00000 0.00069
2780 45.18000 1506.29951 1437.00000 0.00070
2781 45.19500 1477.78928 1412.00000 0.00071
2782 45.21000 1454.80791 1459.00000 0.00069
2783 45.22500 1435.85269 1428.00000 0.00070
2784 45.24000 1419.88728 1429.00000 0.00070
2785 45.25500 1406.26111 1351.00000 0.00074
2786 45.27000 1394.78761 1388.00000 0.00072
2787 45.28500 1385.34401 1337.00000 0.00075
2788 45.30000 1377.80311 1397.00000 0.00072
2789 45.31500 1372.01666 1355.00000 0.00074
2790 45.33000 1367.82911 1400.00000 0.00071
2791 45.34500 1365.08009 1385.00000 0.00072
2792 45.36000 1363.59029 1428.00000 0.00070
2793 45.37500 1363.13790 1369.00000 0.00073
2794 45.39000 1363.43807 1361.00000 0.00073
2795 45.40500 1364.14762 1426.00000 0.00070
2796 45.42000 1364.92924 1487.00000 0.00067
2797 45.43500 1365.57982 1395.00000 0.00072
2798 45.45000 1366.13368 1379.00000 0.00073
2799 45.46500 1366.82009 1355.00000 0.00074
2800 45.48000 1367.93780 1427.00000 0.00070
2801 45.49500 1369.81118 1387.00000 0.00072
2802 45.51000 1372.84989 1384.00000 0.00072
2803 45.52500 1377.58144 1368.00000 0.00073
2804 45.54000 1384.59349 1398.00000 0.00072
2805 45.55500 1394.45505 1391.00000 0.00072
2806 45.57000 1407.68181 1386.00000 0.00072
2807 45.58500 1424.77293 1384.00000 0.00072
2808 45.60000 1445.98851 1397.00000 0.00072
2809 45.61500 1471.38544 1427.00000 0.00070
2810 45.63000 1500.72803 1436.00000 0.00070
2811 45.64500 1533.56133 1414.00000 0.00071
2812 45.66000 1569.46819 1459.00000 0.00069
2813 45.67500 1608.23349 1451.00000 0.00069
2814 45.69000 1649.33757 1438.00000 0.00070
2815 45.70500 1690.70701 1476.00000 0.00068
2816 45.72000 1727.57531 1431.00000 0.00070
2817 45.73500 1752.55403 1433.00000 0.00070
2818 45.75000 1757.77592 1463.00000 0.00068
2819 45.76500 1738.96890 1489.00000 0.00067
2820 45.78000 1698.74182 1527.00000 0.00065
2821 45.79500 1645.48355 1450.00000 0.00069
2822 45.81000 1588.69464 1388.00000 0.00072
2823 45.82500 1535.26799 1469.00000 0.00068
2824 45.84000 1488.75673 1489.00000 0.00067
2825 45.85500 1450.28128 1368.00000 0.00073
2826 45.87000 1419.53458 1444.00000 0.00069
2827 45.88500 1395.57727 1414.00000 0.00071
2828 45.90000 1377.18034 1382.00000 0.00072
2829 45.91500 1363.12730 1447.00000 0.00069
2830 45.93000 1352.31771 1413.00000 0.00071
2831 45.94500 1343.80064 1443.00000 0.00069
2832 45.96000 1336.78225 1382.00000 0.00072
2833 45.97500 1330.66134 1387.00000 0.00072
2834 45.99000 1325.08216 1340.00000 0.00075
2835 46.00500 1319.93010 1391.00000 0.00072
2836 46.02000 1315.23407 1389.00000 0.00072
2837 46.03500 1311.04785 1378.00000 0.00073
2838 46.05000 1307.38945 1344.00000 0.00074
2839 46.06500 1304.23600 1387.00000 0.00072
2840 46.08000 1301.55321 1321.00000 0.00076
2841 46.09500 1299.28644 1311.00000 0.00076
2842 46.11000 1297.38704 1331.00000 0.00075
2843 46.12500 1295.80992 1380.00000 0.00072
2844 46.14000 1294.51686 1304.00000 0.00077
2845 46.15500 1293.47684 1307.00000 0.00077
2846 46.17000 1292.66306 1276.00000 0.00078
2847 46.18500 1292.05822 1295.00000 0.00077
2848 46.20000 1291.64941 1311.00000 0.00076
2849 46.21500 1291.42869 1294.00000 0.00077
2850 46.23000 1291.39218 1270.00000 0.00079
2851 46.24500 1291.54007 1320.00000 0.00076
2852 46.26000 1291.87628 1299.00000 0.00077
2853 46.27500 1292.40960 1292.00000 0.00077
2854 46.29000 1293.14813 1309.00000 0.00076
2855 46.30500 1294.09802 1308.00000 0.00076
2856 46.32000 1295.27047 1334.00000 0.00075
2857 46.33500 1296.71206 1302.00000 0.00077
2858 46.35000 1298.45935 1320.00000 0.00076
2859 46.36500 1300.53492 1343.00000 0.00074
2860 46.38000 1302.97847 1357.00000 0.00074
2861 46.39500 1305.84284 1311.00000 0.00076
2862 46.41000 1309.19142 1376.00000 0.00073
2863 46.42500 1313.10489 1279.00000 0.00078
2864 46.44000 1317.68789 1348.00000 0.00074
2865 46.45500 1323.04929 1397.00000 0.00072
2866 46.47000 1329.36280 1387.00000 0.00072
2867 46.48500 1336.84549 1398.00000 0.00072
2868 46.50000 1345.78390 1374.00000 0.00073
2869 46.51500 1356.56675 1363.00000 0.00073
2870 46.53000 1369.72372 1458.00000 0.00069
2871 46.54500 1385.96568 1475.00000 0.00068
2872 46.56000 1406.23159 1446.00000 0.00069
2873 46.57500 1431.73222 1536.00000 0.00065
2874 46.59000 1463.97548 1603.00000 0.00062
2875 46.60500 1504.76162 1654.00000 0.00060
2876 46.62000 1556.11400 1813.00000 0.00055
2877 46.63500 1620.01451 1839.00000 0.00054
2878 46.65000 1697.87980 1943.00000 0.00051
2879 46.66500 1789.54888 1971.00000 0.00051
2880 46.68000 1891.92607 2140.00000 0.00047
2881 46.69500 1997.68263 2148.00000 0.00047
2882 46.71000 2095.53101 2280.00000 0.00044
2883 46.72500 2172.67233 2270.00000 0.00044
2884 46.74000 2217.58924 2292.00000 0.00044
2885 46.75500 2221.68662 2319.00000 0.00043
2886 46.77000 2181.71816 2203.00000 0.00045
2887 46.78500 2103.37722 2082.00000 0.00048
2888 46.80000 2000.95084 2021.00000 0.00049
2889 46.81500 1891.23288 1937.00000 0.00052
2890 46.83000 1787.06637 1900.00000 0.00053
2891 46.84500 1695.30240 1750.00000 0.00057
2892 46.86000 1618.12094 1682.00000 0.00059
2893 46.87500 1555.04483 1571.00000 0.00064
2894 46.89000 1504.40267 1543.00000 0.00065
2895 46.90500 1464.15056 1514.00000 0.00066
2896 46.92000 1432.29276 1450.00000 0.00069
2897 46.93500 1407.07866 1448.00000 0.00069
2898 46.95000 1387.06513 1422.00000 0.00070
2899 46.96500 1371.10419 1366.00000 0.00073
2900 46.98000 1358.30451 1369.00000 0.00073
2901 46.99500 1347.98980 1381.00000 0.00072
2902 47.01000 1339.65757 1374.00000 0.00073
2903 47.02500 1332.93999 1314.00000 0.00076
2904 47.04000 1327.57120 1353.00000 0.00074
2905 47.05500 1323.35970 1327.00000 0.00075
2906 47.07000 1320.16518 1348.00000 0.00074
2907 47.08500 1317.92783 1352.00000 0.00074
2908 47.10000 1316.56695 1326.00000 0.00075
2909 47.11500 1316.06055 1365.00000 0.00073
2910 47.13000 1316.46130 1309.00000 0.00076
2911 47.14500 1317.77872 1335.00000 0.00075
2912 47.16000 1320.08681 1385.00000 0.00072
2913 47.17500 1323.50265 1310.00000 0.00076
2914 47.19000 1328.19909 1386.00000 0.00072
2915 47.20500 1334.42581 1324.00000 0.00076
2916 47.22000 1342.53351 1333.00000 0.00075
2917 47.23500 1352.98482 1377.00000 0.00073
2918 47.25000 1366.42991 1377.00000 0.00073
2919 47.26500 1383.67540 1331.00000 0.00075
2920 47.28000 1405.68976 1417.00000 0.00071
2921 47.29500 1433.56982 1435.00000 0.00070
2922 47.31000 1468.45147 1456.00000 0.00069
2923 47.32500 1511.31646 1532.00000 0.00065
2924 47.34000 1562.63116 1571.00000 0.00064
2925 47.35500 1621.76621 1653.00000 0.00060
2926 47.37000 1686.29647 1665.00000 0.00060
2927 47.38500 1751.23513 1746.00000 0.00057
2928 47.40000 1809.01622 1838.00000 0.00054
2929 47.41500 1850.91919 1946.00000 0.00051
2930 47.43000 1870.54265 1943.00000 0.00051
2931 47.44500 1867.51549 2009.00000 0.00050
2932 47.46000 1847.58727 1997.00000 0.00050
2933 47.47500 1818.19413 1927.00000 0.00052
2934 47.49000 1783.73952 1817.00000 0.00055
2935 47.50500 1744.55355 1774.00000 0.00056
2936 47.52000 1699.40484 1710.00000 0.00058
2937 47.53500 1648.73343 1737.00000 0.00058
2938 47.55000 1595.74228 1562.00000 0.00064
2939 47.56500 1544.73683 1544.00000 0.00065
2940 47.58000 1499.09035 1458.00000 0.00069
2941 47.59500 1460.40921 1457.00000 0.00069
2942 47.61000 1428.92705 1442.00000 0.00069
2943 47.62500 1404.15558 1395.00000 0.00072
2944 47.64000 1385.35824 1405.00000 0.00071
2945 47.65500 1371.80007 1411.00000 0.00071
2946 47.67000 1362.85038 1409.00000 0.00071
2947 47.68500 1358.00197 1429.00000 0.00070
2948 47.70000 1356.83632 1456.00000 0.00069
2949 47.71500 1358.94136 1431.00000 0.00070
2950 47.73000 1363.76442 1415.00000 0.00071
2951 47.74500 1370.46580 1423.00000 0.00070
2952 47.76000 1377.74129 1440.00000 0.00069
2953 47.77500 1383.83115 1437.00000 0.00070
2954 47.79000 1386.83181 1419.00000 0.00070
2955 47.80500 1385.45518 1420.00000 0.00070
2956 47.82000 1379.83120 1420.00000 0.00070
2957 47.83500 1371.54060 1348.00000 0.00074
2958 47.85000 1362.79431 1351.00000 0.00074
2959 47.86500 1355.45962 1436.00000 0.00070
2960 47.88000 1350.70483 1347.00000 0.00074
2961 47.89500 1349.12468 1373.00000 0.00073
2962 47.91000 1351.00302 1366.00000 0.00073
2963 47.92500 1356.53122 1351.00000 0.00074
2964 47.94000 1365.93315 1402.00000 0.00071
2965 47.95500 1379.45187 1465.00000 0.00068
2966 47.97000 1397.16121 1390.00000 0.00072
2967 47.98500 1418.63200 1438.00000 0.00070
2968 48.00000 1442.54564 1451.00000 0.00069
2969 48.01500 1466.36323 1465.00000 0.00068
2970 48.03000 1486.27553 1538.00000 0.00065
2971 48.04500 1497.81370 1535.00000 0.00065
2972 48.06000 1497.44177 1525.00000 0.00066
2973 48.07500 1484.53289 1479.00000 0.00068
2974 48.09000 1462.04973 1472.00000 0.00068
2975 48.10500 1434.91882 1447.00000 0.00069
2976 48.12000 1407.63081 1476.00000 0.00068
2977 48.13500 1383.00630 1371.00000 0.00073
2978 48.15000 1362.28898 1414.00000 0.00071
2979 48.16500 1345.73754 1397.00000 0.00072
2980 48.18000 1333.13878 1352.00000 0.00074
2981 48.19500 1324.11616 1301.00000 0.00077
2982 48.21000 1318.28850 1289.00000 0.00078
2983 48.22500 1315.34638 1299.00000 0.00077
2984 48.24000 1315.08668 1349.00000 0.00074
2985 48.25500 1317.42343 1294.00000 0.00077
2986 48.27000 1322.38066 1283.00000 0.00078
2987 48.28500 1330.06545 1254.00000 0.00080
2988 48.30000 1340.62102 1264.00000 0.00079
2989 48.31500 1354.12497 1302.00000 0.00077
2990 48.33000 1370.43412 1291.00000 0.00077
2991 48.34500 1389.00110 1300.00000 0.00077
2992 48.36000 1408.66705 1339.00000 0.00075
2993 48.37500 1427.61546 1331.00000 0.00075
2994 48.39000 1443.71527 1349.00000 0.00074
2995 48.40500 1455.44481 1365.00000 0.00073
2996 48.42000 1463.04768 1347.00000 0.00074
2997 48.43500 1468.90668 1362.00000 0.00073
2998 48.45000 1476.61371 1423.00000 0.00070
2999 48.46500 1489.60889 1379.00000 0.00073
3000 48.48000 1510.33954 1481.00000 0.00068
3001 48.49500 1540.06960 1522.00000 0.00066
3002 48.51000 1578.85057 1520.00000 0.00066
3003 48.52500 1625.07544 1574.00000 0.00064
3004 48.54000 1674.95659 1587.00000 0.00063
3005 48.55500 1722.14401 1651.00000 0.00061
3006 48.57000 1758.30321 1706.00000 0.00059
3007 48.58500 1775.46173 1693.00000 0.00059
3008 48.60000 1769.61256 1777.00000 0.00056
3009 48.61500 1743.05194 1685.00000 0.00059
3010 48.63000 1703.16468 1623.00000 0.00062
3011 48.64500 1658.90886 1666.00000 0.00060
3012 48.66000 1617.80117 1621.00000 0.00062
3013 48.67500 1584.78592 1488.00000 0.00067
3014 48.69000 1562.38989 1528.00000 0.00065
3015 48.70500 1551.50947 1507.00000 0.00066
3016 48.72000 1552.10530 1505.00000 0.00066
3017 48.73500 1563.59636 1597.00000 0.00063
3018 48.75000 1584.99886 1586.00000 0.00063
3019 48.76500 1614.93689 1619.00000 0.00062
3020 48.78000 1651.55714 1623.00000 0.00062
3021 48.79500 1692.56274 1706.00000 0.00059
3022 48.81000 1735.19750 1751.00000 0.00057
3023 48.82500 1775.78629 1858.00000 0.00054
3024 48.84000 1808.82721 1895.00000 0.00053
3025 48.85500 1826.96790 1893.00000 0.00053
3026 48.87000 1823.46535 1915.00000 0.00052
3027 48.88500 1796.43871 1868.00000 0.00054
3028 48.90000 1751.15344 1797.00000 0.00056
3029 48.91500 1697.53455 1746.00000 0.00057
3030 48.93000 1645.29916 1709.00000 0.00059
3031 48.94500 1600.94087 1775.00000 0.00056
3032 48.96000 1567.50380 1635.00000 0.00061
3033 48.97500 1545.55944 1612.00000 0.00062
3034 48.99000 1534.02167 1539.00000 0.00065
3035 49.00500 1530.46369 1574.00000 0.00064
3036 49.02000 1531.13881 1542.00000 0.00065
3037 49.03500 1531.15093 1561.00000 0.00064
3038 49.05000 1525.36129 1462.00000 0.00068
3039 49.06500 1510.16347 1519.00000 0.00066
3040 49.08000 1485.25139 1458.00000 0.00069
3041 49.09500 1453.59502 1442.00000 0.00069
3042 49.11000 1419.50784 1426.00000 0.00070
3043 49.12500 1386.51862 1404.00000 0.00071
3044 49.14000 1356.58936 1383.00000 0.00072
3045 49.15500 1330.42178 1384.00000 0.00072
3046 49.17000 1308.06613 1347.00000 0.00074
3047 49.18500 1289.39819 1368.00000 0.00073
3048 49.20000 1274.39029 1337.00000 0.00075
3049 49.21500 1263.19582 1313.00000 0.00076
3050 49.23000 1256.05063 1300.00000 0.00077
3051 49.24500 1253.03068 1290.00000 0.00078
3052 49.26000 1253.85088 1328.00000 0.00075
3053 49.27500 1257.92974 1317.00000 0.00076
3054 49.29000 1264.72212 1289.00000 0.00078
3055 49.30500 1273.97187 1305.00000 0.00077
3056 49.32000 1285.77165 1261.00000 0.00079
3057 49.33500 1300.49615 1242.00000 0.00081
3058 49.35000 1318.66785 1296.00000 0.00077
3059 49.36500 1340.79934 1326.00000 0.00075
3060 49.38000 1367.17668 1212.00000 0.00083
3061 49.39500 1397.55298 1314.00000 0.00076
3062 49.41000 1430.76351 1324.00000 0.00076
3063 49.42500 1464.37532 1292.00000 0.00077
3064 49.44000 1494.62281 1395.00000 0.00072
3065 49.45500 1516.91282 1345.00000 0.00074
3066 49.47000 1526.90138 1385.00000 0.00072
3067 49.48500 1521.82894 1339.00000 0.00075
3068 49.50000 1501.82122 1292.00000 0.00077
3069 49.51500 1470.33720 1310.00000 0.00076
3070 49.53000 1432.89933 1330.00000 0.00075
3071 49.54500 1394.79753 1291.00000 0.00077
3072 49.56000 1359.53931 1325.00000 0.00075
3073 49.57500 1328.73161 1285.00000 0.00078
3074 49.59000 1302.71204 1292.00000 0.00077
3075 49.60500 1281.18204 1264.00000 0.00079
3076 49.62000 1263.62304 1265.00000 0.00079
3077 49.63500 1249.49582 1243.00000 0.00080
3078 49.65000 1238.29595 1348.00000 0.00074
3079 49.66500 1229.53377 1231.00000 0.00081
3080 49.68000 1222.71731 1246.00000 0.00080
3081 49.69500 1217.38294 1199.00000 0.00083
3082 49.71000 1213.14762 1169.00000 0.00086
3083 49.72500 1209.72576 1232.00000 0.00081
3084 49.74000 1206.94890 1197.00000 0.00084
3085 49.75500 1204.71953 1219.00000 0.00082
3086 49.77000 1202.96575 1221.00000 0.00082
3087 49.78500 1201.66650 1192.00000 0.00084
3088 49.80000 1200.82154 1176.00000 0.00085
3089 49.81500 1200.45044 1228.00000 0.00081
3090 49.83000 1200.61228 1201.00000 0.00083
3091 49.84500 1201.38334 1235.00000 0.00081
3092 49.86000 1202.86491 1233.00000 0.00081
3093 49.87500 1205.18148 1181.00000 0.00085
3094 49.89000 1208.47333 1245.00000 0.00080
3095 49.90500 1212.87750 1218.00000 0.00082
3096 49.92000 1218.48745 1188.00000 0.00084
3097 49.93500 1225.28097 1244.00000 0.00080
3098 49.95000 1233.01357 1167.00000 0.00086
3099 49.96500 1241.10011 1213.00000 0.00082
3100 49.98000 1248.55174 1251.00000 0.00080
3101 49.99500 1254.08687 1209.00000 0.00083
3102 50.01000 1256.50904 1251.00000 0.00080
3103 50.02500 1255.21568 1195.00000 0.00084
3104 50.04000 1250.44620 1175.00000 0.00085
3105 50.05500 1243.07584 1195.00000 0.00084
3106 50.07000 1234.22954 1203.00000 0.00083
3107 50.08500 1225.00228 1131.00000 0.00088
3108 50.10000 1216.23141 1151.00000 0.00087
3109 50.11500 1208.41976 1180.00000 0.00085
3110 50.13000 1201.76220 1189.00000 0.00084
3111 50.14500 1196.25692 1214.00000 0.00082
3112 50.16000 1191.81305 1181.00000 0.00085
3113 50.17500 1188.31681 1184.00000 0.00084
3114 50.19000 1185.66088 1175.00000 0.00085
3115 50.20500 1183.75568 1177.00000 0.00085
3116 50.22000 1182.53311 1191.00000 0.00084
3117 50.23500 1181.94468 1195.00000 0.00084
3118 50.25000 1181.95290 1186.00000 0.00084
3119 50.26500 1182.51403 1181.00000 0.00085
3120 50.28000 1183.52514 1203.00000 0.00083
3121 50.29500 1184.82942 1172.00000 0.00085
3122 50.31000 1186.15380 1144.00000 0.00087
3123 50.32500 1187.11499 1152.00000 0.00087
3124 50.34000 1187.30485 1166.00000 0.00086
3125 50.35500 1186.46150 1239.00000 0.00081
3126 50.37000 1184.62883 1151.00000 0.00087
3127 50.38500 1182.14573 1164.00000 0.00086
3128 50.40000 1179.45332 1122.00000 0.00089
3129 50.41500 1176.89540 1127.00000 0.00089
3130 50.43000 1174.66365 1136.00000 0.00088
3131 50.44500 1172.81967 1140.00000 0.00088
3132 50.46000 1171.35513 1139.00000 0.00088
3133 50.47500 1170.23136 1134.00000 0.00088
3134 50.49000 1169.40169 1128.00000 0.00089
3135 50.50500 1168.83229 1153.00000 0.00087
3136 50.52000 1168.52768 1180.00000 0.00085
3137 50.53500 1168.46585 1164.00000 0.00086
3138 50.55000 1168.67548 1140.00000 0.00088
3139 50.56500 1169.27137 1159.00000 0.00086
3140 50.58000 1170.38808 1149.00000 0.00087
3141 50.59500 1172.12570 1155.00000 0.00087
3142 50.61000 1174.60241 1203.00000 0.00083
3143 50.62500 1177.86165 1164.00000 0.00086
3144 50.64000 1181.89507 1194.00000 0.00084
3145 50.65500 1186.69905 1153.00000 0.00087
3146 50.67000 1192.31858 1161.00000 0.00086
3147 50.68500 1198.84169 1184.00000 0.00084
3148 50.70000 1206.31566 1189.00000 0.00084
3149 50.71500 1214.71291 1201.00000 0.00083
3150 50.73000 1223.82553 1170.00000 0.00085
3151 50.74500 1233.24005 1146.00000 0.00087
3152 50.76000 1242.42316 1197.00000 0.00084
3153 50.77500 1250.99298 1225.00000 0.00082
3154 50.79000 1259.06973 1222.00000 0.00082
3155 50.80500 1267.46914 1244.00000 0.00080
3156 50.82000 1277.49624 1245.00000 0.00080
3157 50.83500 1290.54409 1296.00000 0.00077
3158 50.85000 1307.81601 1370.00000 0.00073
3159 50.86500 1330.23151 1391.00000 0.00072
3160 50.88000 1358.37094 1402.00000 0.00071
3161 50.89500 1392.33781 1419.00000 0.00070
3162 50.91000 1431.51913 1504.00000 0.00066
3163 50.92500 1474.32498 1496.00000 0.00067
3164 50.94000 1518.03517 1561.00000 0.00064
3165 50.95500 1558.81149 1561.00000 0.00064
3166 50.97000 1591.76112 1622.00000 0.00062
3167 50.98500 1611.20104 1579.00000 0.00063
3168 51.00000 1611.99438 1572.00000 0.00064
3169 51.01500 1592.25496 1555.00000 0.00064
3170 51.03000 1555.35288 1468.00000 0.00068
3171 51.04500 1508.69303 1484.00000 0.00067
3172 51.06000 1460.14648 1493.00000 0.00067
3173 51.07500 1415.32645 1382.00000 0.00072
3174 51.09000 1377.07188 1350.00000 0.00074
3175 51.10500 1346.23209 1302.00000 0.00077
3176 51.12000 1322.59836 1293.00000 0.00077
3177 51.13500 1305.50948 1310.00000 0.00076
3178 51.15000 1294.12949 1298.00000 0.00077
3179 51.16500 1287.48537 1266.00000 0.00079
3180 51.18000 1284.39217 1283.00000 0.00078
3181 51.19500 1283.37447 1305.00000 0.00077
3182 51.21000 1282.67026 1284.00000 0.00078
3183 51.22500 1280.50369 1304.00000 0.00077
3184 51.24000 1275.57199 1301.00000 0.00077
3185 51.25500 1267.44360 1267.00000 0.00079
3186 51.27000 1256.55676 1296.00000 0.00077
3187 51.28500 1243.88888 1235.00000 0.00081
3188 51.30000 1230.59720 1255.00000 0.00080
3189 51.31500 1217.73786 1217.00000 0.00082
3190 51.33000 1206.06403 1168.00000 0.00086
3191 51.34500 1195.96213 1180.00000 0.00085
3192 51.36000 1187.53089 1163.00000 0.00086
3193 51.37500 1180.69845 1174.00000 0.00085
3194 51.39000 1175.32341 1171.00000 0.00085
3195 51.40500 1171.25693 1155.00000 0.00087
3196 51.42000 1168.35385 1137.00000 0.00088
3197 51.43500 1166.46248 1141.00000 0.00088
3198 51.45000 1165.39078 1132.00000 0.00088
3199 51.46500 1164.86021 1121.00000 0.00089
3200 51.48000 1164.47097 1215.00000 0.00082
3201 51.49500 1163.72220 1121.00000 0.00089
3202 51.51000 1162.13301 1126.00000 0.00089
3203 51.52500 1159.44604 1136.00000 0.00088
3204 51.54000 1155.77055 1108.00000 0.00090
3205 51.55500 1151.51170 1141.00000 0.00088
3206 51.57000 1147.13880 1122.00000 0.00089
3207 51.58500 1142.99433 1126.00000 0.00089
3208 51.60000 1139.23998 1085.00000 0.00092
3209 51.61500 1135.88740 1120.00000 0.00089
3210 51.63000 1132.84019 1086.00000 0.00092
3211 51.64500 1129.91803 1128.00000 0.00089
3212 51.66000 1126.87264 1087.00000 0.00092
3213 51.67500 1123.41573 1118.00000 0.00089
3214 51.69000 1119.28519 1091.00000 0.00092
3215 51.70500 1114.32202 1096.00000 0.00091
3216 51.72000 1108.47723 1061.00000 0.00094
3217 51.73500 1101.75945 1066.00000 0.00094
3218 51.75000 1094.19372 1079.00000 0.00093
3219 51.76500 1085.83079 1141.00000 0.00088
3220 51.78000 1076.84297 1029.00000 0.00097
3221 51.79500 1067.66552 1103.00000 0.00091
3222 51.81000 1059.11288 1068.00000 0.00094
3223 51.82500 1052.35459 1061.00000 0.00094
3224 51.84000 1048.62362 1062.00000 0.00094
3225 51.85500 1048.66041 1046.00000 0.00096
3226 51.87000 1052.22977 1062.00000 0.00094
3227 51.88500 1058.23898 1085.00000 0.00092
3228 51.90000 1065.28488 1065.00000 0.00094
3229 51.91500 1072.22757 1056.00000 0.00095
3230 51.93000 1078.44721 1089.00000 0.00092
3231 51.94500 1083.71270 1080.00000 0.00093
3232 51.96000 1088.02680 1069.00000 0.00094
3233 51.97500 1091.49596 1063.00000 0.00094
3234 51.99000 1094.25931 1088.00000 0.00092
3235 52.00500 1096.43086 1043.00000 0.00096
3236 52.02000 1098.09741 1101.00000 0.00091
3237 52.03500 1099.31185 1056.00000 0.00095
3238 52.05000 1100.08918 1101.00000 0.00091
3239 52.06500 1100.39705 1062.00000 0.00094
3240 52.08000 1100.18118 1106.00000 0.00090
3241 52.09500 1099.40510 1138.00000 0.00088
3242 52.11000 1098.08852 1084.00000 0.00092
3243 52.12500 1096.33187 1077.00000 0.00093
3244 52.14000 1094.32007 1054.00000 0.00095
3245 52.15500 1092.31474 1050.00000 0.00095
3246 52.17000 1090.63861 1083.00000 0.00092
3247 52.18500 1089.61920 1096.00000 0.00091
3248 52.20000 1089.47811 1042.00000 0.00096
3249 52.21500 1090.21103 1053.00000 0.00095
3250 52.23000 1091.58502 1082.00000 0.00092
3251 52.24500 1093.27052 1055.00000 0.00095
3252 52.26000 1094.98713 1102.00000 0.00091
3253 52.27500 1096.56817 1095.00000 0.00091
3254 52.29000 1097.94715 1080.00000 0.00093
3255 52.30500 1099.11020 1035.00000 0.00097
3256 52.32000 1100.08766 1025.00000 0.00098
3257 52.33500 1100.91441 1046.00000 0.00096
3258 52.35000 1101.62650 1093.00000 0.00091
3259 52.36500 1102.25757 1047.00000 0.00096
3260 52.38000 1102.83805 1060.00000 0.00094
3261 52.39500 1103.39547 1046.00000 0.00096
3262 52.41000 1103.95520 1025.00000 0.00098
3263 52.42500 1104.54090 1010.00000 0.00099
3264 52.44000 1105.17437 1014.00000 0.00099
3265 52.45500 1105.87390 1026.00000 0.00097
3266 52.47000 1106.65024 1062.00000 0.00094
3267 52.48500 1107.49933 1017.00000 0.00098
3268 52.50000 1108.39267 1016.00000 0.00098
3269 52.51500 1109.27052 1008.00000 0.00099
3270 52.53000 1110.04467 1018.00000 0.00098
3271 52.54500 1110.63077 1040.00000 0.00096
3272 52.56000 1110.96259 1029.00000 0.00097
3273 52.57500 1111.08078 1015.00000 0.00099
3274 52.59000 1111.08519 1035.00000 0.00097
3275 52.60500 1111.09738 1009.00000 0.00099
3276 52.62000 1111.21761 1059.00000 0.00094
3277 52.63500 1111.51165 1029.00000 0.00097
3278 52.65000 1112.02251 1006.00000 0.00099
3279 52.66500 1112.76199 1033.00000 0.00097
3280 52.68000 1113.75710 1062.00000 0.00094
3281 52.69500 1115.03783 1029.00000 0.00097
3282 52.71000 1116.64013 1038.00000 0.00096
3283 52.72500 1118.59098 1065.00000 0.00094
3284 52.74000 1120.92347 1050.00000 0.00095
3285 52.75500 1123.67322 1028.00000 0.00097
3286 52.77000 1126.86836 1053.00000 0.00095
3287 52.78500 1130.41482 1046.00000 0.00096
3288 52.80000 1134.17773 1067.00000 0.00094
3289 52.81500 1137.94617 1078.00000 0.00093
3290 52.83000 1141.45228 1068.00000 0.00094
3291 52.84500 1144.42399 1046.00000 0.00096
3292 52.86000 1146.68251 1049.00000 0.00095
3293 52.87500 1148.25924 1045.00000 0.00096
3294 52.89000 1149.39651 1066.00000 0.00094
3295 52.90500 1150.44939 1039.00000 0.00096
3296 52.92000 1151.75636 1104.00000 0.00091
3297 52.93500 1153.58951 1103.00000 0.00091
3298 52.95000 1156.14840 1071.00000 0.00093
3299 52.96500 1159.54522 1132.00000 0.00088
3300 52.98000 1163.78417 1112.00000 0.00090
3301 52.99500 1168.81315 1137.00000 0.00088
3302 53.01000 1174.57514 1135.00000 0.00088
3303 53.02500 1181.07510 1144.00000 0.00087
3304 53.04000 1188.32938 1154.00000 0.00087
3305 53.05500 1196.23491 1266.00000 0.00079
3306 53.07000 1204.47702 1219.00000 0.00082
3307 53.08500 1212.62503 1271.00000 0.00079
3308 53.10000 1220.44091 1267.00000 0.00079
3309 53.11500 1228.22007 1288.00000 0.00078
3310 53.13000 1236.87028 1222.00000 0.00082
3311 53.14500 1247.64723 1250.00000 0.00080
3312 53.16000 1261.79174 1305.00000 0.00077
3313 53.17500 1280.31136 1370.00000 0.00073
3314 53.19000 1303.83273 1310.00000 0.00076
3315 53.20500 1332.40740 1293.00000 0.00077
3316 53.22000 1365.11209 1270.00000 0.00079
3317 53.23500 1399.51324 1349.00000 0.00074
3318 53.25000 1431.32991 1373.00000 0.00073
3319 53.26500 1454.88328 1369.00000 0.00073
3320 53.28000 1464.86095 1375.00000 0.00073
3321 53.29500 1458.92617 1448.00000 0.00069
3322 53.31000 1439.29227 1394.00000 0.00072
3323 53.32500 1411.56794 1409.00000 0.00071
3324 53.34000 1381.87821 1436.00000 0.00070
3325 53.35500 1354.72345 1411.00000 0.00071
3326 53.37000 1332.49552 1393.00000 0.00072
3327 53.38500 1316.03587 1380.00000 0.00072
3328 53.40000 1305.38811 1376.00000 0.00073
3329 53.41500 1300.31366 1422.00000 0.00070
3330 53.43000 1300.58687 1424.00000 0.00070
3331 53.44500 1306.14036 1391.00000 0.00072
3332 53.46000 1317.13073 1411.00000 0.00071
3333 53.47500 1333.97329 1371.00000 0.00073
3334 53.49000 1357.34413 1415.00000 0.00071
3335 53.50500 1388.15444 1458.00000 0.00069
3336 53.52000 1427.45350 1468.00000 0.00068
3337 53.53500 1476.17745 1553.00000 0.00064
3338 53.55000 1534.63590 1500.00000 0.00067
3339 53.56500 1601.62532 1542.00000 0.00065
3340 53.58000 1673.29620 1595.00000 0.00063
3341 53.59500 1742.15522 1653.00000 0.00060
3342 53.61000 1797.37885 1572.00000 0.00064
3343 53.62500 1827.65337 1668.00000 0.00060
3344 53.64000 1826.26761 1621.00000 0.00062
3345 53.65500 1795.29874 1562.00000 0.00064
3346 53.67000 1744.83127 1631.00000 0.00061
3347 53.68500 1687.57799 1548.00000 0.00065
3348 53.70000 1633.61110 1554.00000 0.00064
3349 53.71500 1588.36592 1467.00000 0.00068
3350 53.73000 1553.29582 1470.00000 0.00068
3351 53.74500 1527.35474 1518.00000 0.00066
3352 53.76000 1508.23248 1547.00000 0.00065
3353 53.77500 1493.06075 1548.00000 0.00065
3354 53.79000 1478.81588 1588.00000 0.00063
3355 53.80500 1462.95680 1551.00000 0.00064
3356 53.82000 1444.38000 1606.00000 0.00062
3357 53.83500 1423.99713 1567.00000 0.00064
3358 53.85000 1404.17279 1580.00000 0.00063
3359 53.86500 1387.47035 1577.00000 0.00063
3360 53.88000 1375.73911 1640.00000 0.00061
3361 53.89500 1369.91489 1502.00000 0.00067
3362 53.91000 1370.22622 1525.00000 0.00066
3363 53.92500 1376.44951 1445.00000 0.00069
3364 53.94000 1388.07978 1495.00000 0.00067
3365 53.95500 1404.40641 1501.00000 0.00067
3366 53.97000 1424.47439 1458.00000 0.00069
3367 53.98500 1446.86821 1473.00000 0.00068
3368 54.00000 1469.62736 1530.00000 0.00065
3369 54.01500 1490.48578 1494.00000 0.00067
3370 54.03000 1507.86649 1498.00000 0.00067
3371 54.04500 1522.16268 1519.00000 0.00066
3372 54.06000 1536.23311 1500.00000 0.00067
3373 54.07500 1554.44428 1486.00000 0.00067
3374 54.09000 1580.93760 1528.00000 0.00065
3375 54.10500 1618.18421 1481.00000 0.00068
3376 54.12000 1666.03083 1479.00000 0.00068
3377 54.13500 1720.87451 1502.00000 0.00067
3378 54.15000 1775.03353 1485.00000 0.00067
3379 54.16500 1817.17001 1515.00000 0.00066
3380 54.18000 1835.19005 1478.00000 0.00068
3381 54.19500 1821.31977 1517.00000 0.00066
3382 54.21000 1776.54286 1488.00000 0.00067
3383 54.22500 1710.19875 1486.00000 0.00067
3384 54.24000 1634.81300 1508.00000 0.00066
3385 54.25500 1560.75420 1385.00000 0.00072
3386 54.27000 1494.08697 1389.00000 0.00072
3387 54.28500 1437.16286 1383.00000 0.00072
3388 54.30000 1390.08815 1337.00000 0.00075
3389 54.31500 1351.95586 1287.00000 0.00078
3390 54.33000 1321.57435 1302.00000 0.00077
3391 54.34500 1297.83368 1303.00000 0.00077
3392 54.36000 1279.85783 1302.00000 0.00077
3393 54.37500 1267.04477 1347.00000 0.00074
3394 54.39000 1259.04770 1298.00000 0.00077
3395 54.40500 1255.68849 1341.00000 0.00075
3396 54.42000 1256.81767 1339.00000 0.00075
3397 54.43500 1262.13383 1333.00000 0.00075
3398 54.45000 1270.98511 1377.00000 0.00073
3399 54.46500 1282.15619 1466.00000 0.00068
3400 54.48000 1293.68870 1465.00000 0.00068
3401 54.49500 1302.92200 1480.00000 0.00068
3402 54.51000 1307.01196 1534.00000 0.00065
3403 54.52500 1303.95007 1510.00000 0.00066
3404 54.54000 1293.58047 1456.00000 0.00069
3405 54.55500 1277.84332 1416.00000 0.00071
3406 54.57000 1259.98261 1362.00000 0.00073
3407 54.58500 1243.24938 1425.00000 0.00070
3408 54.60000 1229.87082 1351.00000 0.00074
3409 54.61500 1220.75218 1327.00000 0.00075
3410 54.63000 1215.84821 1274.00000 0.00078
3411 54.64500 1214.73852 1289.00000 0.00078
3412 54.66000 1217.06022 1285.00000 0.00078
3413 54.67500 1222.67448 1289.00000 0.00078
3414 54.69000 1231.67912 1285.00000 0.00078
3415 54.70500 1244.37956 1344.00000 0.00074
3416 54.72000 1261.29415 1329.00000 0.00075
3417 54.73500 1283.13975 1363.00000 0.00073
3418 54.75000 1310.85313 1453.00000 0.00069
3419 54.76500 1345.39487 1483.00000 0.00067
3420 54.78000 1387.65431 1557.00000 0.00064
3421 54.79500 1438.01100 1621.00000 0.00062
3422 54.81000 1495.62880 1703.00000 0.00059
3423 54.82500 1557.49746 1840.00000 0.00054
3424 54.84000 1617.57883 1928.00000 0.00052
3425 54.85500 1666.93586 1885.00000 0.00053
3426 54.87000 1695.73680 1949.00000 0.00051
3427 54.88500 1697.11191 1891.00000 0.00053
3428 54.90000 1670.60283 1920.00000 0.00052
3429 54.91500 1622.32432 1891.00000 0.00053
3430 54.93000 1561.76448 1750.00000 0.00057
3431 54.94500 1497.98849 1697.00000 0.00059
3432 54.96000 1437.44603 1541.00000 0.00065
3433 54.97500 1383.59671 1448.00000 0.00069
3434 54.99000 1337.58384 1473.00000 0.00068
3435 55.00500 1299.16826 1356.00000 0.00074
3436 55.02000 1267.47891 1300.00000 0.00077
3437 55.03500 1241.47306 1298.00000 0.00077
3438 55.05000 1220.16865 1230.00000 0.00081
3439 55.06500 1202.74355 1241.00000 0.00081
3440 55.08000 1188.57164 1322.00000 0.00076
3441 55.09500 1177.23267 1238.00000 0.00081
3442 55.11000 1168.50141 1238.00000 0.00081
3443 55.12500 1162.30070 1153.00000 0.00087
3444 55.14000 1158.60082 1180.00000 0.00085
3445 55.15500 1157.28359 1166.00000 0.00086
3446 55.17000 1158.04610 1218.00000 0.00082
3447 55.18500 1160.41806 1142.00000 0.00088
3448 55.20000 1163.88858 1187.00000 0.00084
3449 55.21500 1168.08359 1195.00000 0.00084
3450 55.23000 1172.92323 1204.00000 0.00083
3451 55.24500 1178.67657 1164.00000 0.00086
3452 55.26000 1185.85126 1193.00000 0.00084
3453 55.27500 1194.96830 1218.00000 0.00082
3454 55.29000 1206.32541 1309.00000 0.00076
3455 55.30500 1219.78701 1296.00000 0.00077
3456 55.32000 1234.59574 1373.00000 0.00073
3457 55.33500 1249.27838 1299.00000 0.00077
3458 55.35000 1261.84338 1371.00000 0.00073
3459 55.36500 1270.44973 1424.00000 0.00070
3460 55.38000 1274.37303 1436.00000 0.00070
3461 55.39500 1274.58938 1370.00000 0.00073
3462 55.41000 1273.39966 1432.00000 0.00070
3463 55.42500 1273.40374 1393.00000 0.00072
3464 55.44000 1276.65097 1399.00000 0.00071
3465 55.45500 1284.32559 1422.00000 0.00070
3466 55.47000 1296.79889 1415.00000 0.00071
3467 55.48500 1313.72716 1414.00000 0.00071
3468 55.50000 1333.93002 1499.00000 0.00067
3469 55.51500 1355.49217 1545.00000 0.00065
3470 55.53000 1375.98576 1531.00000 0.00065
3471 55.54500 1393.13486 1612.00000 0.00062
3472 55.56000 1405.66200 1586.00000 0.00063
3473 55.57500 1413.61470 1656.00000 0.00060
3474 55.59000 1417.89318 1624.00000 0.00062
3475 55.60500 1419.48340 1662.00000 0.00060
3476 55.62000 1419.42720 1676.00000 0.00060
3477 55.63500 1419.14091 1630.00000 0.00061
3478 55.65000 1420.46105 1703.00000 0.00059
3479 55.66500 1425.16127 1628.00000 0.00061
3480 55.68000 1434.29524 1526.00000 0.00066
3481 55.69500 1447.87451 1563.00000 0.00064
3482 55.71000 1465.12035 1568.00000 0.00064
3483 55.72500 1484.95582 1478.00000 0.00068
3484 55.74000 1506.05457 1503.00000 0.00067
3485 55.75500 1526.32544 1510.00000 0.00066
3486 55.77000 1542.68181 1484.00000 0.00067
3487 55.78500 1552.10696 1547.00000 0.00065
3488 55.80000 1553.57446 1533.00000 0.00065
3489 55.81500 1549.09842 1569.00000 0.00064
3490 55.83000 1542.61586 1516.00000 0.00066
3491 55.84500 1537.47929 1557.00000 0.00064
3492 55.86000 1534.47716 1575.00000 0.00063
3493 55.87500 1531.48672 1642.00000 0.00061
3494 55.89000 1524.59884 1569.00000 0.00064
3495 55.90500 1510.04872 1596.00000 0.00063
3496 55.92000 1485.87024 1576.00000 0.00063
3497 55.93500 1452.53214 1537.00000 0.00065
3498 55.95000 1412.56687 1475.00000 0.00068
3499 55.96500 1369.69366 1455.00000 0.00069
3500 55.98000 1327.71290 1417.00000 0.00071
3501 55.99500 1289.54017 1405.00000 0.00071
3502 56.01000 1256.77373 1304.00000 0.00077
3503 56.02500 1229.80264 1302.00000 0.00077
3504 56.04000 1208.20190 1225.00000 0.00082
3505 56.05500 1191.17547 1236.00000 0.00081
3506 56.07000 1177.89631 1216.00000 0.00082
3507 56.08500 1167.68248 1229.00000 0.00081
3508 56.10000 1160.03696 1212.00000 0.00083
3509 56.11500 1154.62665 1216.00000 0.00082
3510 56.13000 1151.25051 1228.00000 0.00081
3511 56.14500 1149.80613 1184.00000 0.00084
3512 56.16000 1150.26043 1209.00000 0.00083
3513 56.17500 1152.61639 1192.00000 0.00084
3514 56.19000 1156.86590 1194.00000 0.00084
3515 56.20500 1162.93979 1187.00000 0.00084
3516 56.22000 1170.56665 1187.00000 0.00084
3517 56.23500 1179.22157 1206.00000 0.00083
3518 56.25000 1188.18739 1207.00000 0.00083
3519 56.26500 1196.75423 1191.00000 0.00084
3520 56.28000 1204.62466 1206.00000 0.00083
3521 56.29500 1212.23819 1207.00000 0.00083
3522 56.31000 1220.71877 1214.00000 0.00082
3523 56.32500 1231.39377 1210.00000 0.00083
3524 56.34000 1245.19424 1201.00000 0.00083
3525 56.35500 1262.17581 1250.00000 0.00080
3526 56.37000 1281.17912 1195.00000 0.00084
3527 56.38500 1299.66068 1223.00000 0.00082
3528 56.40000 1313.95747 1225.00000 0.00082
3529 56.41500 1320.31635 1251.00000 0.00080
3530 56.43000 1316.55309 1163.00000 0.00086
3531 56.44500 1303.29411 1222.00000 0.00082
3532 56.46000 1283.67649 1198.00000 0.00083
3533 56.47500 1261.71634 1209.00000 0.00083
3534 56.49000 1240.73517 1228.00000 0.00081
3535 56.50500 1222.75028 1207.00000 0.00083
3536 56.52000 1208.65994 1219.00000 0.00082
3537 56.53500 1198.68883 1179.00000 0.00085
3538 56.55000 1192.76738 1175.00000 0.00085
3539 56.56500 1190.76799 1151.00000 0.00087
3540 56.58000 1192.62246 1221.00000 0.00082
3541 56.59500 1198.39891 1180.00000 0.00085
3542 56.61000 1208.25909 1238.00000 0.00081
3543 56.62500 1222.46967 1256.00000 0.00080
3544 56.64000 1241.28916 1235.00000 0.00081
3545 56.65500 1264.80243 1259.00000 0.00079
3546 56.67000 1292.66324 1263.00000 0.00079
3547 56.68500 1323.78609 1269.00000 0.00079
3548 56.70000 1356.26613 1360.00000 0.00074
3549 56.71500 1387.57490 1326.00000 0.00075
3550 56.73000 1415.22685 1311.00000 0.00076
3551 56.74500 1437.37756 1267.00000 0.00079
3552 56.76000 1452.67978 1289.00000 0.00078
3553 56.77500 1459.51720 1306.00000 0.00077
3554 56.79000 1455.85063 1302.00000 0.00077
3555 56.80500 1440.42082 1225.00000 0.00082
3556 56.82000 1414.36785 1251.00000 0.00080
3557 56.83500 1381.51717 1263.00000 0.00079
3558 56.85000 1346.79212 1193.00000 0.00084
3559 56.86500 1314.38103 1222.00000 0.00082
3560 56.88000 1286.87429 1188.00000 0.00084
3561 56.89500 1265.39372 1201.00000 0.00083
3562 56.91000 1250.08276 1200.00000 0.00083
3563 56.92500 1240.51126 1232.00000 0.00081
3564 56.94000 1235.85350 1254.00000 0.00080
3565 56.95500 1234.91889 1264.00000 0.00079
3566 56.97000 1236.17767 1246.00000 0.00080
3567 56.98500 1237.94550 1265.00000 0.00079
3568 57.00000 1238.77786 1246.00000 0.00080
3569 57.01500 1237.89321 1259.00000 0.00079
3570 57.03000 1235.32491 1277.00000 0.00078
3571 57.04500 1231.63948 1249.00000 0.00080
3572 57.06000 1227.39318 1250.00000 0.00080
3573 57.07500 1222.57581 1217.00000 0.00082
3574 57.09000 1216.40118 1159.00000 0.00086
3575 57.10500 1207.68128 1204.00000 0.00083
3576 57.12000 1195.65893 1205.00000 0.00083
3577 57.13500 1180.63091 1101.00000 0.00091
3578 57.15000 1163.82978 1129.00000 0.00089
3579 57.16500 1146.80646 1129.00000 0.00089
3580 57.18000 1130.77301 1089.00000 0.00092
3581 57.19500 1116.36301 1156.00000 0.00087
3582 57.21000 1103.70770 1115.00000 0.00090
3583 57.22500 1092.60528 1095.00000 0.00091
3584 57.24000 1082.65949 1046.00000 0.00096
3585 57.25500 1073.37773 1077.00000 0.00093
3586 57.27000 1064.27272 1074.00000 0.00093
3587 57.28500 1055.00764 1084.00000 0.00092
3588 57.30000 1045.56932 1077.00000 0.00093
3589 57.31500 1036.38933 1094.00000 0.00091
3590 57.33000 1028.34271 1063.00000 0.00094
3591 57.34500 1022.53192 1072.00000 0.00093
3592 57.36000 1019.88071 1057.00000 0.00095
3593 57.37500 1020.70008 1061.00000 0.00094
3594 57.39000 1024.45033 1023.00000 0.00098
3595 57.40500 1029.96197 1113.00000 0.00090
3596 57.42000 1035.96293 1060.00000 0.00094
3597 57.43500 1041.54045 1082.00000 0.00092
3598 57.45000 1046.31479 1019.00000 0.00098
3599 57.46500 1050.34911 1049.00000 0.00095
3600 57.48000 1053.93029 1038.00000 0.00096
3601 57.49500 1057.35866 1020.00000 0.00098
3602 57.51000 1060.93165 1059.00000 0.00094
3603 57.52500 1064.87935 1081.00000 0.00093
3604 57.54000 1069.40078 1102.00000 0.00091
3605 57.55500 1074.67567 1076.00000 0.00093
3606 57.57000 1080.86512 1118.00000 0.00089
3607 57.58500 1088.07411 1129.00000 0.00089
3608 57.60000 1096.30447 1112.00000 0.00090
3609 57.61500 1105.40911 1141.00000 0.00088
3610 57.63000 1115.03016 1142.00000 0.00088
3611 57.64500 1124.65546 1182.00000 0.00085
3612 57.66000 1133.79462 1198.00000 0.00083
3613 57.67500 1142.29263 1173.00000 0.00085
3614 57.69000 1150.57356 1209.00000 0.00083
3615 57.70500 1159.59853 1180.00000 0.00085
3616 57.72000 1170.57602 1223.00000 0.00082
3617 57.73500 1184.65689 1300.00000 0.00077
3618 57.75000 1202.76442 1280.00000 0.00078
3619 57.76500 1225.50332 1376.00000 0.00073
3620 57.78000 1253.01292 1398.00000 0.00072
3621 57.79500 1284.64959 1434.00000 0.00070
3622 57.81000 1318.54530 1563.00000 0.00064
3623 57.82500 1351.31700 1594.00000 0.00063
3624 57.84000 1378.32443 1537.00000 0.00065
3625 57.85500 1395.00111 1608.00000 0.00062
3626 57.87000 1398.96630 1535.00000 0.00065
3627 57.88500 1391.49882 1495.00000 0.00067
3628 57.90000 1377.02291 1470.00000 0.00068
3629 57.91500 1360.96099 1430.00000 0.00070
3630 57.93000 1347.67657 1350.00000 0.00074
3631 57.94500 1339.58743 1272.00000 0.00079
3632 57.96000 1337.25445 1249.00000 0.00080
3633 57.97500 1339.79369 1235.00000 0.00081
3634 57.99000 1345.21561 1238.00000 0.00081
3635 58.00500 1350.61708 1176.00000 0.00085
3636 58.02000 1352.46743 1217.00000 0.00082
3637 58.03500 1347.38553 1181.00000 0.00085
3638 58.05000 1333.41420 1179.00000 0.00085
3639 58.06500 1311.05791 1151.00000 0.00087
3640 58.08000 1283.08442 1149.00000 0.00087
3641 58.09500 1253.13801 1142.00000 0.00088
3642 58.11000 1224.29187 1228.00000 0.00081
3643 58.12500 1198.40953 1154.00000 0.00087
3644 58.14000 1176.25505 1131.00000 0.00088
3645 58.15500 1157.88858 1086.00000 0.00092
3646 58.17000 1143.02672 1097.00000 0.00091
3647 58.18500 1131.27457 1085.00000 0.00092
3648 58.20000 1122.24660 1053.00000 0.00095
3649 58.21500 1115.61846 1091.00000 0.00092
3650 58.23000 1111.14189 1109.00000 0.00090
3651 58.24500 1108.64021 1085.00000 0.00092
3652 58.26000 1107.99322 1107.00000 0.00090
3653 58.27500 1109.11502 1081.00000 0.00093
3654 58.29000 1111.92924 1101.00000 0.00091
3655 58.30500 1116.35007 1095.00000 0.00091
3656 58.32000 1122.27176 1116.00000 0.00090
3657 58.33500 1129.59272 1096.00000 0.00091
3658 58.35000 1138.22690 1123.00000 0.00089
3659 58.36500 1148.11839 1154.00000 0.00087
3660 58.38000 1159.26482 1151.00000 0.00087
3661 58.39500 1171.73347 1143.00000 0.00087
3662 58.41000 1185.58500 1181.00000 0.00085
3663 58.42500 1200.65103 1196.00000 0.00084
3664 58.44000 1216.30925 1267.00000 0.00079
3665 58.45500 1231.50701 1257.00000 0.00080
3666 58.47000 1245.08750 1347.00000 0.00074
3667 58.48500 1256.12871 1377.00000 0.00073
3668 58.50000 1263.89795 1385.00000 0.00072
3669 58.51500 1267.43065 1437.00000 0.00070
3670 58.53000 1265.36214 1457.00000 0.00069
3671 58.54500 1256.55380 1355.00000 0.00074
3672 58.56000 1241.10340 1370.00000 0.00073
3673 58.57500 1220.73295 1337.00000 0.00075
3674 58.59000 1198.11895 1260.00000 0.00079
3675 58.60500 1175.80128 1276.00000 0.00078
3676 58.62000 1155.50485 1198.00000 0.00083
3677 58.63500 1138.07042 1194.00000 0.00084
3678 58.65000 1123.70925 1112.00000 0.00090
3679 58.66500 1112.29141 1133.00000 0.00088
3680 58.68000 1103.54576 1102.00000 0.00091
3681 58.69500 1097.16121 1094.00000 0.00091
3682 58.71000 1092.81488 1081.00000 0.00093
3683 58.72500 1090.15406 1089.00000 0.00092
3684 58.74000 1088.75914 1078.00000 0.00093
3685 58.75500 1088.12238 1057.00000 0.00095
3686 58.77000 1087.68328 1025.00000 0.00098
3687 58.78500 1086.94161 1016.00000 0.00098
3688 58.80000 1085.61661 1059.00000 0.00094
3689 58.81500 1083.74861 1108.00000 0.00090
3690 58.83000 1081.69986 1038.00000 0.00096
3691 58.84500 1080.00976 1022.00000 0.00098
3692 58.86000 1079.23312 1027.00000 0.00097
3693 58.87500 1079.84005 1025.00000 0.00098
3694 58.89000 1082.19608 1049.00000 0.00095
3695 58.90500 1086.55808 1011.00000 0.00099
3696 58.92000 1093.02497 1057.00000 0.00095
3697 58.93500 1101.43188 1052.00000 0.00095
3698 58.95000 1111.24361 1030.00000 0.00097
3699 58.96500 1121.54417 1089.00000 0.00092
3700 58.98000 1131.19556 1085.00000 0.00092
3701 58.99500 1139.13528 1125.00000 0.00089
3702 59.01000 1144.64182 1057.00000 0.00095
3703 59.02500 1147.39163 1097.00000 0.00091
3704 59.04000 1147.33311 1089.00000 0.00092
3705 59.05500 1144.57624 1110.00000 0.00090
3706 59.07000 1139.37427 1082.00000 0.00092
3707 59.08500 1132.15583 1062.00000 0.00094
3708 59.10000 1123.57333 1062.00000 0.00094
3709 59.11500 1114.49311 1078.00000 0.00093
3710 59.13000 1105.84267 1064.00000 0.00094
3711 59.14500 1098.39928 1077.00000 0.00093
3712 59.16000 1092.67388 1063.00000 0.00094
3713 59.17500 1088.93324 1054.00000 0.00095
3714 59.19000 1087.29304 1020.00000 0.00098
3715 59.20500 1087.81117 990.00000 0.00101
3716 59.22000 1090.54979 1043.00000 0.00096
3717 59.23500 1095.59874 1055.00000 0.00095
3718 59.25000 1103.06109 971.00000 0.00103
3719 59.26500 1112.97331 1025.00000 0.00098
3720 59.28000 1125.16617 1041.00000 0.00096
3721 59.29500 1139.03380 1036.00000 0.00097
3722 59.31000 1153.30126 1050.00000 0.00095
3723 59.32500 1165.91751 1035.00000 0.00097
3724 59.34000 1174.34249 1033.00000 0.00097
3725 59.35500 1176.36590 1020.00000 0.00098
3726 59.37000 1171.14214 1015.00000 0.00099
3727 59.38500 1159.67882 1000.00000 0.00100
3728 59.40000 1144.29471 1037.00000 0.00096
3729 59.41500 1127.53416 1003.00000 0.00100
3730 59.43000 1111.32438 1027.00000 0.00097
3731 59.44500 1096.74947 988.00000 0.00101
3732 59.46000 1084.22271 985.00000 0.00102
3733 59.47500 1073.75303 947.00000 0.00106
3734 59.49000 1065.16418 968.00000 0.00103
3735 59.50500 1058.20756 956.00000 0.00105
3736 59.52000 1052.64090 1044.00000 0.00096
3737 59.53500 1048.24596 968.00000 0.00103
3738 59.55000 1044.86389 963.00000 0.00104
3739 59.56500 1042.37224 960.00000 0.00104
3740 59.58000 1040.65692 966.00000 0.00104
3741 59.59500 1039.64866 975.00000 0.00103
3742 59.61000 1039.30524 987.00000 0.00101
3743 59.62500 1039.60926 1004.00000 0.00100
3744 59.64000 1040.56727 1007.00000 0.00099
3745 59.65500 1042.20806 989.00000 0.00101
3746 59.67000 1044.58826 1005.00000 0.00100
3747 59.68500 1047.79269 1039.00000 0.00096
3748 59.70000 1051.93984 1056.00000 0.00095
3749 59.71500 1057.18803 1054.00000 0.00095
3750 59.73000 1063.74175 1062.00000 0.00094
3751 59.74500 1071.85269 1094.00000 0.00091
3752 59.76000 1081.81616 1153.00000 0.00087
3753 59.77500 1093.94710 1160.00000 0.00086
3754 59.79000 1108.52455 1199.00000 0.00083
3755 59.80500 1125.68678 1300.00000 0.00077
3756 59.82000 1145.25523 1331.00000 0.00075
3757 59.83500 1166.46733 1389.00000 0.00072
3758 59.85000 1187.72840 1447.00000 0.00069
3759 59.86500 1206.56757 1475.00000 0.00068
3760 59.88000 1220.08017 1514.00000 0.00066
3761 59.89500 1225.97066 1466.00000 0.00068
3762 59.91000 1223.69100 1421.00000 0.00070
3763 59.92500 1214.82181 1495.00000 0.00067
3764 59.94000 1202.31682 1445.00000 0.00069
3765 59.95500 1189.20936 1369.00000 0.00073
3766 59.97000 1177.66132 1356.00000 0.00074
3767 59.98500 1168.66659 1384.00000 0.00072
3768 60.00000 1162.18895 1336.00000 0.00075
3769 60.01500 1157.49403 1379.00000 0.00073
3770 60.03000 1153.58906 1350.00000 0.00074
3771 60.04500 1149.72632 1330.00000 0.00075
3772 60.06000 1145.78417 1285.00000 0.00078
3773 60.07500 1142.28772 1269.00000 0.00079
3774 60.09000 1140.06857 1229.00000 0.00081
3775 60.10500 1139.83400 1203.00000 0.00083
3776 60.12000 1141.88648 1186.00000 0.00084
3777 60.13500 1146.03397 1180.00000 0.00085
3778 60.15000 1151.64072 1167.00000 0.00086
3779 60.16500 1157.80618 1173.00000 0.00085
3780 60.18000 1163.63811 1147.00000 0.00087
3781 60.19500 1168.47429 1134.00000 0.00088
3782 60.21000 1171.90380 1159.00000 0.00086
3783 60.22500 1173.63861 1216.00000 0.00082
3784 60.24000 1173.50603 1167.00000 0.00086
3785 60.25500 1171.68498 1170.00000 0.00085
3786 60.27000 1168.91996 1123.00000 0.00089
3787 60.28500 1166.38985 1172.00000 0.00085
3788 60.30000 1165.16686 1143.00000 0.00087
3789 60.31500 1165.63054 1153.00000 0.00087
3790 60.33000 1167.19765 1150.00000 0.00087
3791 60.34500 1168.39588 1143.00000 0.00087
3792 60.36000 1167.26624 1158.00000 0.00086
3793 60.37500 1162.14938 1143.00000 0.00087
3794 60.39000 1152.47725 1164.00000 0.00086
3795 60.40500 1139.04636 1148.00000 0.00087
3796 60.42000 1123.54285 1121.00000 0.00089
3797 60.43500 1107.73058 1120.00000 0.00089
3798 60.45000 1092.88454 1097.00000 0.00091
3799 60.46500 1079.69662 1092.00000 0.00092
3800 60.48000 1068.38627 1094.00000 0.00091
3801 60.49500 1058.90032 1026.00000 0.00097
3802 60.51000 1051.06099 1060.00000 0.00094
3803 60.52500 1044.64623 1013.00000 0.00099
3804 60.54000 1039.44798 1016.00000 0.00098
3805 60.55500 1035.27622 1029.00000 0.00097
3806 60.57000 1031.96881 999.00000 0.00100
3807 60.58500 1029.39649 1023.00000 0.00098
3808 60.60000 1027.46934 947.00000 0.00106
3809 60.61500 1026.14062 963.00000 0.00104
3810 60.63000 1025.40340 979.00000 0.00102
3811 60.64500 1025.27875 977.00000 0.00102
3812 60.66000 1025.80432 942.00000 0.00106
3813 60.67500 1027.03093 1027.00000 0.00097
3814 60.69000 1029.01740 999.00000 0.00100
3815 60.70500 1031.83120 1022.00000 0.00098
3816 60.72000 1035.51948 1024.00000 0.00098
3817 60.73500 1040.12825 1023.00000 0.00098
3818 60.75000 1045.66303 1069.00000 0.00094
3819 60.76500 1052.07261 993.00000 0.00101
3820 60.78000 1059.22297 1015.00000 0.00099
3821 60.79500 1066.87022 1037.00000 0.00096
3822 60.81000 1074.67972 1060.00000 0.00094
3823 60.82500 1082.29922 1039.00000 0.00096
3824 60.84000 1089.41832 1035.00000 0.00097
3825 60.85500 1095.68186 1033.00000 0.00097
3826 60.87000 1100.46332 1040.00000 0.00096
3827 60.88500 1102.72382 1031.00000 0.00097
3828 60.90000 1101.26615 1028.00000 0.00097
3829 60.91500 1095.39711 1034.00000 0.00097
3830 60.93000 1085.54610 1070.00000 0.00093
3831 60.94500 1073.25330 1034.00000 0.00097
3832 60.96000 1060.44695 1042.00000 0.00096
3833 60.97500 1048.62652 994.00000 0.00101
3834 60.99000 1038.50996 999.00000 0.00100
3835 61.00500 1030.17619 1018.00000 0.00098
3836 61.02000 1023.38691 998.00000 0.00100
3837 61.03500 1017.84087 987.00000 0.00101
3838 61.05000 1013.30444 1022.00000 0.00098
3839 61.06500 1009.66109 990.00000 0.00101
3840 61.08000 1006.92056 980.00000 0.00102
3841 61.09500 1005.17522 1002.00000 0.00100
3842 61.11000 1004.54039 983.00000 0.00102
3843 61.12500 1004.99833 961.00000 0.00104
3844 61.14000 1006.28627 987.00000 0.00101
3845 61.15500 1007.92165 931.00000 0.00107
3846 61.17000 1009.39953 970.00000 0.00103
3847 61.18500 1010.42262 984.00000 0.00102
3848 61.20000 1010.98203 978.00000 0.00102
3849 61.21500 1011.26433 961.00000 0.00104
3850 61.23000 1011.50594 946.00000 0.00106
3851 61.24500 1011.90088 954.00000 0.00105
3852 61.26000 1012.57767 969.00000 0.00103
3853 61.27500 1013.61186 970.00000 0.00103
3854 61.29000 1015.05854 996.00000 0.00100
3855 61.30500 1016.95511 969.00000 0.00103
3856 61.32000 1019.34391 962.00000 0.00104
3857 61.33500 1022.27697 1000.00000 0.00100
3858 61.35000 1025.81904 1016.00000 0.00098
3859 61.36500 1030.04821 936.00000 0.00107
3860 61.38000 1035.05157 991.00000 0.00101
3861 61.39500 1040.91434 1004.00000 0.00100
3862 61.41000 1047.69522 1023.00000 0.00098
3863 61.42500 1055.38883 1051.00000 0.00095
3864 61.44000 1063.86518 1038.00000 0.00096
3865 61.45500 1072.84900 1065.00000 0.00094
3866 61.47000 1081.92311 1002.00000 0.00100
3867 61.48500 1090.66554 1052.00000 0.00095
3868 61.50000 1098.88320 1038.00000 0.00096
3869 61.51500 1106.81582 1110.00000 0.00090
3870 61.53000 1115.14720 1056.00000 0.00095
3871 61.54500 1124.81709 1086.00000 0.00092
3872 61.56000 1136.78943 1099.00000 0.00091
3873 61.57500 1151.92144 1136.00000 0.00088
3874 61.59000 1170.93427 1114.00000 0.00090
3875 61.60500 1194.40603 1214.00000 0.00082
3876 61.62000 1222.69850 1197.00000 0.00084
3877 61.63500 1255.74250 1359.00000 0.00074
3878 61.65000 1292.80360 1313.00000 0.00076
3879 61.66500 1332.13164 1344.00000 0.00074
3880 61.68000 1370.90572 1343.00000 0.00074
3881 61.69500 1405.67511 1404.00000 0.00071
3882 61.71000 1433.34426 1437.00000 0.00070
3883 61.72500 1452.16540 1420.00000 0.00070
3884 61.74000 1462.08269 1449.00000 0.00069
3885 61.75500 1464.42909 1529.00000 0.00065
3886 61.77000 1461.54890 1492.00000 0.00067
3887 61.78500 1456.47626 1514.00000 0.00066
3888 61.80000 1452.24969 1520.00000 0.00066
3889 61.81500 1450.80643 1562.00000 0.00064
3890 61.83000 1452.00834 1563.00000 0.00064
3891 61.84500 1453.37786 1618.00000 0.00062
3892 61.86000 1450.81235 1587.00000 0.00063
3893 61.87500 1440.20825 1578.00000 0.00063
3894 61.89000 1419.33991 1538.00000 0.00065
3895 61.90500 1388.90401 1482.00000 0.00067
3896 61.92000 1352.05449 1461.00000 0.00068
3897 61.93500 1312.87571 1369.00000 0.00073
3898 61.95000 1274.89786 1322.00000 0.00076
3899 61.96500 1240.37607 1264.00000 0.00079
3900 61.98000 1210.32164 1199.00000 0.00083
3901 61.99500 1184.89179 1210.00000 0.00083
3902 62.01000 1163.79845 1173.00000 0.00085
3903 62.02500 1146.60669 1091.00000 0.00092
3904 62.04000 1132.90739 1124.00000 0.00089
3905 62.05500 1122.38674 1119.00000 0.00089
3906 62.07000 1114.82577 1071.00000 0.00093
3907 62.08500 1110.06749 1108.00000 0.00090
3908 62.10000 1107.97296 1076.00000 0.00093
3909 62.11500 1108.36403 1056.00000 0.00095
3910 62.13000 1110.93369 1128.00000 0.00089
3911 62.14500 1115.11630 1081.00000 0.00093
3912 62.16000 1120.02891 1099.00000 0.00091
3913 62.17500 1124.34983 1076.00000 0.00093
3914 62.19000 1126.62112 1101.00000 0.00091
3915 62.20500 1125.70839 1090.00000 0.00092
3916 62.22000 1121.31323 1102.00000 0.00091
3917 62.23500 1114.12633 1117.00000 0.00090
3918 62.25000 1105.47407 1098.00000 0.00091
3919 62.26500 1096.74952 1115.00000 0.00090
3920 62.28000 1089.01930 1083.00000 0.00092
3921 62.29500 1082.93000 1064.00000 0.00094
3922 62.31000 1078.80222 1035.00000 0.00097
3923 62.32500 1076.77043 1075.00000 0.00093
3924 62.34000 1076.89560 1116.00000 0.00090
3925 62.35500 1079.23485 1083.00000 0.00092
3926 62.37000 1083.87418 1081.00000 0.00093
3927 62.38500 1090.93080 1080.00000 0.00093
3928 62.40000 1100.52484 1088.00000 0.00092
3929 62.41500 1112.71235 1088.00000 0.00092
3930 62.43000 1127.37057 1102.00000 0.00091
3931 62.44500 1144.04254 1064.00000 0.00094
3932 62.46000 1161.79486 1131.00000 0.00088
3933 62.47500 1179.21528 1105.00000 0.00090
3934 62.49000 1194.70978 1118.00000 0.00089
3935 62.50500 1207.12721 1146.00000 0.00087
3936 62.52000 1216.39589 1150.00000 0.00087
3937 62.53500 1223.63773 1138.00000 0.00088
3938 62.55000 1230.69331 1127.00000 0.00089
3939 62.56500 1238.95186 1161.00000 0.00086
3940 62.58000 1248.78148 1198.00000 0.00083
3941 62.59500 1259.25494 1216.00000 0.00082
3942 62.61000 1268.45920 1209.00000 0.00083
3943 62.62500 1274.21456 1225.00000 0.00082
3944 62.64000 1274.86153 1189.00000 0.00084
3945 62.65500 1269.66566 1191.00000 0.00084
3946 62.67000 1258.70641 1236.00000 0.00081
3947 62.68500 1242.59106 1177.00000 0.00085
3948 62.70000 1222.34328 1195.00000 0.00084
3949 62.71500 1199.40532 1119.00000 0.00089
3950 62.73000 1175.46721 1096.00000 0.00091
3951 62.74500 1152.16192 1109.00000 0.00090
3952 62.76000 1130.71832 1118.00000 0.00089
3953 62.77500 1111.88565 1050.00000 0.00095
3954 62.79000 1095.97714 1073.00000 0.00093
3955 62.80500 1083.00787 1059.00000 0.00094
3956 62.82000 1072.83690 1042.00000 0.00096
3957 62.83500 1065.27235 1121.00000 0.00089
3958 62.85000 1060.13158 1108.00000 0.00090
3959 62.86500 1057.26279 1110.00000 0.00090
3960 62.88000 1056.53391 1110.00000 0.00090
3961 62.89500 1057.78974 1129.00000 0.00089
3962 62.91000 1060.77778 1130.00000 0.00088
3963 62.92500 1065.03620 1225.00000 0.00082
3964 62.94000 1069.79822 1209.00000 0.00083
3965 62.95500 1073.97377 1262.00000 0.00079
3966 62.97000 1076.30253 1262.00000 0.00079
3967 62.98500 1075.70733 1259.00000 0.00079
3968 63.00000 1071.68748 1243.00000 0.00080
3969 63.01500 1064.46231 1235.00000 0.00081
3970 63.03000 1054.86303 1238.00000 0.00081
3971 63.04500 1043.97849 1292.00000 0.00077
3972 63.06000 1032.80523 1189.00000 0.00084
3973 63.07500 1022.04229 1140.00000 0.00088
3974 63.09000 1012.06077 1115.00000 0.00090
3975 63.10500 1002.98604 1114.00000 0.00090
3976 63.12000 994.82165 1134.00000 0.00088
3977 63.13500 987.56853 1072.00000 0.00093
3978 63.15000 981.31855 1049.00000 0.00095
3979 63.16500 976.39656 1091.00000 0.00092
3980 63.18000 973.30460 1053.00000 0.00095
3981 63.19500 972.63307 1038.00000 0.00096
3982 63.21000 974.90557 1063.00000 0.00094
3983 63.22500 980.33704 1056.00000 0.00095
3984 63.24000 988.75537 1073.00000 0.00093
3985 63.25500 999.72340 1041.00000 0.00096
3986 63.27000 1012.73296 1075.00000 0.00093
3987 63.28500 1027.30103 1082.00000 0.00092
3988 63.30000 1042.92070 1126.00000 0.00089
3989 63.31500 1058.94563 1121.00000 0.00089
3990 63.33000 1074.52944 1122.00000 0.00089
3991 63.34500 1088.70215 1111.00000 0.00090
3992 63.36000 1100.55535 1139.00000 0.00088
3993 63.37500 1109.40851 1123.00000 0.00089
3994 63.39000 1114.86760 1148.00000 0.00087
3995 63.40500 1116.81041 1172.00000 0.00085
3996 63.42000 1115.33855 1132.00000 0.00088
3997 63.43500 1110.69749 1070.00000 0.00093
3998 63.45000 1103.23326 1129.00000 0.00089
3999 63.46500 1093.48388 1114.00000 0.00090
4000 63.48000 1082.29084 1061.00000 0.00094
4001 63.49500 1070.72154 1074.00000 0.00093
4002 63.51000 1059.80374 1070.00000 0.00093
4003 63.52500 1050.27648 1067.00000 0.00094
4004 63.54000 1042.48593 1109.00000 0.00090
4005 63.55500 1036.40046 1061.00000 0.00094
4006 63.57000 1031.67722 1070.00000 0.00093
4007 63.58500 1027.75836 998.00000 0.00100
4008 63.60000 1024.00551 979.00000 0.00102
4009 63.61500 1019.89454 1014.00000 0.00099
4010 63.63000 1015.19970 1024.00000 0.00098
4011 63.64500 1010.03572 989.00000 0.00101
4012 63.66000 1004.74656 1038.00000 0.00096
4013 63.67500 999.72488 1000.00000 0.00100
4014 63.69000 995.28108 985.00000 0.00102
4015 63.70500 991.60207 985.00000 0.00102
4016 63.72000 988.77165 998.00000 0.00100
4017 63.73500 986.81131 973.00000 0.00103
4018 63.75000 985.71681 1008.00000 0.00099
4019 63.76500 985.48285 998.00000 0.00100
4020 63.78000 986.11661 992.00000 0.00101
4021 63.79500 987.64237 959.00000 0.00104
4022 63.81000 990.09786 990.00000 0.00101
4023 63.82500 993.51941 999.00000 0.00100
4024 63.84000 997.91057 996.00000 0.00100
4025 63.85500 1003.18899 995.00000 0.00101
4026 63.87000 1009.11823 1061.00000 0.00094
4027 63.88500 1015.25970 1024.00000 0.00098
4028 63.90000 1021.01013 1040.00000 0.00096
4029 63.91500 1025.76136 1066.00000 0.00094
4030 63.93000 1029.15263 1033.00000 0.00097
4031 63.94500 1031.28054 1020.00000 0.00098
4032 63.96000 1032.59232 1020.00000 0.00098
4033 63.97500 1033.83500 1038.00000 0.00096
4034 63.99000 1035.80162 1062.00000 0.00094
4035 64.00500 1039.19071 1048.00000 0.00095
4036 64.02000 1044.53432 1036.00000 0.00097
4037 64.03500 1052.18052 1041.00000 0.00096
4038 64.05000 1062.27635 968.00000 0.00103
4039 64.06500 1074.70104 1009.00000 0.00099
4040 64.08000 1088.93438 1026.00000 0.00097
4041 64.09500 1103.90399 1018.00000 0.00098
4042 64.11000 1117.94244 1027.00000 0.00097
4043 64.12500 1129.04651 991.00000 0.00101
4044 64.14000 1135.52642 953.00000 0.00105
4045 64.15500 1136.79059 1016.00000 0.00098
4046 64.17000 1133.71709 1008.00000 0.00099
4047 64.18500 1128.28806 951.00000 0.00105
4048 64.20000 1122.78398 996.00000 0.00100
4049 64.21500 1119.11205 987.00000 0.00101
4050 64.23000 1118.54047 981.00000 0.00102
4051 64.24500 1121.72752 1030.00000 0.00097
4052 64.26000 1128.80656 997.00000 0.00100
4053 64.27500 1139.36894 1022.00000 0.00098
4054 64.29000 1152.32075 1006.00000 0.00099
4055 64.30500 1165.72634 1025.00000 0.00098
4056 64.32000 1176.88644 1038.00000 0.00096
4057 64.33500 1182.89939 1052.00000 0.00095
4058 64.35000 1181.70013 1073.00000 0.00093
4059 64.36500 1173.01257 1064.00000 0.00094
4060 64.38000 1158.47820 1077.00000 0.00093
4061 64.39500 1140.81793 1107.00000 0.00090
4062 64.41000 1122.68098 1072.00000 0.00093
4063 64.42500 1105.88936 1123.00000 0.00089
4064 64.44000 1091.25082 1113.00000 0.00090
4065 64.45500 1078.73022 1190.00000 0.00084
4066 64.47000 1067.76282 1129.00000 0.00089
4067 64.48500 1057.62233 1145.00000 0.00087
4068 64.50000 1047.73890 1100.00000 0.00091
4069 64.51500 1037.89168 1110.00000 0.00090
4070 64.53000 1028.19329 1124.00000 0.00089
4071 64.54500 1018.89184 1104.00000 0.00091
4072 64.56000 1010.17013 1053.00000 0.00095
4073 64.57500 1002.06847 1090.00000 0.00092
4074 64.59000 994.53821 1054.00000 0.00095
4075 64.60500 987.54043 1038.00000 0.00096
4076 64.62000 981.09915 1064.00000 0.00094
4077 64.63500 975.28466 1003.00000 0.00100
4078 64.65000 970.16358 984.00000 0.00102
4079 64.66500 965.76559 1021.00000 0.00098
4080 64.68000 962.09216 964.00000 0.00104
4081 64.69500 959.11624 984.00000 0.00102
4082 64.71000 956.79391 962.00000 0.00104
4083 64.72500 955.08873 947.00000 0.00106
4084 64.74000 953.97498 970.00000 0.00103
4085 64.75500 953.44865 961.00000 0.00104
4086 64.77000 953.51393 975.00000 0.00103
4087 64.78500 954.19638 1009.00000 0.00099
4088 64.80000 955.54025 975.00000 0.00103
4089 64.81500 957.60540 990.00000 0.00101
4090 64.83000 960.46554 973.00000 0.00103
4091 64.84500 964.19845 976.00000 0.00102
4092 64.86000 968.87454 989.00000 0.00101
4093 64.87500 974.52417 996.00000 0.00100
4094 64.89000 981.09145 975.00000 0.00103
4095 64.90500 988.40998 980.00000 0.00102
4096 64.92000 996.19038 992.00000 0.00101
4097 64.93500 1004.04909 1019.00000 0.00098
4098 64.95000 1011.58975 1073.00000 0.00093
4099 64.96500 1018.39075 1067.00000 0.00094
4100 64.98000 1023.96374 1052.00000 0.00095
4101 64.99500 1027.78381 1047.00000 0.00096
4102 65.01000 1029.45015 1039.00000 0.00096
4103 65.02500 1028.95019 1054.00000 0.00095
4104 65.04000 1026.76504 1053.00000 0.00095
4105 65.05500 1023.65089 1016.00000 0.00098
4106 65.07000 1020.25586 1031.00000 0.00097
4107 65.08500 1016.78370 1017.00000 0.00098
4108 65.10000 1012.93816 1030.00000 0.00097
4109 65.11500 1008.16880 994.00000 0.00101
4110 65.13000 1002.02337 981.00000 0.00102
4111 65.14500 994.45306 946.00000 0.00106
4112 65.16000 985.86767 1046.00000 0.00096
4113 65.17500 976.91831 960.00000 0.00104
4114 65.19000 968.22278 938.00000 0.00107
4115 65.20500 960.20288 929.00000 0.00108
4116 65.22000 953.06650 940.00000 0.00106
4117 65.23500 946.85890 951.00000 0.00105
4118 65.25000 941.53101 921.00000 0.00109
4119 65.26500 936.99102 919.00000 0.00109
4120 65.28000 933.13580 938.00000 0.00107
4121 65.29500 929.86699 942.00000 0.00106
4122 65.31000 927.09744 911.00000 0.00110
4123 65.32500 924.75264 919.00000 0.00109
4124 65.34000 922.76938 906.00000 0.00110
4125 65.35500 921.09359 898.00000 0.00111
4126 65.37000 919.67863 910.00000 0.00110
4127 65.38500 918.48502 880.00000 0.00114
4128 65.40000 917.48209 918.00000 0.00109
4129 65.41500 916.65007 910.00000 0.00110
4130 65.43000 915.98002 909.00000 0.00110
4131 65.44500 915.47010 900.00000 0.00111
4132 65.46000 915.11986 886.00000 0.00113
4133 65.47500 914.92440 886.00000 0.00113
4134 65.49000 914.87106 909.00000 0.00110
4135 65.50500 914.94186 890.00000 0.00112
4136 65.52000 915.10700 922.00000 0.00108
4137 65.53500 915.34448 883.00000 0.00113
4138 65.55000 915.65086 859.00000 0.00116
4139 65.56500 916.04883 924.00000 0.00108
4140 65.58000 916.58447 910.00000 0.00110
4141 65.59500 917.31621 865.00000 0.00116
4142 65.61000 918.30452 903.00000 0.00111
4143 65.62500 919.60870 913.00000 0.00110
4144 65.64000 921.28565 861.00000 0.00116
4145 65.65500 923.40605 935.00000 0.00107
4146 65.67000 926.05687 906.00000 0.00110
4147 65.68500 929.31524 931.00000 0.00107
4148 65.70000 933.27937 876.00000 0.00114
4149 65.71500 938.05158 895.00000 0.00112
4150 65.73000 943.72140 902.00000 0.00111
4151 65.74500 950.33254 959.00000 0.00104
4152 65.76000 957.82807 942.00000 0.00106
4153 65.77500 965.97573 945.00000 0.00106
4154 65.79000 974.29566 947.00000 0.00106
4155 65.80500 982.04276 973.00000 0.00103
4156 65.82000 988.30718 947.00000 0.00106
4157 65.83500 992.24353 948.00000 0.00105
4158 65.85000 993.33289 959.00000 0.00104
4159 65.86500 991.53602 1011.00000 0.00099
4160 65.88000 987.28602 939.00000 0.00106
4161 65.89500 981.36834 964.00000 0.00104
4162 65.91000 974.73277 917.00000 0.00109
4163 65.92500 968.27433 937.00000 0.00107
4164 65.94000 962.66122 943.00000 0.00106
4165 65.95500 958.27992 928.00000 0.00108
4166 65.97000 955.28978 912.00000 0.00110
4167 65.98500 953.71992 950.00000 0.00105
4168 66.00000 953.56283 922.00000 0.00108
4169 66.01500 954.82412 951.00000 0.00105
4170 66.03000 957.53125 978.00000 0.00102
4171 66.04500 961.76232 919.00000 0.00109
4172 66.06000 967.63453 935.00000 0.00107
4173 66.07500 975.29112 948.00000 0.00105
4174 66.09000 984.89558 953.00000 0.00105
4175 66.10500 996.49575 985.00000 0.00102
4176 66.12000 1009.96766 1005.00000 0.00100
4177 66.13500 1024.82917 979.00000 0.00102
4178 66.15000 1040.04271 995.00000 0.00101
4179 66.16500 1053.89303 946.00000 0.00106
4180 66.18000 1064.12378 987.00000 0.00101
4181 66.19500 1068.48908 976.00000 0.00102
4182 66.21000 1065.61766 981.00000 0.00102
4183 66.22500 1055.72208 978.00000 0.00102
4184 66.24000 1040.63952 954.00000 0.00105
4185 66.25500 1023.14588 940.00000 0.00106
4186 66.27000 1005.98329 970.00000 0.00103
4187 66.28500 991.09841 972.00000 0.00103
4188 66.30000 979.33572 964.00000 0.00104
4189 66.31500 970.55241 997.00000 0.00100
4190 66.33000 964.01126 997.00000 0.00100
4191 66.34500 958.84271 987.00000 0.00101
4192 66.36000 954.36790 1000.00000 0.00100
4193 66.37500 950.25219 997.00000 0.00100
4194 66.39000 946.46307 1004.00000 0.00100
4195 66.40500 943.13285 974.00000 0.00103
4196 66.42000 940.42435 990.00000 0.00101
4197 66.43500 938.48061 1013.00000 0.00099
4198 66.45000 937.37232 1015.00000 0.00099
4199 66.46500 937.13562 1023.00000 0.00098
4200 66.48000 937.77718 1068.00000 0.00094
4201 66.49500 939.27943 1068.00000 0.00094
4202 66.51000 941.59900 1057.00000 0.00095
4203 66.52500 944.66517 1028.00000 0.00097
4204 66.54000 948.38632 1076.00000 0.00093
4205 66.55500 952.66749 1057.00000 0.00095
4206 66.57000 957.43354 1103.00000 0.00091
4207 66.58500 962.64837 1046.00000 0.00096
4208 66.60000 968.32133 1026.00000 0.00097
4209 66.61500 974.48904 1031.00000 0.00097
4210 66.63000 981.17308 1013.00000 0.00099
4211 66.64500 988.32390 1023.00000 0.00098
4212 66.66000 995.79106 1031.00000 0.00097
4213 66.67500 1003.29084 989.00000 0.00101
4214 66.69000 1010.34451 1029.00000 0.00097
4215 66.70500 1016.21930 1008.00000 0.00099
4216 66.72000 1019.98190 1024.00000 0.00098
4217 66.73500 1020.78973 1030.00000 0.00097
4218 66.75000 1018.26072 1035.00000 0.00097
4219 66.76500 1012.69443 1040.00000 0.00096
4220 66.78000 1004.93269 1038.00000 0.00096
4221 66.79500 995.99170 1040.00000 0.00096
4222 66.81000 986.75094 1030.00000 0.00097
4223 66.82500 977.85199 1061.00000 0.00094
4224 66.84000 969.72884 1059.00000 0.00094
4225 66.85500 962.65774 1034.00000 0.00097
4226 66.87000 956.78419 1059.00000 0.00094
4227 66.88500 952.14063 1056.00000 0.00095
4228 66.90000 948.66783 1079.00000 0.00093
4229 66.91500 946.24402 1018.00000 0.00098
4230 66.93000 944.72356 1079.00000 0.00093
4231 66.94500 943.98641 1001.00000 0.00100
4232 66.96000 943.98479 987.00000 0.00101
4233 66.97500 944.76373 1043.00000 0.00096
4234 66.99000 946.44711 1018.00000 0.00098
4235 67.00500 949.20709 947.00000 0.00106
4236 67.02000 953.23982 1001.00000 0.00100
4237 67.03500 958.75195 1001.00000 0.00100
4238 67.05000 965.95035 1016.00000 0.00098
4239 67.06500 975.00606 1019.00000 0.00098
4240 67.08000 985.98403 1032.00000 0.00097
4241 67.09500 998.75825 1041.00000 0.00096
4242 67.11000 1012.94211 1038.00000 0.00096
4243 67.12500 1027.90619 1054.00000 0.00095
4244 67.14000 1042.90985 1123.00000 0.00089
4245 67.15500 1057.29494 1176.00000 0.00085
4246 67.17000 1070.62304 1194.00000 0.00084
4247 67.18500 1082.63463 1250.00000 0.00080
4248 67.20000 1092.99275 1249.00000 0.00080
4249 67.21500 1100.94656 1260.00000 0.00079
4250 67.23000 1105.22068 1245.00000 0.00080
4251 67.24500 1104.38143 1196.00000 0.00084
4252 67.26000 1097.57178 1211.00000 0.00083
4253 67.27500 1085.16897 1227.00000 0.00081
4254 67.29000 1068.67069 1132.00000 0.00088
4255 67.30500 1050.16475 1127.00000 0.00089
4256 67.32000 1031.59112 1038.00000 0.00096
4257 67.33500 1014.32788 994.00000 0.00101
4258 67.35000 999.13681 1006.00000 0.00099
4259 67.36500 986.30676 988.00000 0.00101
4260 67.38000 975.83308 965.00000 0.00104
4261 67.39500 967.55786 946.00000 0.00106
4262 67.41000 961.25011 949.00000 0.00105
4263 67.42500 956.64033 930.00000 0.00108
4264 67.44000 953.43681 991.00000 0.00101
4265 67.45500 951.31431 979.00000 0.00102
4266 67.47000 949.92799 961.00000 0.00104
4267 67.48500 948.91688 926.00000 0.00108
4268 67.50000 947.91950 968.00000 0.00103
4269 67.51500 946.68294 960.00000 0.00104
4270 67.53000 945.13421 1007.00000 0.00099
4271 67.54500 943.39963 965.00000 0.00104
4272 67.56000 941.73354 958.00000 0.00104
4273 67.57500 940.39700 972.00000 0.00103
4274 67.59000 939.55214 994.00000 0.00101
4275 67.60500 939.20396 1019.00000 0.00098
4276 67.62000 939.18500 999.00000 0.00100
4277 67.63500 939.18045 1039.00000 0.00096
4278 67.65000 938.80612 1002.00000 0.00100
4279 67.66500 937.73710 970.00000 0.00103
4280 67.68000 935.83774 1022.00000 0.00098
4281 67.69500 933.21430 1009.00000 0.00099
4282 67.71000 930.15062 964.00000 0.00104
4283 67.72500 926.97263 961.00000 0.00104
4284 67.74000 923.93243 959.00000 0.00104
4285 67.75500 921.16933 933.00000 0.00107
4286 67.77000 918.74027 956.00000 0.00105
4287 67.78500 916.67449 938.00000 0.00107
4288 67.80000 915.01081 950.00000 0.00105
4289 67.81500 913.79948 908.00000 0.00110
4290 67.83000 913.09135 894.00000 0.00112
4291 67.84500 912.92656 896.00000 0.00112
4292 67.86000 913.33683 918.00000 0.00109
4293 67.87500 914.34171 891.00000 0.00112
4294 67.89000 915.95821 895.00000 0.00112
4295 67.90500 918.20096 908.00000 0.00110
4296 67.92000 921.08201 921.00000 0.00109
4297 67.93500 924.60869 889.00000 0.00112
4298 67.95000 928.79400 877.00000 0.00114
4299 67.96500 933.66148 862.00000 0.00116
4300 67.98000 939.27112 951.00000 0.00105
4301 67.99500 945.75633 898.00000 0.00111
4302 68.01000 953.33516 921.00000 0.00109
4303 68.02500 962.30108 900.00000 0.00111
4304 68.04000 973.01141 938.00000 0.00107
4305 68.05500 985.82837 987.00000 0.00101
4306 68.07000 1001.10955 1031.00000 0.00097
4307 68.08500 1019.16305 1068.00000 0.00094
4308 68.10000 1040.16311 1082.00000 0.00092
4309 68.11500 1064.00981 1092.00000 0.00092
4310 68.13000 1090.13006 1109.00000 0.00090
4311 68.14500 1117.27209 1204.00000 0.00083
4312 68.16000 1143.43136 1186.00000 0.00084
4313 68.17500 1166.10867 1173.00000 0.00085
4314 68.19000 1183.00504 1197.00000 0.00084
4315 68.20500 1192.92759 1162.00000 0.00086
4316 68.22000 1196.34231 1188.00000 0.00084
4317 68.23500 1195.11160 1131.00000 0.00088
4318 68.25000 1191.54048 1095.00000 0.00091
4319 68.26500 1187.33074 1084.00000 0.00092
4320 68.28000 1182.97051 1036.00000 0.00097
4321 68.29500 1177.73335 1038.00000 0.00096
4322 68.31000 1170.18724 1040.00000 0.00096
4323 68.32500 1158.95631 1020.00000 0.00098
4324 68.34000 1143.37923 1006.00000 0.00099
4325 68.35500 1123.77908 972.00000 0.00103
4326 68.37000 1101.29946 961.00000 0.00104
4327 68.38500 1077.46320 984.00000 0.00102
4328 68.40000 1053.71517 950.00000 0.00105
4329 68.41500 1031.14672 913.00000 0.00110
4330 68.43000 1010.43498 928.00000 0.00108
4331 68.44500 991.90671 925.00000 0.00108
4332 68.46000 975.63420 900.00000 0.00111
4333 68.47500 961.52400 954.00000 0.00105
4334 68.49000 949.39044 947.00000 0.00106
4335 68.50500 939.00956 924.00000 0.00108
4336 68.52000 930.15534 886.00000 0.00113
4337 68.53500 922.62683 902.00000 0.00111
4338 68.55000 916.25332 903.00000 0.00111
4339 68.56500 910.89731 896.00000 0.00112
4340 68.58000 906.45691 885.00000 0.00113
4341 68.59500 902.86666 888.00000 0.00113
4342 68.61000 900.07016 874.00000 0.00114
4343 68.62500 898.01882 872.00000 0.00115
4344 68.64000 896.66044 838.00000 0.00119
4345 68.65500 895.93133 868.00000 0.00115
4346 68.67000 895.74734 865.00000 0.00116
4347 68.68500 896.00648 921.00000 0.00109
4348 68.70000 896.58773 888.00000 0.00113
4349 68.71500 897.36019 880.00000 0.00114
4350 68.73000 898.19510 841.00000 0.00119
4351 68.74500 898.96387 860.00000 0.00116
4352 68.76000 899.51394 872.00000 0.00115
4353 68.77500 899.64656 860.00000 0.00116
4354 68.79000 899.14052 860.00000 0.00116
4355 68.80500 897.83486 875.00000 0.00114
4356 68.82000 895.71906 879.00000 0.00114
4357 68.83500 892.95519 860.00000 0.00116
4358 68.85000 889.81029 876.00000 0.00114
4359 68.86500 886.55530 853.00000 0.00117
4360 68.88000 883.39858 876.00000 0.00114
4361 68.89500 880.47332 863.00000 0.00116
4362 68.91000 877.85575 833.00000 0.00120
4363 68.92500 875.58573 847.00000 0.00118
4364 68.94000 873.67562 853.00000 0.00117
4365 68.95500 872.14620 808.00000 0.00124
4366 68.97000 870.97896 833.00000 0.00120
4367 68.98500 870.16639 820.00000 0.00122
4368 69.00000 869.70810 829.00000 0.00121
4369 69.01500 869.61427 848.00000 0.00118
4370 69.03000 869.90380 833.00000 0.00120
4371 69.04500 870.59762 864.00000 0.00116
4372 69.06000 871.70786 818.00000 0.00122
4373 69.07500 873.22213 817.00000 0.00122
4374 69.09000 875.08161 849.00000 0.00118
4375 69.10500 877.15544 870.00000 0.00115
4376 69.12000 879.22201 803.00000 0.00125
4377 69.13500 880.97658 846.00000 0.00118
4378 69.15000 882.08072 822.00000 0.00122
4379 69.16500 882.24215 821.00000 0.00122
4380 69.18000 881.28136 885.00000 0.00113
4381 69.19500 879.14989 851.00000 0.00118
4382 69.21000 875.91541 832.00000 0.00120
4383 69.22500 871.74979 830.00000 0.00120
4384 69.24000 866.91625 855.00000 0.00117
4385 69.25500 861.72283 843.00000 0.00119
4386 69.27000 856.44521 868.00000 0.00115
4387 69.28500 851.26766 845.00000 0.00118
4388 69.30000 846.28109 855.00000 0.00117
4389 69.31500 841.53250 825.00000 0.00121
4390 69.33000 837.09226 835.00000 0.00120
4391 69.34500 833.10639 832.00000 0.00120
4392 69.36000 829.80744 832.00000 0.00120
4393 69.37500 827.46590 823.00000 0.00122
4394 69.39000 826.28867 889.00000 0.00112
4395 69.40500 826.31658 838.00000 0.00119
4396 69.42000 827.39261 851.00000 0.00118
4397 69.43500 829.22583 837.00000 0.00119
4398 69.45000 831.50088 830.00000 0.00120
4399 69.46500 833.96349 827.00000 0.00121
4400 69.48000 836.45284 837.00000 0.00119
4401 69.49500 838.89369 825.00000 0.00121
4402 69.51000 841.27294 863.00000 0.00116
4403 69.52500 843.61688 848.00000 0.00118
4404 69.54000 845.97423 844.00000 0.00118
4405 69.55500 848.42103 849.00000 0.00118
4406 69.57000 851.03248 856.00000 0.00117
4407 69.58500 853.88296 867.00000 0.00115
4408 69.60000 857.05402 903.00000 0.00111
4409 69.61500 860.62295 847.00000 0.00118
4410 69.63000 864.65082 885.00000 0.00113
4411 69.64500 869.16070 894.00000 0.00112
4412 69.66000 874.10303 880.00000 0.00114
4413 69.67500 879.30985 949.00000 0.00105
4414 69.69000 884.45212 917.00000 0.00109
4415 69.70500 889.03132 942.00000 0.00106
4416 69.72000 892.45785 943.00000 0.00106
4417 69.73500 894.19099 935.00000 0.00107
4418 69.75000 893.94678 939.00000 0.00106
4419 69.76500 891.81109 933.00000 0.00107
4420 69.78000 888.20397 873.00000 0.00115
4421 69.79500 883.71891 919.00000 0.00109
4422 69.81000 878.93785 922.00000 0.00108
4423 69.82500 874.30954 845.00000 0.00118
4424 69.84000 870.11421 887.00000 0.00113
4425 69.85500 866.48496 852.00000 0.00117
4426 69.87000 863.46017 858.00000 0.00117
4427 69.88500 861.00323 879.00000 0.00114
4428 69.90000 859.04139 854.00000 0.00117
4429 69.91500 857.47733 865.00000 0.00116
4430 69.93000 856.19900 839.00000 0.00119
4431 69.94500 855.10085 829.00000 0.00121
4432 69.96000 854.11356 859.00000 0.00116
4433 69.97500 853.19854 862.00000 0.00116
4434 69.99000 852.37445 852.00000 0.00117
4435 70.00500 851.69082 825.00000 0.00121
4436 70.02000 851.20697 861.00000 0.00116
4437 70.03500 850.97611 846.00000 0.00118
4438 70.05000 851.03986 841.00000 0.00119
4439 70.06500 851.42974 851.00000 0.00118
4440 70.08000 852.16656 861.00000 0.00116
4441 70.09500 853.28500 899.00000 0.00111
4442 70.11000 854.78444 863.00000 0.00116
4443 70.12500 856.65239 885.00000 0.00113
4444 70.14000 858.83932 842.00000 0.00119
4445 70.15500 861.24014 862.00000 0.00116
4446 70.17000 863.68301 890.00000 0.00112
4447 70.18500 865.94105 895.00000 0.00112
4448 70.20000 867.78120 878.00000 0.00114
4449 70.21500 869.04461 918.00000 0.00109
4450 70.23000 869.72193 908.00000 0.00110
4451 70.24500 869.97295 886.00000 0.00113
4452 70.26000 870.07348 892.00000 0.00112
4453 70.27500 870.32415 905.00000 0.00110
4454 70.29000 870.97232 854.00000 0.00117
4455 70.30500 872.17046 889.00000 0.00112
4456 70.32000 873.96235 893.00000 0.00112
4457 70.33500 876.27767 886.00000 0.00113
4458 70.35000 878.92353 884.00000 0.00113
4459 70.36500 881.57864 883.00000 0.00113
4460 70.38000 883.81291 850.00000 0.00118
4461 70.39500 885.15637 862.00000 0.00116
4462 70.41000 885.21599 848.00000 0.00118
4463 70.42500 883.79287 888.00000 0.00113
4464 70.44000 880.93212 873.00000 0.00115
4465 70.45500 876.88089 859.00000 0.00116
4466 70.47000 871.99663 841.00000 0.00119
4467 70.48500 866.66164 829.00000 0.00121
4468 70.50000 861.22600 839.00000 0.00119
4469 70.51500 855.97828 883.00000 0.00113
4470 70.53000 851.14351 840.00000 0.00119
4471 70.54500 846.90000 882.00000 0.00113
4472 70.56000 843.39992 873.00000 0.00115
4473 70.57500 840.76959 894.00000 0.00112
4474 70.59000 839.08444 896.00000 0.00112
4475 70.60500 838.33826 916.00000 0.00109
4476 70.62000 838.42466 890.00000 0.00112
4477 70.63500 839.16883 858.00000 0.00117
4478 70.65000 840.36714 886.00000 0.00113
4479 70.66500 841.81957 858.00000 0.00117
4480 70.68000 843.34419 897.00000 0.00111
4481 70.69500 844.79869 853.00000 0.00117
4482 70.71000 846.08968 857.00000 0.00117
4483 70.72500 847.18554 843.00000 0.00119
4484 70.74000 848.12352 834.00000 0.00120
4485 70.75500 848.96948 798.00000 0.00125
4486 70.77000 849.76926 821.00000 0.00122
4487 70.78500 850.50824 826.00000 0.00121
4488 70.80000 851.10666 858.00000 0.00117
4489 70.81500 851.45078 813.00000 0.00123
4490 70.83000 851.44865 826.00000 0.00121
4491 70.84500 851.08197 792.00000 0.00126
4492 70.86000 850.42364 811.00000 0.00123
4493 70.87500 849.61269 792.00000 0.00126
4494 70.89000 848.80680 773.00000 0.00129
4495 70.90500 848.14150 802.00000 0.00125
4496 70.92000 847.71141 815.00000 0.00123
4497 70.93500 847.56797 797.00000 0.00125
4498 70.95000 847.73022 798.00000 0.00125
4499 70.96500 848.19477 825.00000 0.00121
4500 70.98000 848.94682 784.00000 0.00128
4501 70.99500 849.95691 779.00000 0.00128
4502 71.01000 851.18401 822.00000 0.00122
4503 71.02500 852.56417 807.00000 0.00124
4504 71.04000 854.00274 816.00000 0.00123
4505 71.05500 855.38194 847.00000 0.00118
4506 71.07000 856.59092 827.00000 0.00121
4507 71.08500 857.56797 825.00000 0.00121
4508 71.10000 858.33021 815.00000 0.00123
4509 71.11500 858.97149 809.00000 0.00124
4510 71.13000 859.63323 838.00000 0.00119
4511 71.14500 860.46808 815.00000 0.00123
4512 71.16000 861.61381 834.00000 0.00120
4513 71.17500 863.18325 818.00000 0.00122
4514 71.19000 865.26699 827.00000 0.00121
4515 71.20500 867.94252 866.00000 0.00115
4516 71.22000 871.28469 890.00000 0.00112
4517 71.23500 875.37531 855.00000 0.00117
4518 71.25000 880.31208 870.00000 0.00115
4519 71.26500 886.21745 896.00000 0.00112
4520 71.28000 893.24735 925.00000 0.00108
4521 71.29500 901.59840 973.00000 0.00103
4522 71.31000 911.51032 996.00000 0.00100
4523 71.32500 923.25698 1016.00000 0.00098
4524 71.34000 937.11461 1039.00000 0.00096
4525 71.35500 953.31051 1052.00000 0.00095
4526 71.37000 971.92127 1067.00000 0.00094
4527 71.38500 992.79555 1123.00000 0.00089
4528 71.40000 1015.48733 1119.00000 0.00089
4529 71.41500 1039.22529 1161.00000 0.00086
4530 71.43000 1062.89463 1191.00000 0.00084
4531 71.44500 1085.01794 1179.00000 0.00085
4532 71.46000 1103.79421 1145.00000 0.00087
4533 71.47500 1117.34166 1195.00000 0.00084
4534 71.49000 1124.24355 1188.00000 0.00084
4535 71.50500 1124.17232 1261.00000 0.00079
4536 71.52000 1118.15833 1185.00000 0.00084
4537 71.53500 1108.23916 1166.00000 0.00086
4538 71.55000 1096.70681 1151.00000 0.00087
4539 71.56500 1085.39709 1107.00000 0.00090
4540 71.58000 1075.28529 1092.00000 0.00092
4541 71.59500 1066.42158 1112.00000 0.00090
4542 71.61000 1058.08616 1082.00000 0.00092
4543 71.62500 1049.19797 1060.00000 0.00094
4544 71.64000 1038.84334 1034.00000 0.00097
4545 71.65500 1026.74089 1011.00000 0.00099
4546 71.67000 1013.29455 1026.00000 0.00097
4547 71.68500 999.40472 1003.00000 0.00100
4548 71.70000 986.07133 996.00000 0.00100
4549 71.71500 974.10407 996.00000 0.00100
4550 71.73000 964.01788 961.00000 0.00104
4551 71.74500 956.06715 955.00000 0.00105
4552 71.76000 950.33057 962.00000 0.00104
4553 71.77500 946.79731 963.00000 0.00104
4554 71.79000 945.41041 972.00000 0.00103
4555 71.80500 946.05937 949.00000 0.00105
4556 71.82000 948.55302 971.00000 0.00103
4557 71.83500 952.59751 981.00000 0.00102
4558 71.85000 957.75394 976.00000 0.00102
4559 71.86500 963.43367 996.00000 0.00100
4560 71.88000 968.93988 972.00000 0.00103
4561 71.89500 973.54591 938.00000 0.00107
4562 71.91000 976.57666 982.00000 0.00102
4563 71.92500 977.47761 972.00000 0.00103
4564 71.94000 975.88808 929.00000 0.00108
4565 71.95500 971.74264 944.00000 0.00106
4566 71.97000 965.36741 989.00000 0.00101
4567 71.98500 957.47343 936.00000 0.00107
4568 72.00000 948.98325 968.00000 0.00103
4569 72.01500 940.75693 980.00000 0.00102
4570 72.03000 933.36052 978.00000 0.00102
4571 72.04500 926.98216 925.00000 0.00108
4572 72.06000 921.50840 940.00000 0.00106
4573 72.07500 916.69312 915.00000 0.00109
4574 72.09000 912.31760 940.00000 0.00106
4575 72.10500 908.26979 898.00000 0.00111
4576 72.12000 904.53986 944.00000 0.00106
4577 72.13500 901.17648 887.00000 0.00113
4578 72.15000 898.25784 906.00000 0.00110
4579 72.16500 895.85730 901.00000 0.00111
4580 72.18000 894.02912 875.00000 0.00114
4581 72.19500 892.80579 869.00000 0.00115
4582 72.21000 892.19047 933.00000 0.00107
4583 72.22500 892.16386 910.00000 0.00110
4584 72.24000 892.70283 893.00000 0.00112
4585 72.25500 893.80229 887.00000 0.00113
4586 72.27000 895.48555 891.00000 0.00112
4587 72.28500 897.79247 893.00000 0.00112
4588 72.30000 900.74496 913.00000 0.00110
4589 72.31500 904.29791 872.00000 0.00115
4590 72.33000 908.28572 900.00000 0.00111
4591 72.34500 912.37917 908.00000 0.00110
4592 72.36000 916.08034 896.00000 0.00112
4593 72.37500 918.79331 904.00000 0.00111
4594 72.39000 919.98442 888.00000 0.00113
4595 72.40500 919.37597 901.00000 0.00111
4596 72.42000 917.05580 895.00000 0.00112
4597 72.43500 913.42329 877.00000 0.00114
4598 72.45000 909.01482 878.00000 0.00114
4599 72.46500 904.32703 899.00000 0.00111
4600 72.48000 899.71623 850.00000 0.00118
4601 72.49500 895.40855 874.00000 0.00114
4602 72.51000 891.48731 869.00000 0.00115
4603 72.52500 887.97789 858.00000 0.00117
4604 72.54000 884.88924 901.00000 0.00111
4605 72.55500 882.26184 857.00000 0.00117
4606 72.57000 880.21150 869.00000 0.00115
4607 72.58500 878.96077 857.00000 0.00117
4608 72.60000 878.83989 832.00000 0.00120
