#------------------------------------------------------------------------------
#$Date: 2020-05-05 16:29:02 +0300 (Tue, 05 May 2020) $
#$Revision: 251660 $
#$URL: file:///home/coder/svn-repositories/cod/cif/7/70/38/7703817.cif $
#------------------------------------------------------------------------------
#
# This file is available in the Crystallography Open Database (COD),
# http://www.crystallography.net/
#
# All data on this site have been placed in the public domain by the
# contributors.
#
data_7703817
loop_
_publ_author_name
'Rabe, Timo'
'Pewe, Harm'
'Reinsch, Helge'
'Willhammar, Tom'
'Svensson Grape, Erik'
'Stock, Norbert'
_publ_section_title
;
 Influence of the substitution pattern of four naphthalenedicarboxylic
 acids on the structures and properties of group 13 metal-organic
 frameworks and coordination polymers.
;
_journal_issue                   15
_journal_name_full
'Dalton transactions (Cambridge, England : 2003)'
_journal_page_first              4861
_journal_page_last               4868
_journal_paper_doi               10.1039/d0dt00387e
_journal_volume                  49
_journal_year                    2020
_chemical_formula_moiety         'C48 Ga4 O28'
_chemical_formula_sum            'C48 Ga4 O28'
_chemical_formula_weight         1303.36
_space_group_IT_number           137
_space_group_name_Hall           '-P 4ac 2a'
_space_group_name_H-M_alt        'P 42/n m c :2'
_symmetry_cell_setting           tetragonal
_symmetry_space_group_name_Hall  '-P 4ac 2a'
_symmetry_space_group_name_H-M   'P 42/n m c :2'
_audit_update_record
;
2020-01-31 deposited with the CCDC.	2020-03-18 downloaded from the CCDC.
;
_cell_angle_alpha                90
_cell_angle_beta                 90
_cell_angle_gamma                90
_cell_formula_units_Z            2
_cell_length_a                   21.3392(3)
_cell_length_b                   21.3392(3)
_cell_length_c                   6.71422(15)
_cell_measurement_temperature    298
_cell_volume                     3057.40(9)
_diffrn_ambient_temperature      298
_diffrn_measurement_device_type  'Stoe Stadi P Combi'
_diffrn_radiation_probe          x-ray
_diffrn_radiation_type           'Cu K\a'
_diffrn_radiation_wavelength     1.5406
_exptl_crystal_density_diffrn    1.416
_exptl_crystal_description       powder
_pd_char_colour                  white
_pd_proc_ls_prof_R_factor        0.0513
_pd_proc_ls_prof_wR_expected     0.0271
_pd_proc_ls_prof_wR_factor       0.0743
_refine_ls_goodness_of_fit_all   2.74312
_refine_ls_R_I_factor            0.0572
_cod_data_source_file            d0dt00387e2.cif
_cod_data_source_block           Ga14
_cod_depositor_comments
'Adding full bibliography for 7703815--7703820.cif.'
_cod_original_cell_volume        3057.40(11)
_cod_original_sg_symbol_H-M      P42/nmc
_cod_database_code               7703817
loop_
_symmetry_equiv_pos_as_xyz
'x, y, z '
'-x, y+1/2, -z '
'-x+1/2, -y+1/2, z '
'-x+1/2, y, z '
'-y, -x, -z+1/2 '
'-y, x+1/2, -z+1/2 '
'-y+1/2, -x+1/2, z+1/2 '
'-y+1/2, x, z+1/2 '
'y, -x+1/2, z+1/2 '
'y, x, z+1/2 '
'y+1/2, -x, -z+1/2 '
'y+1/2, x+1/2, -z+1/2 '
'x, -y+1/2, z '
'-x, -y, -z '
'x+1/2, -y, -z '
'x+1/2, y+1/2, -z '
loop_
_atom_site_label
_atom_site_type_symbol
_atom_site_symmetry_multiplicity
_atom_site_fract_x
_atom_site_fract_y
_atom_site_fract_z
_atom_site_occupancy
_atom_site_B_iso_or_equiv
Ga1 Ga 8 0.5 0.5 0 1 0.20(13)
O1 O 8 0.4720(5) 0.5280(5) 0.25 1 1.0(3)
O2 O 16 0.4921(9) 0.4124(7) 0.070(3) 1 1.0(3)
O3 O 16 0.4990(10) 0.4129(8) 0.407(3) 1 1.0(3)
C1 C 16 0.4903(10) 0.3873(7) 0.240(5) 1 0.2(3)
C2 C 16 0.47467 0.31697 0.27392 1 0.2(3)
C3 C 16 0.50016 0.28316 0.1137 1 0.2(3)
C4 C 16 0.44475 0.2834 0.43096 1 0.2(3)
C5 C 16 0.41262 0.31502 0.58551 1 0.2(3)
C6 C 16 0.38068 0.28183 0.73289 1 0.2(3)
Ow1 O 16 0.1551(7) 0.6840(8) 0.4272(18) 1.000(12) 8.0(9)
loop_
_geom_angle_atom_site_label_1
_geom_angle_atom_site_label_2
_geom_angle_atom_site_label_3
_geom_angle
_geom_angle_site_symmetry_1
_geom_angle_site_symmetry_2
_geom_angle_site_symmetry_3
O1 Ga1 O1 180.000 1_555 1_555 10_554
O2 Ga1 O1 86.4(6) 14_665 1_555 1_555
O2 Ga1 O1 93.6(6) 14_665 1_555 10_554
O2 Ga1 O2 180.000 1_555 1_555 14_665
O2 Ga1 O1 93.6(6) 1_555 1_555 1_555
O2 Ga1 O1 86.4(6) 1_555 1_555 10_554
O3 Ga1 O2 89.0(8) 10_554 1_555 1_555
O3 Ga1 O2 91.0(8) 10_554 1_555 14_665
O3 Ga1 O1 89.2(6) 10_554 1_555 1_555
O3 Ga1 O1 90.8(6) 10_554 1_555 10_554
O3 Ga1 O3 180.000 5_665 1_555 10_554
O3 Ga1 O2 91.0(8) 5_665 1_555 1_555
O3 Ga1 O2 89.0(8) 5_665 1_555 14_665
O3 Ga1 O1 90.8(6) 5_665 1_555 1_555
O3 Ga1 O1 89.2(6) 5_665 1_555 10_554
C1 Ga1 O3 84.3(7) 1_555 1_555 5_665
C1 Ga1 O3 95.7(7) 1_555 1_555 10_554
C1 Ga1 O2 19.7(8) 1_555 1_555 1_555
C1 Ga1 O2 160.3(8) 1_555 1_555 14_665
C1 Ga1 O1 75.2(6) 1_555 1_555 1_555
C1 Ga1 O1 104.8(6) 1_555 1_555 10_554
C1 Ga1 C1 180.0000000(4) 14_665 1_555 1_555
C1 Ga1 O3 95.7(7) 14_665 1_555 5_665
C1 Ga1 O3 84.3(7) 14_665 1_555 10_554
C1 Ga1 O2 160.3(8) 14_665 1_555 1_555
C1 Ga1 O2 19.7(8) 14_665 1_555 14_665
C1 Ga1 O1 104.8(6) 14_665 1_555 1_555
C1 Ga1 O1 75.2(6) 14_665 1_555 10_554
C1 Ga1 C1 77.9(7) 10_554 1_555 14_665
C1 Ga1 C1 102.1(7) 10_554 1_555 1_555
C1 Ga1 O3 162.2(8) 10_554 1_555 5_665
C1 Ga1 O3 17.8(8) 10_554 1_555 10_554
C1 Ga1 O2 90.2(7) 10_554 1_555 1_555
C1 Ga1 O2 89.8(7) 10_554 1_555 14_665
C1 Ga1 O1 106.9(6) 10_554 1_555 1_555
C1 Ga1 O1 73.1(6) 10_554 1_555 10_554
C1 Ga1 C1 179.9999988(5) 5_665 1_555 10_554
C1 Ga1 C1 102.1(7) 5_665 1_555 14_665
C1 Ga1 C1 77.9(7) 5_665 1_555 1_555
C1 Ga1 O3 17.8(8) 5_665 1_555 5_665
C1 Ga1 O3 162.2(8) 5_665 1_555 10_554
C1 Ga1 O2 89.8(7) 5_665 1_555 1_555
C1 Ga1 O2 90.2(7) 5_665 1_555 14_665
C1 Ga1 O1 73.1(6) 5_665 1_555 1_555
C1 Ga1 O1 106.9(6) 5_665 1_555 10_554
Ga1 O1 Ga1 126.6(8) 5_665 1_555 1_555
O2 O1 Ga1 47.7(4) 10_555 1_555 5_665
O2 O1 Ga1 142.8(5) 10_555 1_555 1_555
O2 O1 O2 164.2(10) 14_665 1_555 10_555
O2 O1 Ga1 142.8(5) 14_665 1_555 5_665
O2 O1 Ga1 47.7(4) 14_665 1_555 1_555
O3 O1 O2 63.1(6) 10_554 1_555 14_665
O3 O1 O2 114.0(6) 10_554 1_555 10_555
O3 O1 Ga1 146.9(5) 10_554 1_555 5_665
O3 O1 Ga1 46.6(4) 10_554 1_555 1_555
O3 O1 O3 160.6(10) 14_666 1_555 10_554
O3 O1 O2 114.0(6) 14_666 1_555 14_665
O3 O1 O2 63.1(6) 14_666 1_555 10_555
O3 O1 Ga1 46.6(4) 14_666 1_555 5_665
O3 O1 Ga1 146.9(5) 14_666 1_555 1_555
O3 O1 O3 92.4(5) 1_555 1_555 14_666
O3 O1 O3 102.8(7) 1_555 1_555 10_554
O3 O1 O2 134.0(7) 1_555 1_555 14_665
O3 O1 O2 61.4(6) 1_555 1_555 10_555
O3 O1 Ga1 45.8(4) 1_555 1_555 5_665
O3 O1 Ga1 89.6(6) 1_555 1_555 1_555
O3 O1 O3 76.8(9) 5_665 1_555 1_555
O3 O1 O3 102.8(7) 5_665 1_555 14_666
O3 O1 O3 92.4(5) 5_665 1_555 10_554
O3 O1 O2 61.4(6) 5_665 1_555 14_665
O3 O1 O2 134.0(7) 5_665 1_555 10_555
O3 O1 Ga1 89.6(6) 5_665 1_555 5_665
O3 O1 Ga1 45.8(4) 5_665 1_555 1_555
O2 O1 O3 60.5(6) 1_555 1_555 5_665
O2 O1 O3 48.6(6) 1_555 1_555 1_555
O2 O1 O3 138.7(7) 1_555 1_555 14_666
O2 O1 O3 59.8(6) 1_555 1_555 10_554
O2 O1 O2 91.7(5) 1_555 1_555 14_665
O2 O1 O2 99.9(7) 1_555 1_555 10_555
O2 O1 Ga1 93.3(6) 1_555 1_555 5_665
O2 O1 Ga1 44.0(4) 1_555 1_555 1_555
O2 O1 O2 85.2(9) 5_665 1_555 1_555
O2 O1 O3 48.6(6) 5_665 1_555 5_665
O2 O1 O3 60.5(6) 5_665 1_555 1_555
O2 O1 O3 59.8(6) 5_665 1_555 14_666
O2 O1 O3 138.7(7) 5_665 1_555 10_554
O2 O1 O2 99.9(7) 5_665 1_555 14_665
O2 O1 O2 91.7(5) 5_665 1_555 10_555
O2 O1 Ga1 44.0(4) 5_665 1_555 5_665
O2 O1 Ga1 93.3(6) 5_665 1_555 1_555
C1 O1 O2 75.1(7) 1_555 1_555 5_665
C1 O1 O2 24.6(7) 1_555 1_555 1_555
C1 O1 O3 70.5(7) 1_555 1_555 5_665
C1 O1 O3 24.7(7) 1_555 1_555 1_555
C1 O1 O3 117.0(7) 1_555 1_555 14_666
C1 O1 O3 79.2(7) 1_555 1_555 10_554
C1 O1 O2 115.3(7) 1_555 1_555 14_665
C1 O1 O2 77.9(7) 1_555 1_555 10_555
C1 O1 Ga1 70.4(7) 1_555 1_555 5_665
C1 O1 Ga1 67.9(7) 1_555 1_555 1_555
C1 O1 C1 75.3(9) 5_665 1_555 1_555
C1 O1 O2 24.6(7) 5_665 1_555 5_665
C1 O1 O2 75.1(7) 5_665 1_555 1_555
C1 O1 O3 24.7(7) 5_665 1_555 5_665
C1 O1 O3 70.5(7) 5_665 1_555 1_555
C1 O1 O3 79.2(7) 5_665 1_555 14_666
C1 O1 O3 117.0(7) 5_665 1_555 10_554
C1 O1 O2 77.9(7) 5_665 1_555 14_665
C1 O1 O2 115.3(7) 5_665 1_555 10_555
C1 O1 Ga1 67.9(7) 5_665 1_555 5_665
C1 O1 Ga1 70.4(7) 5_665 1_555 1_555
Ga1 O2 C1 129.1(15) 1_555 1_555 1_555
O3 O2 Ga1 103.3(8) 1_555 1_555 1_555
O3 O2 C1 26.0(10) 1_555 1_555 1_555
C2 O2 O3 57.5(6) 1_555 1_555 1_555
C2 O2 Ga1 159.9(10) 1_555 1_555 1_555
C2 O2 C1 31.6(10) 1_555 1_555 1_555
O1 O2 C2 153.9(8) 10_554 1_555 1_555
O1 O2 O3 143.0(9) 10_554 1_555 1_555
O1 O2 Ga1 45.9(4) 10_554 1_555 1_555
O1 O2 C1 163.7(16) 10_554 1_555 1_555
O3 O2 O1 61.5(6) 10_554 1_555 10_554
O3 O2 C2 133.1(8) 10_554 1_555 1_555
O3 O2 O3 115.8(8) 10_554 1_555 1_555
O3 O2 Ga1 45.8(5) 10_554 1_555 1_555
O3 O2 C1 129.0(15) 10_554 1_555 1_555
O3 O2 O3 90.7(7) 5_665 1_555 10_554
O3 O2 O1 59.9(5) 5_665 1_555 10_554
O3 O2 C2 129.6(8) 5_665 1_555 1_555
O3 O2 O3 83.9(9) 5_665 1_555 1_555
O3 O2 Ga1 44.9(5) 5_665 1_555 1_555
O3 O2 C1 105.1(14) 5_665 1_555 1_555
C3 O2 O3 128.7(8) 1_555 1_555 5_665
C3 O2 O3 138.8(8) 1_555 1_555 10_554
C3 O2 O1 123.6(7) 1_555 1_555 10_554
C3 O2 C2 30.32(18) 1_555 1_555 1_555
C3 O2 O3 84.0(7) 1_555 1_555 1_555
C3 O2 Ga1 168.3(9) 1_555 1_555 1_555
C3 O2 C1 59.0(10) 1_555 1_555 1_555
O1 O2 C3 147.5(8) 1_555 1_555 1_555
O1 O2 O3 58.9(5) 1_555 1_555 5_665
O1 O2 O3 58.5(6) 1_555 1_555 10_554
O1 O2 O1 88.3(5) 1_555 1_555 10_554
O1 O2 C2 117.6(7) 1_555 1_555 1_555
O1 O2 O3 64.6(6) 1_555 1_555 1_555
O1 O2 Ga1 42.4(3) 1_555 1_555 1_555
O1 O2 C1 88.7(12) 1_555 1_555 1_555
Ga1 O3 C1 133.9(15) 5_665 1_555 1_555
O2 O3 Ga1 108.8(9) 1_555 1_555 5_665
O2 O3 C1 25.8(11) 1_555 1_555 1_555
C2 O3 O2 65.8(6) 1_555 1_555 1_555
C2 O3 Ga1 166.6(11) 1_555 1_555 5_665
C2 O3 C1 40.0(11) 1_555 1_555 1_555
O1 O3 C2 143.4(8) 10_555 1_555 1_555
O1 O3 O2 150.4(9) 10_555 1_555 1_555
O1 O3 Ga1 44.2(4) 10_555 1_555 5_665
O1 O3 C1 174.4(13) 10_555 1_555 1_555
O2 O3 O1 61.7(6) 10_555 1_555 10_555
O2 O3 C2 123.7(9) 10_555 1_555 1_555
O2 O3 O2 111.0(9) 10_555 1_555 1_555
O2 O3 Ga1 45.1(5) 10_555 1_555 5_665
O2 O3 C1 121.5(15) 10_555 1_555 1_555
O1 O3 O2 57.1(6) 1_555 1_555 10_555
O1 O3 O1 87.6(5) 1_555 1_555 10_555
O1 O3 C2 127.1(8) 1_555 1_555 1_555
O1 O3 O2 66.8(6) 1_555 1_555 1_555
O1 O3 Ga1 43.4(4) 1_555 1_555 5_665
O1 O3 C1 90.7(12) 1_555 1_555 1_555
O2 O3 O1 60.6(5) 5_665 1_555 1_555
O2 O3 O2 89.3(7) 5_665 1_555 10_555
O2 O3 O1 57.0(5) 5_665 1_555 10_555
O2 O3 C2 145.8(10) 5_665 1_555 1_555
O2 O3 O2 95.9(8) 5_665 1_555 1_555
O2 O3 Ga1 44.2(5) 5_665 1_555 5_665
O2 O3 C1 117.7(15) 5_665 1_555 1_555
C4 O3 O2 158.8(8) 1_555 1_555 5_665
C4 O3 O1 140.0(8) 1_555 1_555 1_555
C4 O3 O2 106.7(7) 1_555 1_555 10_555
C4 O3 O1 118.3(6) 1_555 1_555 10_555
C4 O3 C2 27.3(2) 1_555 1_555 1_555
C4 O3 O2 91.3(7) 1_555 1_555 1_555
C4 O3 Ga1 149.4(9) 1_555 1_555 5_665
C4 O3 C1 66.0(12) 1_555 1_555 1_555
C5 O3 C4 27.12(16) 1_555 1_555 1_555
C5 O3 O2 153.5(8) 1_555 1_555 5_665
C5 O3 O1 130.0(7) 1_555 1_555 1_555
C5 O3 O2 81.8(6) 1_555 1_555 10_555
C5 O3 O1 97.2(6) 1_555 1_555 10_555
C5 O3 C2 53.2(4) 1_555 1_555 1_555
C5 O3 O2 110.5(8) 1_555 1_555 1_555
C5 O3 Ga1 122.3(8) 1_555 1_555 5_665
C5 O3 C1 88.0(13) 1_555 1_555 1_555
O3 C1 O2 128.2(16) 1_555 1_555 1_555
C2 C1 O3 108(2) 1_555 1_555 1_555
C2 C1 O2 123(2) 1_555 1_555 1_555
C3 C1 C2 34.1(5) 1_555 1_555 1_555
C3 C1 O3 134.7(16) 1_555 1_555 1_555
C3 C1 O2 94.1(15) 1_555 1_555 1_555
C4 C1 C3 56.2(3) 1_555 1_555 1_555
C4 C1 C2 22.1(5) 1_555 1_555 1_555
C4 C1 O3 89.1(16) 1_555 1_555 1_555
C4 C1 O2 141.1(16) 1_555 1_555 1_555
Ga1 C1 C4 163.0(10) 1_555 1_555 1_555
Ga1 C1 C3 124.7(12) 1_555 1_555 1_555
Ga1 C1 C2 153.9(17) 1_555 1_555 1_555
Ga1 C1 O3 97.2(11) 1_555 1_555 1_555
Ga1 C1 O2 31.2(9) 1_555 1_555 1_555
Ga1 C1 Ga1 69.6(3) 5_665 1_555 1_555
Ga1 C1 C4 113.7(10) 5_665 1_555 1_555
Ga1 C1 C3 162.3(11) 5_665 1_555 1_555
Ga1 C1 C2 135.0(16) 5_665 1_555 1_555
Ga1 C1 O3 28.3(9) 5_665 1_555 1_555
Ga1 C1 O2 100.8(11) 5_665 1_555 1_555
O1 C1 Ga1 36.4(2) 1_555 1_555 5_665
O1 C1 Ga1 36.9(2) 1_555 1_555 1_555
O1 C1 C4 138.2(10) 1_555 1_555 1_555
O1 C1 C3 160.5(13) 1_555 1_555 1_555
O1 C1 C2 157.9(12) 1_555 1_555 1_555
O1 C1 O3 64.6(10) 1_555 1_555 1_555
O1 C1 O2 66.7(10) 1_555 1_555 1_555
C4 C2 C3 118.794 1_555 1_555 1_555
C1 C2 C4 133.7(11) 1_555 1_555 1_555
C1 C2 C3 107.4(10) 1_555 1_555 1_555
O3 C2 C1 31.5(12) 1_555 1_555 1_555
O3 C2 C4 105.1(5) 1_555 1_555 1_555
O3 C2 C3 132.1(5) 1_555 1_555 1_555
C3 C2 O3 153.9(5) 13_555 1_555 1_555
C3 C2 C1 136.8(10) 13_555 1_555 1_555
C3 C2 C4 89.196 13_555 1_555 1_555
C3 C2 C3 29.669 13_555 1_555 1_555
C4 C2 C3 59.304 13_555 1_555 13_555
C4 C2 O3 131.7(4) 13_555 1_555 1_555
C4 C2 C1 162.8(11) 13_555 1_555 1_555
C4 C2 C4 29.916 13_555 1_555 1_555
C4 C2 C3 88.948 13_555 1_555 1_555
C5 C2 C4 59.123 1_555 1_555 13_555
C5 C2 C3 118.320 1_555 1_555 13_555
C5 C2 O3 78.8(5) 1_555 1_555 1_555
C5 C2 C1 104.8(10) 1_555 1_555 1_555
C5 C2 C4 29.220 1_555 1_555 1_555
C5 C2 C3 147.709 1_555 1_555 1_555
O2 C2 C5 124.1(4) 1_555 1_555 1_555
O2 C2 C4 170.1(4) 1_555 1_555 13_555
O2 C2 C3 116.0(4) 1_555 1_555 13_555
O2 C2 O3 56.6(6) 1_555 1_555 1_555
O2 C2 C1 25.1(12) 1_555 1_555 1_555
O2 C2 C4 152.6(4) 1_555 1_555 1_555
O2 C2 C3 86.6(4) 1_555 1_555 1_555
C2 C2 O2 145.1(4) 13_555 1_555 1_555
C2 C2 C5 89.037 13_555 1_555 1_555
C2 C2 C4 29.921 13_555 1_555 13_555
C2 C2 C3 29.430 13_555 1_555 13_555
C2 C2 O3 153.2(5) 13_555 1_555 1_555
C2 C2 C1 164.9(8) 13_555 1_555 1_555
C2 C2 C4 59.837 13_555 1_555 1_555
C2 C2 C3 59.099 13_555 1_555 1_555
C3 C3 C2 120.901 13_555 1_555 1_555
C1 C3 C3 158.6(7) 1_555 1_555 13_555
C1 C3 C2 38.4(6) 1_555 1_555 1_555
C4 C3 C1 69.2(6) 1_555 1_555 1_555
C4 C3 C3 90.120 1_555 1_555 13_555
C4 C3 C2 30.852 1_555 1_555 1_555
C2 C3 C4 60.714 13_555 1_555 1_555
C2 C3 C1 129.5(7) 13_555 1_555 1_555
C2 C3 C3 29.430 13_555 1_555 13_555
C2 C3 C2 91.471 13_555 1_555 1_555
O2 C3 C2 153.8(4) 1_555 1_555 13_555
O2 C3 C4 93.5(4) 1_555 1_555 1_555
O2 C3 C1 26.9(8) 1_555 1_555 1_555
O2 C3 C3 172.9(4) 1_555 1_555 13_555
O2 C3 C2 63.1(4) 1_555 1_555 1_555
C4 C3 O2 123.7(4) 13_555 1_555 1_555
C4 C3 C2 30.364 13_555 1_555 13_555
C4 C3 C4 30.362 13_555 1_555 1_555
C4 C3 C1 99.5(7) 13_555 1_555 1_555
C4 C3 C3 59.758 13_555 1_555 13_555
C4 C3 C2 61.179 13_555 1_555 1_555
C4 C4 C5 118.481 13_555 1_555 1_555
C2 C4 C4 120.163 1_555 1_555 13_555
C2 C4 C5 121.317 1_555 1_555 1_555
C3 C4 C2 30.354 1_555 1_555 1_555
C3 C4 C4 89.880 1_555 1_555 13_555
C3 C4 C5 151.326 1_555 1_555 1_555
C5 C4 C3 120.413 13_555 1_555 1_555
C5 C4 C2 150.757 13_555 1_555 1_555
C5 C4 C4 30.634 13_555 1_555 13_555
C5 C4 C5 87.847 13_555 1_555 1_555
C6 C4 C5 58.583 1_555 1_555 13_555
C6 C4 C3 174.955 1_555 1_555 1_555
C6 C4 C2 150.501 1_555 1_555 1_555
C6 C4 C4 89.215 1_555 1_555 13_555
C6 C4 C5 29.270 1_555 1_555 1_555
C2 C4 C6 119.097 13_555 1_555 1_555
C2 C4 C5 60.542 13_555 1_555 13_555
C2 C4 C3 59.982 13_555 1_555 1_555
C2 C4 C2 90.242 13_555 1_555 1_555
C2 C4 C4 29.921 13_555 1_555 13_555
C2 C4 C5 148.364 13_555 1_555 1_555
C1 C4 C2 114.2(5) 1_555 1_555 13_555
C1 C4 C6 126.7(5) 1_555 1_555 1_555
C1 C4 C5 174.3(4) 1_555 1_555 13_555
C1 C4 C3 54.5(5) 1_555 1_555 1_555
C1 C4 C2 24.2(5) 1_555 1_555 1_555
C1 C4 C4 144.0(5) 1_555 1_555 13_555
C1 C4 C5 97.4(5) 1_555 1_555 1_555
C6 C4 C1 155.5(5) 13_555 1_555 1_555
C6 C4 C2 90.240 13_555 1_555 13_555
C6 C4 C6 28.866 13_555 1_555 1_555
C6 C4 C5 29.717 13_555 1_555 13_555
C6 C4 C3 149.854 13_555 1_555 1_555
C6 C4 C2 177.519 13_555 1_555 1_555
C6 C4 C4 60.349 13_555 1_555 13_555
C6 C4 C5 58.134 13_555 1_555 1_555
C3 C4 C6 119.921 13_555 1_555 13_555
C3 C4 C1 84.5(5) 13_555 1_555 1_555
C3 C4 C2 29.873 13_555 1_555 13_555
C3 C4 C6 148.615 13_555 1_555 1_555
C3 C4 C5 90.317 13_555 1_555 13_555
C3 C4 C3 30.121 13_555 1_555 1_555
C3 C4 C2 60.440 13_555 1_555 1_555
C3 C4 C4 59.758 13_555 1_555 13_555
C3 C4 C5 175.765 13_555 1_555 1_555
O3 C4 C3 105.2(4) 1_555 1_555 13_555
O3 C4 C6 132.9(4) 1_555 1_555 13_555
O3 C4 C1 24.9(7) 1_555 1_555 1_555
O3 C4 C2 132.5(4) 1_555 1_555 13_555
O3 C4 C6 105.8(4) 1_555 1_555 1_555
O3 C4 C5 157.4(4) 1_555 1_555 13_555
O3 C4 C3 76.6(4) 1_555 1_555 1_555
O3 C4 C2 47.6(4) 1_555 1_555 1_555
O3 C4 C4 157.1(4) 1_555 1_555 13_555
O3 C4 C5 77.7(4) 1_555 1_555 1_555
C4 C5 C6 120.993 1_555 1_555 1_555
C6 C5 C4 91.688 13_555 1_555 1_555
C6 C5 C6 29.310 13_555 1_555 1_555
C4 C5 C6 60.804 13_555 1_555 13_555
C4 C5 C4 30.886 13_555 1_555 1_555
C4 C5 C6 90.112 13_555 1_555 1_555
C2 C5 C4 60.335 1_555 1_555 13_555
C2 C5 C6 121.111 1_555 1_555 13_555
C2 C5 C4 29.463 1_555 1_555 1_555
C2 C5 C6 150.370 1_555 1_555 1_555
C5 C5 C2 90.963 13_555 1_555 1_555
C5 C5 C4 30.634 13_555 1_555 13_555
C5 C5 C6 30.173 13_555 1_555 13_555
C5 C5 C4 61.519 13_555 1_555 1_555
C5 C5 C6 59.483 13_555 1_555 1_555
O3 C5 C5 133.6(3) 1_555 1_555 13_555
O3 C5 C2 47.9(3) 1_555 1_555 1_555
O3 C5 C4 104.7(3) 1_555 1_555 13_555
O3 C5 C6 158.8(4) 1_555 1_555 13_555
O3 C5 C4 75.2(3) 1_555 1_555 1_555
O3 C5 C6 157.9(4) 1_555 1_555 1_555
C5 C6 C6 120.517 1_555 1_555 13_555
C5 C6 C5 90.344 13_555 1_555 1_555
C5 C6 C6 30.173 13_555 1_555 13_555
C4 C6 C5 60.613 1_555 1_555 13_555
C4 C6 C5 29.737 1_555 1_555 1_555
C4 C6 C6 90.785 1_555 1_555 13_555
C4 C6 C4 30.436 13_555 1_555 1_555
C4 C6 C5 30.178 13_555 1_555 13_555
C4 C6 C5 60.171 13_555 1_555 1_555
C4 C6 C6 60.349 13_555 1_555 13_555
Ow1 Ow1 Ow1 104.1(5) 13_565 1_555 12_455
loop_
_geom_bond_atom_site_label_1
_geom_bond_atom_site_label_2
_geom_bond_distance
_geom_bond_site_symmetry_1
_geom_bond_site_symmetry_2
Ga1 O1 1.879(6) 1_555 10_554
Ga1 O1 1.879(6) 1_555 1_555
Ga1 O2 1.935(16) 1_555 14_665
Ga1 O2 1.935(16) 1_555 1_555
Ga1 O3 1.959(16) 1_555 10_554
Ga1 O3 1.959(16) 1_555 5_665
Ga1 C1 2.90(2) 1_555 1_555
Ga1 C1 2.90(2) 1_555 14_665
Ga1 C1 2.98(2) 1_555 10_554
Ga1 C1 2.98(2) 1_555 5_665
O1 Ga1 1.879(6) 1_555 1_555
O1 Ga1 1.879(6) 1_555 5_665
O1 O2 2.611(18) 1_555 10_555
O1 O2 2.611(18) 1_555 14_665
O1 O3 2.695(18) 1_555 10_554
O1 O3 2.695(18) 1_555 14_666
O1 O3 2.73(2) 1_555 1_555
O1 O3 2.73(2) 1_555 5_665
O1 O2 2.781(19) 1_555 1_555
O1 O2 2.781(19) 1_555 5_665
O1 C1 3.027(18) 1_555 1_555
O1 C1 3.027(18) 1_555 5_665
O2 C1 1.26(3) 1_555 1_555
O2 Ga1 1.935(16) 1_555 1_555
O2 O3 2.27(3) 1_555 1_555
O2 C2 2.482(17) 1_555 1_555
O2 O1 2.611(18) 1_555 10_554
O2 O3 2.73(3) 1_555 10_554
O2 O3 2.78(3) 1_555 5_665
O2 C3 2.778(16) 1_555 1_555
O2 O1 2.781(19) 1_555 1_555
O3 C1 1.27(3) 1_555 1_555
O3 Ga1 1.959(16) 1_555 5_665
O3 O2 2.27(3) 1_555 1_555
O3 C2 2.295(17) 1_555 1_555
O3 O1 2.695(18) 1_555 10_555
O3 O2 2.73(3) 1_555 10_555
O3 O1 2.73(2) 1_555 1_555
O3 O2 2.78(3) 1_555 5_665
O3 C4 3.001(17) 1_555 1_555
O3 C5 3.032(18) 1_555 1_555
C1 O2 1.26(3) 1_555 1_555
C1 O3 1.27(3) 1_555 1_555
C1 C2 1.555(15) 1_555 1_555
C1 C3 2.388(18) 1_555 1_555
C1 C4 2.74(2) 1_555 1_555
C1 Ga1 2.90(2) 1_555 1_555
C1 Ga1 2.98(2) 1_555 5_665
C1 O1 3.027(18) 1_555 1_555
C2 C3 1.40486 1_555 1_555
C2 C4 1.42568 1_555 1_555
C2 C1 1.555(15) 1_555 1_555
C2 O3 2.295(17) 1_555 1_555
C2 C3 2.45328 1_555 13_555
C2 C4 2.47119 1_555 13_555
C2 C5 2.47624 1_555 1_555
C2 O2 2.482(17) 1_555 1_555
C2 C2 2.85818 1_555 13_555
C3 C2 1.40486 1_555 1_555
C3 C3 1.41522 1_555 13_555
C3 C1 2.388(18) 1_555 1_555
C3 C4 2.43632 1_555 1_555
C3 C2 2.45328 1_555 13_555
C3 O2 2.778(16) 1_555 1_555
C3 C4 2.82011 1_555 13_555
C4 C5 1.41498 1_555 1_555
C4 C4 1.42546 1_555 13_555
C4 C2 1.42568 1_555 1_555
C4 C3 2.43632 1_555 1_555
C4 C5 2.44085 1_555 13_555
C4 C6 2.44541 1_555 1_555
C4 C2 2.47119 1_555 13_555
C4 C1 2.74(2) 1_555 1_555
C4 C6 2.81362 1_555 13_555
C4 C3 2.82011 1_555 13_555
C4 O3 3.001(17) 1_555 1_555
C5 C6 1.39476 1_555 1_555
C5 C4 1.41498 1_555 1_555
C5 C6 2.39061 1_555 13_555
C5 C4 2.44085 1_555 13_555
C5 C2 2.47624 1_555 1_555
C5 C5 2.77495 1_555 13_555
C5 O3 3.032(18) 1_555 1_555
C6 C6 1.35845 1_555 13_555
C6 C5 1.39476 1_555 1_555
C6 C5 2.39061 1_555 13_555
C6 C4 2.44541 1_555 1_555
C6 C4 2.81362 1_555 13_555
Ow1 Ow1 2.53(3) 1_555 12_455
Ow1 Ow1 2.82(3) 1_555 13_565
loop_
_pd_proc_point_id
_pd_meas_2theta_scan
_pd_proc_intensity_total
_pd_calc_intensity_total
_pd_proc_ls_weight
1 3.00000 2544.85571 2566.00000 0.00039
2 3.01500 2544.59035 2603.00000 0.00038
3 3.03000 2544.30071 2519.00000 0.00040
4 3.04500 2543.98752 2621.00000 0.00038
5 3.06000 2543.65151 2554.00000 0.00039
6 3.07500 2543.29337 2679.00000 0.00037
7 3.09000 2542.91382 2695.00000 0.00037
8 3.10500 2542.51352 2616.00000 0.00038
9 3.12000 2542.09314 2534.00000 0.00039
10 3.13500 2541.65335 2578.00000 0.00039
11 3.15000 2541.19478 2578.00000 0.00039
12 3.16500 2540.71806 2603.00000 0.00038
13 3.18000 2540.22382 2521.00000 0.00040
14 3.19500 2539.71265 2539.00000 0.00039
15 3.21000 2539.18515 2548.00000 0.00039
16 3.22500 2538.64191 2594.00000 0.00039
17 3.24000 2538.08350 2622.00000 0.00038
18 3.25500 2537.51046 2572.00000 0.00039
19 3.27000 2536.92336 2501.00000 0.00040
20 3.28500 2536.32273 2624.00000 0.00038
21 3.30000 2535.70909 2567.00000 0.00039
22 3.31500 2535.08297 2526.00000 0.00040
23 3.33000 2534.44485 2569.00000 0.00039
24 3.34500 2533.79524 2557.00000 0.00039
25 3.36000 2533.13462 2508.00000 0.00040
26 3.37500 2532.46347 2508.00000 0.00040
27 3.39000 2531.78223 2498.00000 0.00040
28 3.40500 2531.09138 2597.00000 0.00039
29 3.42000 2530.39135 2522.00000 0.00040
30 3.43500 2529.68257 2601.00000 0.00038
31 3.45000 2528.96546 2512.00000 0.00040
32 3.46500 2528.24045 2482.00000 0.00040
33 3.48000 2527.50793 2469.00000 0.00041
34 3.49500 2526.76831 2442.00000 0.00041
35 3.51000 2526.02196 2469.00000 0.00041
36 3.52500 2525.26926 2411.00000 0.00041
37 3.54000 2524.51058 2435.00000 0.00041
38 3.55500 2523.74629 2563.00000 0.00039
39 3.57000 2522.97673 2468.00000 0.00041
40 3.58500 2522.20225 2466.00000 0.00041
41 3.60000 2521.42318 2470.00000 0.00040
42 3.61500 2520.63984 2463.00000 0.00041
43 3.63000 2519.85256 2414.00000 0.00041
44 3.64500 2519.06164 2537.00000 0.00039
45 3.66000 2518.26739 2501.00000 0.00040
46 3.67500 2517.47011 2502.00000 0.00040
47 3.69000 2516.67007 2549.00000 0.00039
48 3.70500 2515.86756 2530.00000 0.00040
49 3.72000 2515.06285 2488.00000 0.00040
50 3.73500 2514.25621 2564.00000 0.00039
51 3.75000 2513.44789 2405.00000 0.00042
52 3.76500 2512.63815 2493.00000 0.00040
53 3.78000 2511.82722 2471.00000 0.00040
54 3.79500 2511.01535 2440.00000 0.00041
55 3.81000 2510.20277 2476.00000 0.00040
56 3.82500 2509.38969 2532.00000 0.00039
57 3.84000 2508.57635 2529.00000 0.00040
58 3.85500 2507.76294 2487.00000 0.00040
59 3.87000 2506.94967 2434.00000 0.00041
60 3.88500 2506.13674 2573.00000 0.00039
61 3.90000 2505.32435 2434.00000 0.00041
62 3.91500 2504.51268 2457.00000 0.00041
63 3.93000 2503.70191 2451.00000 0.00041
64 3.94500 2502.89221 2485.00000 0.00040
65 3.96000 2502.08377 2449.00000 0.00041
66 3.97500 2501.27672 2436.00000 0.00041
67 3.99000 2500.47125 2452.00000 0.00041
68 4.00500 2499.66750 2501.00000 0.00040
69 4.02000 2498.86561 2424.00000 0.00041
70 4.03500 2498.06574 2482.00000 0.00040
71 4.05000 2497.26802 2476.00000 0.00040
72 4.06500 2496.47257 2433.00000 0.00041
73 4.08000 2495.67954 2449.00000 0.00041
74 4.09500 2494.88904 2459.00000 0.00041
75 4.11000 2494.10119 2360.00000 0.00042
76 4.12500 2493.31611 2467.00000 0.00041
77 4.14000 2492.53391 2387.00000 0.00042
78 4.15500 2491.75468 2492.00000 0.00040
79 4.17000 2490.97854 2436.00000 0.00041
80 4.18500 2490.20558 2474.00000 0.00040
81 4.20000 2489.43589 2488.00000 0.00040
82 4.21500 2488.66956 2440.00000 0.00041
83 4.23000 2487.90669 2431.00000 0.00041
84 4.24500 2487.14734 2512.00000 0.00040
85 4.26000 2486.39160 2442.00000 0.00041
86 4.27500 2485.63955 2459.00000 0.00041
87 4.29000 2484.89125 2590.00000 0.00039
88 4.30500 2484.14678 2539.00000 0.00039
89 4.32000 2483.40620 2402.00000 0.00042
90 4.33500 2482.66957 2455.00000 0.00041
91 4.35000 2481.93696 2489.00000 0.00040
92 4.36500 2481.20841 2492.00000 0.00040
93 4.38000 2480.48400 2403.00000 0.00042
94 4.39500 2479.76376 2467.00000 0.00041
95 4.41000 2479.04776 2499.00000 0.00040
96 4.42500 2478.33604 2485.00000 0.00040
97 4.44000 2477.62887 2471.00000 0.00040
98 4.45500 2476.92658 2508.00000 0.00040
99 4.47000 2476.22923 2436.00000 0.00041
100 4.48500 2475.53690 2570.00000 0.00039
101 4.50000 2474.84966 2511.00000 0.00040
102 4.51500 2474.16758 2508.00000 0.00040
103 4.53000 2473.49075 2483.00000 0.00040
104 4.54500 2472.81923 2508.00000 0.00040
105 4.56000 2472.15313 2439.00000 0.00041
106 4.57500 2471.49252 2452.00000 0.00041
107 4.59000 2470.83750 2403.00000 0.00042
108 4.60500 2470.18818 2568.00000 0.00039
109 4.62000 2469.54466 2441.00000 0.00041
110 4.63500 2468.90706 2506.00000 0.00040
111 4.65000 2468.27551 2480.00000 0.00040
112 4.66500 2467.65017 2470.00000 0.00040
113 4.68000 2467.03119 2409.00000 0.00042
114 4.69500 2466.41874 2443.00000 0.00041
115 4.71000 2465.81305 2449.00000 0.00041
116 4.72500 2465.21433 2448.00000 0.00041
117 4.74000 2464.62285 2444.00000 0.00041
118 4.75500 2464.03893 2450.00000 0.00041
119 4.77000 2463.46291 2465.00000 0.00041
120 4.78500 2462.89522 2466.00000 0.00041
121 4.80000 2462.33635 2432.00000 0.00041
122 4.81500 2461.78692 2453.00000 0.00041
123 4.83000 2461.24764 2389.00000 0.00042
124 4.84500 2460.71942 2521.00000 0.00040
125 4.86000 2460.20341 2434.00000 0.00041
126 4.87500 2459.70106 2523.00000 0.00040
127 4.89000 2459.21434 2511.00000 0.00040
128 4.90500 2458.74597 2522.00000 0.00040
129 4.92000 2458.30023 2457.00000 0.00041
130 4.93500 2457.88515 2507.00000 0.00040
131 4.95000 2457.51956 2500.00000 0.00040
132 4.96500 2457.25439 2540.00000 0.00039
133 4.98000 2457.30017 2420.00000 0.00041
134 4.99500 2457.37878 2470.00000 0.00040
135 5.01000 2457.86230 2510.00000 0.00040
136 5.02500 2459.05830 2561.00000 0.00039
137 5.04000 2461.11389 2505.00000 0.00040
138 5.05500 2464.01632 2534.00000 0.00039
139 5.07000 2467.61343 2505.00000 0.00040
140 5.08500 2471.70817 2597.00000 0.00039
141 5.10000 2476.14151 2513.00000 0.00040
142 5.11500 2480.82136 2563.00000 0.00039
143 5.13000 2485.70962 2491.00000 0.00040
144 5.14500 2490.79796 2510.00000 0.00040
145 5.16000 2496.09068 2499.00000 0.00040
146 5.17500 2501.59680 2560.00000 0.00039
147 5.19000 2507.32745 2501.00000 0.00040
148 5.20500 2513.29519 2570.00000 0.00039
149 5.22000 2519.51398 2546.00000 0.00039
150 5.23500 2525.99919 2630.00000 0.00038
151 5.25000 2532.76778 2549.00000 0.00039
152 5.26500 2539.83844 2549.00000 0.00039
153 5.28000 2547.23174 2527.00000 0.00040
154 5.29500 2554.97045 2569.00000 0.00039
155 5.31000 2563.07973 2591.00000 0.00039
156 5.32500 2571.58752 2601.00000 0.00038
157 5.34000 2580.52486 2580.00000 0.00039
158 5.35500 2589.92642 2667.00000 0.00037
159 5.37000 2599.83098 2644.00000 0.00038
160 5.38500 2610.28215 2674.00000 0.00037
161 5.40000 2621.32906 2625.00000 0.00038
162 5.41500 2633.02739 2633.00000 0.00038
163 5.43000 2645.44051 2613.00000 0.00038
164 5.44500 2658.64085 2713.00000 0.00037
165 5.46000 2672.71172 2673.00000 0.00037
166 5.47500 2687.74946 2734.00000 0.00037
167 5.49000 2703.86622 2815.00000 0.00036
168 5.50500 2721.19352 2770.00000 0.00036
169 5.52000 2739.88675 2736.00000 0.00037
170 5.53500 2760.13116 2817.00000 0.00035
171 5.55000 2782.14978 2833.00000 0.00035
172 5.56500 2806.21409 2894.00000 0.00035
173 5.58000 2832.65877 2854.00000 0.00035
174 5.59500 2861.90247 2878.00000 0.00035
175 5.61000 2894.47792 2980.00000 0.00034
176 5.62500 2931.07712 3136.00000 0.00032
177 5.64000 2972.62221 3111.00000 0.00032
178 5.65500 3020.38384 3168.00000 0.00032
179 5.67000 3076.19711 3043.00000 0.00033
180 5.68500 3142.89601 3415.00000 0.00029
181 5.70000 3225.21666 3397.00000 0.00029
182 5.71500 3331.41494 3498.00000 0.00029
183 5.73000 3474.80927 3613.00000 0.00028
184 5.74500 3671.03610 3815.00000 0.00026
185 5.76000 3923.06898 3967.00000 0.00025
186 5.77500 4192.74174 4121.00000 0.00024
187 5.79000 4382.38233 4177.00000 0.00024
188 5.80500 4367.03246 4144.00000 0.00024
189 5.82000 4085.54905 3752.00000 0.00027
190 5.83500 3621.67622 3709.00000 0.00027
191 5.85000 3149.36379 3278.00000 0.00031
192 5.86500 2796.92698 2892.00000 0.00035
193 5.88000 2592.84575 2699.00000 0.00037
194 5.89500 2498.04094 2566.00000 0.00039
195 5.91000 2460.87856 2540.00000 0.00039
196 5.92500 2447.04221 2457.00000 0.00041
197 5.94000 2440.95165 2447.00000 0.00041
198 5.95500 2437.28543 2497.00000 0.00040
199 5.97000 2434.54678 2462.00000 0.00041
200 5.98500 2432.31643 2441.00000 0.00041
201 6.00000 2430.43410 2414.00000 0.00041
202 6.01500 2428.80935 2408.00000 0.00042
203 6.03000 2427.38094 2345.00000 0.00043
204 6.04500 2426.10493 2479.00000 0.00040
205 6.06000 2424.94903 2382.00000 0.00042
206 6.07500 2423.88905 2461.00000 0.00041
207 6.09000 2422.90655 2437.00000 0.00041
208 6.10500 2421.98730 2466.00000 0.00041
209 6.12000 2421.12015 2373.00000 0.00042
210 6.13500 2420.29626 2442.00000 0.00041
211 6.15000 2419.50856 2367.00000 0.00042
212 6.16500 2418.75133 2411.00000 0.00041
213 6.18000 2418.01990 2367.00000 0.00042
214 6.19500 2417.31041 2347.00000 0.00043
215 6.21000 2416.61968 2408.00000 0.00042
216 6.22500 2415.94505 2433.00000 0.00041
217 6.24000 2415.28426 2407.00000 0.00042
218 6.25500 2414.63544 2448.00000 0.00041
219 6.27000 2413.99697 2338.00000 0.00043
220 6.28500 2413.36747 2513.00000 0.00040
221 6.30000 2412.74576 2396.00000 0.00042
222 6.31500 2412.13083 2443.00000 0.00041
223 6.33000 2411.52179 2444.00000 0.00041
224 6.34500 2410.91787 2390.00000 0.00042
225 6.36000 2410.31843 2342.00000 0.00043
226 6.37500 2409.72286 2371.00000 0.00042
227 6.39000 2409.13068 2388.00000 0.00042
228 6.40500 2408.54144 2445.00000 0.00041
229 6.42000 2407.95476 2351.00000 0.00043
230 6.43500 2407.37029 2417.00000 0.00041
231 6.45000 2406.78774 2422.00000 0.00041
232 6.46500 2406.20686 2368.00000 0.00042
233 6.48000 2405.62743 2367.00000 0.00042
234 6.49500 2405.04926 2355.00000 0.00042
235 6.51000 2404.47218 2335.00000 0.00043
236 6.52500 2403.89606 2351.00000 0.00043
237 6.54000 2403.32079 2377.00000 0.00042
238 6.55500 2402.74627 2409.00000 0.00042
239 6.57000 2402.17244 2365.00000 0.00042
240 6.58500 2401.59924 2421.00000 0.00041
241 6.60000 2401.02664 2387.00000 0.00042
242 6.61500 2400.45462 2351.00000 0.00043
243 6.63000 2399.88319 2287.00000 0.00044
244 6.64500 2399.31235 2421.00000 0.00041
245 6.66000 2398.74215 2367.00000 0.00042
246 6.67500 2398.17263 2391.00000 0.00042
247 6.69000 2397.60385 2434.00000 0.00041
248 6.70500 2397.03590 2397.00000 0.00042
249 6.72000 2396.46887 2353.00000 0.00042
250 6.73500 2395.90287 2402.00000 0.00042
251 6.75000 2395.33804 2420.00000 0.00041
252 6.76500 2394.77451 2392.00000 0.00042
253 6.78000 2394.21244 2387.00000 0.00042
254 6.79500 2393.65203 2299.00000 0.00043
255 6.81000 2393.09347 2397.00000 0.00042
256 6.82500 2392.53697 2424.00000 0.00041
257 6.84000 2391.98279 2403.00000 0.00042
258 6.85500 2391.43118 2403.00000 0.00042
259 6.87000 2390.88243 2374.00000 0.00042
260 6.88500 2390.33684 2481.00000 0.00040
261 6.90000 2389.79477 2350.00000 0.00043
262 6.91500 2389.25657 2383.00000 0.00042
263 6.93000 2388.72263 2412.00000 0.00041
264 6.94500 2388.19340 2412.00000 0.00041
265 6.96000 2387.66932 2327.00000 0.00043
266 6.97500 2387.15091 2360.00000 0.00042
267 6.99000 2386.63870 2341.00000 0.00043
268 7.00500 2386.13329 2416.00000 0.00041
269 7.02000 2385.63529 2365.00000 0.00042
270 7.03500 2385.14541 2424.00000 0.00041
271 7.05000 2384.66438 2365.00000 0.00042
272 7.06500 2384.19301 2353.00000 0.00042
273 7.08000 2383.73218 2378.00000 0.00042
274 7.09500 2383.28282 2319.00000 0.00043
275 7.11000 2382.84597 2336.00000 0.00043
276 7.12500 2382.42274 2350.00000 0.00043
277 7.14000 2382.01437 2353.00000 0.00042
278 7.15500 2381.62217 2415.00000 0.00041
279 7.17000 2381.24760 2380.00000 0.00042
280 7.18500 2380.89225 2394.00000 0.00042
281 7.20000 2380.55785 2333.00000 0.00043
282 7.21500 2380.24632 2303.00000 0.00043
283 7.23000 2379.95975 2228.00000 0.00045
284 7.24500 2379.70046 2459.00000 0.00041
285 7.26000 2379.47102 2334.00000 0.00043
286 7.27500 2379.27424 2367.00000 0.00042
287 7.29000 2379.11327 2416.00000 0.00041
288 7.30500 2378.99162 2437.00000 0.00041
289 7.32000 2378.91318 2344.00000 0.00043
290 7.33500 2378.88236 2386.00000 0.00042
291 7.35000 2378.90407 2330.00000 0.00043
292 7.36500 2378.98389 2424.00000 0.00041
293 7.38000 2379.12811 2314.00000 0.00043
294 7.39500 2379.34395 2348.00000 0.00043
295 7.41000 2379.63964 2403.00000 0.00042
296 7.42500 2380.02468 2419.00000 0.00041
297 7.44000 2380.51007 2355.00000 0.00042
298 7.45500 2381.10869 2455.00000 0.00041
299 7.47000 2381.83567 2336.00000 0.00043
300 7.48500 2382.70900 2526.00000 0.00040
301 7.50000 2383.75028 2425.00000 0.00041
302 7.51500 2384.98574 2482.00000 0.00040
303 7.53000 2386.44773 2487.00000 0.00040
304 7.54500 2388.17696 2594.00000 0.00039
305 7.56000 2390.22744 2519.00000 0.00040
306 7.57500 2392.68134 2573.00000 0.00039
307 7.59000 2395.70267 2580.00000 0.00039
308 7.60500 2399.71034 2673.00000 0.00037
309 7.62000 2405.82574 2732.00000 0.00037
310 7.63500 2416.73097 2803.00000 0.00036
311 7.65000 2437.74174 2824.00000 0.00035
312 7.66500 2477.24410 2810.00000 0.00036
313 7.68000 2545.31781 2894.00000 0.00035
314 7.69500 2650.25961 3040.00000 0.00033
315 7.71000 2794.79730 3110.00000 0.00032
316 7.72500 2975.22956 3234.00000 0.00031
317 7.74000 3184.27829 3338.00000 0.00030
318 7.75500 3414.85589 3642.00000 0.00027
319 7.77000 3662.26218 3615.00000 0.00028
320 7.78500 3924.41090 3854.00000 0.00026
321 7.80000 4201.02638 4007.00000 0.00025
322 7.81500 4492.80032 4237.00000 0.00024
323 7.83000 4800.89905 4449.00000 0.00022
324 7.84500 5126.77153 4889.00000 0.00020
325 7.86000 5472.10966 5039.00000 0.00020
326 7.87500 5838.86790 5442.00000 0.00018
327 7.89000 6229.30639 5883.00000 0.00017
328 7.90500 6646.04985 6137.00000 0.00016
329 7.92000 7092.16375 6389.00000 0.00016
330 7.93500 7571.25228 6855.00000 0.00015
331 7.95000 8087.58571 7200.00000 0.00014
332 7.96500 8646.26803 7951.00000 0.00013
333 7.98000 9253.46074 8399.00000 0.00012
334 7.99500 9916.68687 9003.00000 0.00011
335 8.01000 10645.25292 9885.00000 0.00010
336 8.02500 11450.84843 10733.00000 0.00009
337 8.04000 12348.42449 11649.00000 0.00009
338 8.05500 13357.53031 12722.00000 0.00008
339 8.07000 14504.45605 13422.00000 0.00007
340 8.08500 15825.92954 15552.00000 0.00006
341 8.10000 17376.11777 16596.00000 0.00006
342 8.11500 19240.84673 18868.00000 0.00005
343 8.13000 21565.29451 21248.00000 0.00005
344 8.14500 24594.70474 24258.00000 0.00004
345 8.16000 28687.32545 27486.00000 0.00004
346 8.17500 34173.52024 33520.00000 0.00003
347 8.19000 40907.58696 40120.00000 0.00002
348 8.20500 47626.78792 49907.00000 0.00002
349 8.22000 51773.53782 50000.00000 0.00002
350 8.23500 50538.97984 45022.00000 0.00002
351 8.25000 42990.47300 39550.00000 0.00003
352 8.26500 31506.00540 33991.00000 0.00003
353 8.28000 20114.88134 20945.00000 0.00005
354 8.29500 11622.97654 10029.00000 0.00010
355 8.31000 6622.63674 5420.00000 0.00018
356 8.32500 4228.76878 3971.00000 0.00025
357 8.34000 3257.99539 3340.00000 0.00030
358 8.35500 2892.39493 3095.00000 0.00032
359 8.37000 2739.15477 2860.00000 0.00035
360 8.38500 2654.67218 2817.00000 0.00035
361 8.40000 2595.82808 2692.00000 0.00037
362 8.41500 2550.29652 2628.00000 0.00038
363 8.43000 2513.65284 2503.00000 0.00040
364 8.44500 2483.56175 2557.00000 0.00039
365 8.46000 2458.47545 2470.00000 0.00040
366 8.47500 2437.28638 2486.00000 0.00040
367 8.49000 2419.17865 2533.00000 0.00039
368 8.50500 2403.53987 2430.00000 0.00041
369 8.52000 2389.90303 2323.00000 0.00043
370 8.53500 2377.90693 2436.00000 0.00041
371 8.55000 2367.26859 2386.00000 0.00042
372 8.56500 2357.76372 2363.00000 0.00042
373 8.58000 2349.21265 2324.00000 0.00043
374 8.59500 2341.47008 2327.00000 0.00043
375 8.61000 2334.41742 2351.00000 0.00043
376 8.62500 2327.95712 2353.00000 0.00042
377 8.64000 2322.00829 2332.00000 0.00043
378 8.65500 2316.50343 2349.00000 0.00043
379 8.67000 2311.38582 2300.00000 0.00043
380 8.68500 2306.60751 2386.00000 0.00042
381 8.70000 2302.12774 2289.00000 0.00044
382 8.71500 2297.91169 2320.00000 0.00043
383 8.73000 2293.92945 2304.00000 0.00043
384 8.74500 2290.15521 2343.00000 0.00043
385 8.76000 2286.56662 2282.00000 0.00044
386 8.77500 2283.14423 2278.00000 0.00044
387 8.79000 2279.87104 2217.00000 0.00045
388 8.80500 2276.73215 2320.00000 0.00043
389 8.82000 2273.71447 2244.00000 0.00045
390 8.83500 2270.80642 2334.00000 0.00043
391 8.85000 2267.99775 2270.00000 0.00044
392 8.86500 2265.27935 2267.00000 0.00044
393 8.88000 2262.64309 2191.00000 0.00046
394 8.89500 2260.08167 2255.00000 0.00044
395 8.91000 2257.58853 2251.00000 0.00044
396 8.92500 2255.15760 2235.00000 0.00045
397 8.94000 2252.78307 2189.00000 0.00046
398 8.95500 2250.45664 2305.00000 0.00043
399 8.97000 2248.18295 2204.00000 0.00045
400 8.98500 2245.96092 2220.00000 0.00045
401 9.00000 2243.78044 2252.00000 0.00044
402 9.01500 2241.63837 2174.00000 0.00046
403 9.03000 2239.53185 2178.00000 0.00046
404 9.04500 2237.45827 2272.00000 0.00044
405 9.06000 2235.41527 2211.00000 0.00045
406 9.07500 2233.40068 2262.00000 0.00044
407 9.09000 2231.41250 2236.00000 0.00045
408 9.10500 2229.44892 2259.00000 0.00044
409 9.12000 2227.50828 2179.00000 0.00046
410 9.13500 2225.58904 2245.00000 0.00045
411 9.15000 2223.68979 2177.00000 0.00046
412 9.16500 2221.80924 2225.00000 0.00045
413 9.18000 2219.94620 2210.00000 0.00045
414 9.19500 2218.09957 2128.00000 0.00047
415 9.21000 2216.26832 2240.00000 0.00045
416 9.22500 2214.45154 2262.00000 0.00044
417 9.24000 2212.64838 2272.00000 0.00044
418 9.25500 2210.85806 2254.00000 0.00044
419 9.27000 2209.07983 2182.00000 0.00046
420 9.28500 2207.31301 2327.00000 0.00043
421 9.30000 2205.55697 2168.00000 0.00046
422 9.31500 2203.81111 2189.00000 0.00046
423 9.33000 2202.07490 2187.00000 0.00046
424 9.34500 2200.34784 2163.00000 0.00046
425 9.36000 2198.62944 2169.00000 0.00046
426 9.37500 2196.91930 2232.00000 0.00045
427 9.39000 2195.21701 2167.00000 0.00046
428 9.40500 2193.52220 2234.00000 0.00045
429 9.42000 2191.83454 2165.00000 0.00046
430 9.43500 2190.15374 2242.00000 0.00045
431 9.45000 2188.47951 2161.00000 0.00046
432 9.46500 2186.81161 2134.00000 0.00047
433 9.48000 2185.14986 2137.00000 0.00047
434 9.49500 2183.49410 2144.00000 0.00047
435 9.51000 2181.84425 2163.00000 0.00046
436 9.52500 2180.20038 2118.00000 0.00047
437 9.54000 2178.56293 2161.00000 0.00046
438 9.55500 2176.93412 2178.00000 0.00046
439 9.57000 2175.31376 2166.00000 0.00046
440 9.58500 2173.68473 2141.00000 0.00047
441 9.60000 2172.05995 2132.00000 0.00047
442 9.61500 2170.43928 2155.00000 0.00046
443 9.63000 2168.82259 2100.00000 0.00048
444 9.64500 2167.20976 2181.00000 0.00046
445 9.66000 2165.60069 2120.00000 0.00047
446 9.67500 2163.99527 2237.00000 0.00045
447 9.69000 2162.39341 2185.00000 0.00046
448 9.70500 2160.79504 2200.00000 0.00045
449 9.72000 2159.20006 2141.00000 0.00047
450 9.73500 2157.60842 2198.00000 0.00045
451 9.75000 2156.02005 2107.00000 0.00047
452 9.76500 2154.43488 2174.00000 0.00046
453 9.78000 2152.85288 2119.00000 0.00047
454 9.79500 2151.27399 2094.00000 0.00048
455 9.81000 2149.69816 2140.00000 0.00047
456 9.82500 2148.12537 2192.00000 0.00046
457 9.84000 2146.55558 2140.00000 0.00047
458 9.85500 2144.98876 2138.00000 0.00047
459 9.87000 2143.42489 2083.00000 0.00048
460 9.88500 2141.86395 2185.00000 0.00046
461 9.90000 2140.30593 2159.00000 0.00046
462 9.91500 2138.75081 2104.00000 0.00048
463 9.93000 2137.19860 2136.00000 0.00047
464 9.94500 2135.64929 2131.00000 0.00047
465 9.96000 2134.10288 2046.00000 0.00049
466 9.97500 2132.55937 2122.00000 0.00047
467 9.99000 2131.01877 2101.00000 0.00048
468 10.00500 2129.48110 2199.00000 0.00045
469 10.02000 2127.94635 2084.00000 0.00048
470 10.03500 2126.41455 2166.00000 0.00046
471 10.05000 2124.88571 2144.00000 0.00047
472 10.06500 2123.35985 2122.00000 0.00047
473 10.08000 2121.83701 2040.00000 0.00049
474 10.09500 2120.31720 2063.00000 0.00048
475 10.11000 2118.80046 2054.00000 0.00049
476 10.12500 2117.28683 2063.00000 0.00048
477 10.14000 2115.77635 2053.00000 0.00049
478 10.15500 2114.26907 2121.00000 0.00047
479 10.17000 2112.76505 2087.00000 0.00048
480 10.18500 2111.26439 2088.00000 0.00048
481 10.20000 2109.76720 2032.00000 0.00049
482 10.21500 2108.27377 2062.00000 0.00048
483 10.23000 2106.78570 2039.00000 0.00049
484 10.24500 2105.29849 2104.00000 0.00048
485 10.26000 2103.81362 2070.00000 0.00048
486 10.27500 2102.33220 2121.00000 0.00047
487 10.29000 2100.85429 2131.00000 0.00047
488 10.30500 2099.37994 2111.00000 0.00047
489 10.32000 2097.90922 2032.00000 0.00049
490 10.33500 2096.44218 2105.00000 0.00048
491 10.35000 2094.97889 2043.00000 0.00049
492 10.36500 2093.51942 2060.00000 0.00049
493 10.38000 2092.06384 2071.00000 0.00048
494 10.39500 2090.61222 2007.00000 0.00050
495 10.41000 2089.16465 2112.00000 0.00047
496 10.42500 2087.72121 2101.00000 0.00048
497 10.44000 2086.28198 2100.00000 0.00048
498 10.45500 2084.84705 2085.00000 0.00048
499 10.47000 2083.41653 1996.00000 0.00050
500 10.48500 2081.99050 2143.00000 0.00047
501 10.50000 2080.56908 2066.00000 0.00048
502 10.51500 2079.15238 2071.00000 0.00048
503 10.53000 2077.74051 2075.00000 0.00048
504 10.54500 2076.33360 2030.00000 0.00049
505 10.56000 2074.93178 2018.00000 0.00050
506 10.57500 2073.53519 2059.00000 0.00049
507 10.59000 2072.14399 2023.00000 0.00049
508 10.60500 2070.75831 2095.00000 0.00048
509 10.62000 2069.37834 2063.00000 0.00048
510 10.63500 2068.00425 2108.00000 0.00047
511 10.65000 2066.63624 2082.00000 0.00048
512 10.66500 2065.27450 2010.00000 0.00050
513 10.68000 2063.91926 1990.00000 0.00050
514 10.69500 2062.57075 1982.00000 0.00050
515 10.71000 2061.22923 2008.00000 0.00050
516 10.72500 2059.89496 2007.00000 0.00050
517 10.74000 2058.56825 2006.00000 0.00050
518 10.75500 2057.24941 2056.00000 0.00049
519 10.77000 2055.93880 2027.00000 0.00049
520 10.78500 2054.63679 2020.00000 0.00050
521 10.80000 2053.34380 2002.00000 0.00050
522 10.81500 2052.06028 1995.00000 0.00050
523 10.83000 2050.78673 1952.00000 0.00051
524 10.84500 2049.52369 2039.00000 0.00049
525 10.86000 2048.27178 2010.00000 0.00050
526 10.87500 2047.03166 2048.00000 0.00049
527 10.89000 2045.80408 2081.00000 0.00048
528 10.90500 2044.58987 2044.00000 0.00049
529 10.92000 2043.38996 2005.00000 0.00050
530 10.93500 2042.20538 2034.00000 0.00049
531 10.95000 2041.03732 2013.00000 0.00050
532 10.96500 2039.88698 2016.00000 0.00050
533 10.98000 2038.75553 1981.00000 0.00050
534 10.99500 2037.64467 1950.00000 0.00051
535 11.01000 2036.55637 2041.00000 0.00049
536 11.02500 2035.49291 1981.00000 0.00050
537 11.04000 2034.45695 2032.00000 0.00049
538 11.05500 2033.45157 2061.00000 0.00049
539 11.07000 2032.48046 1929.00000 0.00052
540 11.08500 2031.54796 2075.00000 0.00048
541 11.10000 2030.65933 2006.00000 0.00050
542 11.11500 2029.82090 2044.00000 0.00049
543 11.13000 2029.04051 2041.00000 0.00049
544 11.14500 2028.32799 2082.00000 0.00048
545 11.16000 2027.69633 1991.00000 0.00050
546 11.17500 2027.16504 2040.00000 0.00049
547 11.19000 2026.77159 2027.00000 0.00049
548 11.20500 2026.60573 2109.00000 0.00047
549 11.22000 2026.89515 2110.00000 0.00047
550 11.23500 2028.16855 2152.00000 0.00046
551 11.25000 2031.47142 2097.00000 0.00048
552 11.26500 2038.50062 2115.00000 0.00047
553 11.28000 2051.44614 2123.00000 0.00047
554 11.29500 2072.42684 2149.00000 0.00047
555 11.31000 2102.71697 2176.00000 0.00046
556 11.32500 2142.30635 2146.00000 0.00047
557 11.34000 2190.19063 2213.00000 0.00045
558 11.35500 2245.09078 2354.00000 0.00042
559 11.37000 2306.06232 2317.00000 0.00043
560 11.38500 2372.74763 2459.00000 0.00041
561 11.40000 2445.33497 2477.00000 0.00040
562 11.41500 2524.41606 2569.00000 0.00039
563 11.43000 2610.88173 2580.00000 0.00039
564 11.44500 2705.89640 2795.00000 0.00036
565 11.46000 2810.94029 2866.00000 0.00035
566 11.47500 2927.90690 3107.00000 0.00032
567 11.49000 3059.26079 3239.00000 0.00031
568 11.50500 3208.25025 3514.00000 0.00028
569 11.52000 3379.66493 3577.00000 0.00028
570 11.53500 3580.47168 3954.00000 0.00025
571 11.55000 3821.18211 4192.00000 0.00024
572 11.56500 4119.59743 4649.00000 0.00022
573 11.58000 4505.00875 4915.00000 0.00020
574 11.59500 5019.38921 5551.00000 0.00018
575 11.61000 5702.94955 6484.00000 0.00015
576 11.62500 6549.10089 7303.00000 0.00014
577 11.64000 7437.15033 8418.00000 0.00012
578 11.65500 8100.52546 8765.00000 0.00011
579 11.67000 8207.13149 8174.00000 0.00012
580 11.68500 7561.53765 8008.00000 0.00012
581 11.70000 6307.08648 6889.00000 0.00015
582 11.71500 4868.05432 5778.00000 0.00017
583 11.73000 3645.39454 4320.00000 0.00023
584 11.74500 2821.25955 3214.00000 0.00031
585 11.76000 2367.02878 2702.00000 0.00037
586 11.77500 2156.69140 2412.00000 0.00041
587 11.79000 2070.69860 2258.00000 0.00044
588 11.80500 2036.07585 2210.00000 0.00045
589 11.82000 2019.67921 2091.00000 0.00048
590 11.83500 2009.54479 2143.00000 0.00047
591 11.85000 2001.97978 2049.00000 0.00049
592 11.86500 1995.85070 2056.00000 0.00049
593 11.88000 1990.71299 1960.00000 0.00051
594 11.89500 1986.32013 1967.00000 0.00051
595 11.91000 1982.50488 1966.00000 0.00051
596 11.92500 1979.13851 1942.00000 0.00051
597 11.94000 1976.13556 1935.00000 0.00052
598 11.95500 1973.42726 1991.00000 0.00050
599 11.97000 1970.96067 1933.00000 0.00052
600 11.98500 1968.69454 1990.00000 0.00050
601 12.00000 1966.59632 1925.00000 0.00052
602 12.01500 1964.64005 1924.00000 0.00052
603 12.03000 1962.80485 1883.00000 0.00053
604 12.04500 1961.07374 1961.00000 0.00051
605 12.06000 1959.43283 1910.00000 0.00052
606 12.07500 1957.87065 1980.00000 0.00051
607 12.09000 1956.37769 1951.00000 0.00051
608 12.10500 1954.94598 1966.00000 0.00051
609 12.12000 1953.56885 1864.00000 0.00054
610 12.13500 1952.24065 1971.00000 0.00051
611 12.15000 1950.95659 1900.00000 0.00053
612 12.16500 1949.71271 1943.00000 0.00051
613 12.18000 1948.50554 1943.00000 0.00051
614 12.19500 1947.33213 1884.00000 0.00053
615 12.21000 1946.18992 1976.00000 0.00051
616 12.22500 1945.07676 1923.00000 0.00052
617 12.24000 1943.99079 1931.00000 0.00052
618 12.25500 1942.93042 1958.00000 0.00051
619 12.27000 1941.89432 1880.00000 0.00053
620 12.28500 1940.88138 1975.00000 0.00051
621 12.30000 1939.89067 1956.00000 0.00051
622 12.31500 1938.92146 1957.00000 0.00051
623 12.33000 1937.97322 1926.00000 0.00052
624 12.34500 1937.04557 1896.00000 0.00053
625 12.36000 1936.13837 1849.00000 0.00054
626 12.37500 1935.25172 1862.00000 0.00054
627 12.39000 1934.38617 1894.00000 0.00053
628 12.40500 1933.54324 1942.00000 0.00051
629 12.42000 1932.73158 1925.00000 0.00052
630 12.43500 1931.93183 1954.00000 0.00051
631 12.45000 1931.13939 1906.00000 0.00052
632 12.46500 1930.36836 1875.00000 0.00053
633 12.48000 1929.61975 1879.00000 0.00053
634 12.49500 1928.89486 1902.00000 0.00053
635 12.51000 1928.19530 1905.00000 0.00052
636 12.52500 1927.52312 1860.00000 0.00054
637 12.54000 1926.88087 1886.00000 0.00053
638 12.55500 1926.27175 1865.00000 0.00054
639 12.57000 1925.69983 1869.00000 0.00054
640 12.58500 1925.17047 1910.00000 0.00052
641 12.60000 1924.69145 1900.00000 0.00053
642 12.61500 1924.27671 1903.00000 0.00053
643 12.63000 1923.95759 1879.00000 0.00053
644 12.64500 1923.81169 1954.00000 0.00051
645 12.66000 1924.02296 1904.00000 0.00053
646 12.67500 1924.97205 1923.00000 0.00052
647 12.69000 1927.31817 1943.00000 0.00051
648 12.70500 1931.99074 1991.00000 0.00050
649 12.72000 1940.01686 1891.00000 0.00053
650 12.73500 1952.20685 2030.00000 0.00049
651 12.75000 1968.87163 1925.00000 0.00052
652 12.76500 1989.80445 1985.00000 0.00050
653 12.78000 2014.53498 1960.00000 0.00051
654 12.79500 2042.63891 1965.00000 0.00051
655 12.81000 2073.93302 2037.00000 0.00049
656 12.82500 2108.52459 2117.00000 0.00047
657 12.84000 2146.77913 2149.00000 0.00047
658 12.85500 2189.28493 2186.00000 0.00046
659 12.87000 2236.87128 2192.00000 0.00046
660 12.88500 2290.57436 2372.00000 0.00042
661 12.90000 2351.86691 2391.00000 0.00042
662 12.91500 2422.91660 2460.00000 0.00041
663 12.93000 2506.96254 2578.00000 0.00039
664 12.94500 2609.24669 2662.00000 0.00038
665 12.96000 2738.45494 2753.00000 0.00036
666 12.97500 2907.99522 3027.00000 0.00033
667 12.99000 3134.18551 3154.00000 0.00032
668 13.00500 3426.05662 3541.00000 0.00028
669 13.02000 3764.34173 3828.00000 0.00026
670 13.03500 4080.43655 4172.00000 0.00024
671 13.05000 4260.80804 4178.00000 0.00024
672 13.06500 4195.61489 3928.00000 0.00025
673 13.08000 3857.77331 3688.00000 0.00027
674 13.09500 3347.49432 3372.00000 0.00030
675 13.11000 2827.15145 2853.00000 0.00035
676 13.12500 2417.45881 2498.00000 0.00040
677 13.14000 2156.31076 2218.00000 0.00045
678 13.15500 2018.10552 2166.00000 0.00046
679 13.17000 1955.58562 2019.00000 0.00050
680 13.18500 1929.95756 2042.00000 0.00049
681 13.20000 1919.19468 1962.00000 0.00051
682 13.21500 1913.70910 1983.00000 0.00050
683 13.23000 1910.10986 1948.00000 0.00051
684 13.24500 1907.34394 2039.00000 0.00049
685 13.26000 1905.07352 1923.00000 0.00052
686 13.27500 1903.15683 2019.00000 0.00050
687 13.29000 1901.51170 2015.00000 0.00050
688 13.30500 1900.08204 2052.00000 0.00049
689 13.32000 1898.82764 1962.00000 0.00051
690 13.33500 1897.72006 2006.00000 0.00050
691 13.35000 1896.74192 1955.00000 0.00051
692 13.36500 1895.89097 1986.00000 0.00050
693 13.38000 1895.19199 1917.00000 0.00052
694 13.39500 1894.71748 1862.00000 0.00054
695 13.41000 1894.61026 1915.00000 0.00052
696 13.42500 1895.08956 1886.00000 0.00053
697 13.44000 1896.41942 1868.00000 0.00054
698 13.45500 1898.83627 1942.00000 0.00051
699 13.47000 1902.46786 1853.00000 0.00054
700 13.48500 1907.30403 1947.00000 0.00051
701 13.50000 1913.24447 1920.00000 0.00052
702 13.51500 1920.17971 1941.00000 0.00052
703 13.53000 1928.05398 1890.00000 0.00053
704 13.54500 1936.89116 1912.00000 0.00052
705 13.56000 1946.79420 1890.00000 0.00053
706 13.57500 1957.93899 1930.00000 0.00052
707 13.59000 1970.57851 1911.00000 0.00052
708 13.60500 1985.06645 2043.00000 0.00049
709 13.62000 2001.91121 1965.00000 0.00051
710 13.63500 2021.88560 2048.00000 0.00049
711 13.65000 2046.23725 2122.00000 0.00047
712 13.66500 2077.02459 2072.00000 0.00048
713 13.68000 2117.41301 2115.00000 0.00047
714 13.69500 2171.26402 2227.00000 0.00045
715 13.71000 2240.81491 2307.00000 0.00043
716 13.72500 2321.86889 2413.00000 0.00041
717 13.74000 2398.84586 2555.00000 0.00039
718 13.75500 2445.41337 2666.00000 0.00038
719 13.77000 2435.15780 2542.00000 0.00039
720 13.78500 2359.67965 2448.00000 0.00041
721 13.80000 2240.24771 2421.00000 0.00041
722 13.81500 2114.73823 2199.00000 0.00045
723 13.83000 2013.17691 1968.00000 0.00051
724 13.84500 1946.57528 1922.00000 0.00052
725 13.86000 1910.23591 1856.00000 0.00054
726 13.87500 1893.26343 1909.00000 0.00052
727 13.89000 1886.08653 1922.00000 0.00052
728 13.90500 1882.99496 1898.00000 0.00053
729 13.92000 1881.39040 1850.00000 0.00054
730 13.93500 1880.31696 1868.00000 0.00054
731 13.95000 1879.47018 1855.00000 0.00054
732 13.96500 1878.75349 1835.00000 0.00054
733 13.98000 1878.12847 1831.00000 0.00055
734 13.99500 1877.57374 1799.00000 0.00056
735 14.01000 1877.07482 1883.00000 0.00053
736 14.02500 1876.62113 1919.00000 0.00052
737 14.04000 1876.20474 1854.00000 0.00054
738 14.05500 1875.81957 1850.00000 0.00054
739 14.07000 1875.46094 1785.00000 0.00056
740 14.08500 1875.12514 1908.00000 0.00052
741 14.10000 1874.80926 1848.00000 0.00054
742 14.11500 1874.51096 1854.00000 0.00054
743 14.13000 1874.22833 1887.00000 0.00053
744 14.14500 1873.95981 1888.00000 0.00053
745 14.16000 1873.70411 1841.00000 0.00054
746 14.17500 1873.46017 1899.00000 0.00053
747 14.19000 1873.22709 1824.00000 0.00055
748 14.20500 1873.00411 1880.00000 0.00053
749 14.22000 1872.79060 1825.00000 0.00055
750 14.23500 1872.58600 1868.00000 0.00054
751 14.25000 1872.38986 1869.00000 0.00054
752 14.26500 1872.20179 1839.00000 0.00054
753 14.28000 1872.02145 1818.00000 0.00055
754 14.29500 1871.84859 1841.00000 0.00054
755 14.31000 1871.68302 1854.00000 0.00054
756 14.32500 1871.52474 1804.00000 0.00055
757 14.34000 1871.37514 1802.00000 0.00055
758 14.35500 1871.22946 1871.00000 0.00053
759 14.37000 1871.08891 1835.00000 0.00054
760 14.38500 1870.95444 1823.00000 0.00055
761 14.40000 1870.82590 1875.00000 0.00053
762 14.41500 1870.70318 1776.00000 0.00056
763 14.43000 1870.58618 1798.00000 0.00056
764 14.44500 1870.47479 1882.00000 0.00053
765 14.46000 1870.36895 1851.00000 0.00054
766 14.47500 1870.26857 1846.00000 0.00054
767 14.49000 1870.17358 1851.00000 0.00054
768 14.50500 1870.08394 1866.00000 0.00054
769 14.52000 1869.99980 1813.00000 0.00055
770 14.53500 1869.92129 1822.00000 0.00055
771 14.55000 1869.84842 1834.00000 0.00055
772 14.56500 1869.78124 1860.00000 0.00054
773 14.58000 1869.71982 1846.00000 0.00054
774 14.59500 1869.66421 1816.00000 0.00055
775 14.61000 1869.61453 1862.00000 0.00054
776 14.62500 1869.57091 1862.00000 0.00054
777 14.64000 1869.53352 1856.00000 0.00054
778 14.65500 1869.50263 1840.00000 0.00054
779 14.67000 1869.47861 1810.00000 0.00055
780 14.68500 1869.46201 1953.00000 0.00051
781 14.70000 1869.45379 1846.00000 0.00054
782 14.71500 1869.45575 1918.00000 0.00052
783 14.73000 1869.47270 1848.00000 0.00054
784 14.74500 1869.53850 1844.00000 0.00054
785 14.76000 1869.54718 1802.00000 0.00055
786 14.77500 1869.55555 1877.00000 0.00053
787 14.79000 1869.57204 1871.00000 0.00053
788 14.80500 1869.59360 1867.00000 0.00054
789 14.82000 1869.61638 1816.00000 0.00055
790 14.83500 1869.64504 1888.00000 0.00053
791 14.85000 1869.67973 1860.00000 0.00054
792 14.86500 1869.72065 1860.00000 0.00054
793 14.88000 1869.76800 1858.00000 0.00054
794 14.89500 1869.82201 1827.00000 0.00055
795 14.91000 1869.88298 1787.00000 0.00056
796 14.92500 1869.95120 1811.00000 0.00055
797 14.94000 1870.02705 1838.00000 0.00054
798 14.95500 1870.11094 1888.00000 0.00053
799 14.97000 1870.20336 1852.00000 0.00054
800 14.98500 1870.30487 1897.00000 0.00053
801 15.00000 1870.41612 1852.00000 0.00054
802 15.01500 1870.53786 1869.00000 0.00054
803 15.03000 1870.67099 1821.00000 0.00055
804 15.04500 1870.81654 1899.00000 0.00053
805 15.06000 1870.97569 1847.00000 0.00054
806 15.07500 1871.14981 1872.00000 0.00053
807 15.09000 1871.34029 1937.00000 0.00052
808 15.10500 1871.54812 1901.00000 0.00053
809 15.12000 1871.76899 1851.00000 0.00054
810 15.13500 1872.01970 1853.00000 0.00054
811 15.15000 1872.34361 1868.00000 0.00054
812 15.16500 1872.74028 1914.00000 0.00052
813 15.18000 1873.27822 1831.00000 0.00055
814 15.19500 1874.10373 1823.00000 0.00055
815 15.21000 1875.48583 1909.00000 0.00052
816 15.22500 1877.83895 1892.00000 0.00053
817 15.24000 1881.68536 1894.00000 0.00053
818 15.25500 1887.54136 1949.00000 0.00051
819 15.27000 1895.76694 1844.00000 0.00054
820 15.28500 1906.47774 1952.00000 0.00051
821 15.30000 1919.59526 1954.00000 0.00051
822 15.31500 1934.99035 1907.00000 0.00052
823 15.33000 1952.62406 1956.00000 0.00051
824 15.34500 1972.63467 1938.00000 0.00052
825 15.36000 1995.37779 1941.00000 0.00052
826 15.37500 2021.46329 2027.00000 0.00049
827 15.39000 2051.84766 2028.00000 0.00049
828 15.40500 2088.04960 2141.00000 0.00047
829 15.42000 2132.55282 2096.00000 0.00048
830 15.43500 2189.33121 2163.00000 0.00046
831 15.45000 2263.95879 2181.00000 0.00046
832 15.46500 2361.94236 2279.00000 0.00044
833 15.48000 2483.66996 2310.00000 0.00043
834 15.49500 2616.59124 2399.00000 0.00042
835 15.51000 2730.16222 2466.00000 0.00041
836 15.52500 2781.87078 2445.00000 0.00041
837 15.54000 2737.50086 2409.00000 0.00042
838 15.55500 2597.43871 2407.00000 0.00042
839 15.57000 2404.32852 2252.00000 0.00044
840 15.58500 2215.03868 2165.00000 0.00046
841 15.60000 2068.45872 2023.00000 0.00049
842 15.61500 1975.27640 1996.00000 0.00050
843 15.63000 1925.69971 1950.00000 0.00051
844 15.64500 1903.24637 1965.00000 0.00051
845 15.66000 1894.39334 1925.00000 0.00052
846 15.67500 1891.28629 1952.00000 0.00051
847 15.69000 1890.38970 1995.00000 0.00050
848 15.70500 1890.43545 1979.00000 0.00051
849 15.72000 1891.12121 1903.00000 0.00053
850 15.73500 1892.60880 1968.00000 0.00051
851 15.75000 1895.49079 1899.00000 0.00053
852 15.76500 1900.94413 1990.00000 0.00050
853 15.78000 1910.84168 1920.00000 0.00052
854 15.79500 1927.61281 1981.00000 0.00050
855 15.81000 1953.75357 2007.00000 0.00050
856 15.82500 1991.13141 2015.00000 0.00050
857 15.84000 2040.51520 2053.00000 0.00049
858 15.85500 2101.72958 2114.00000 0.00047
859 15.87000 2174.29928 2073.00000 0.00048
860 15.88500 2258.14458 2231.00000 0.00045
861 15.90000 2354.06341 2234.00000 0.00045
862 15.91500 2464.01352 2326.00000 0.00043
863 15.93000 2591.41946 2405.00000 0.00042
864 15.94500 2741.84181 2509.00000 0.00040
865 15.96000 2924.37119 2571.00000 0.00039
866 15.97500 3153.81107 2801.00000 0.00036
867 15.99000 3452.32095 2946.00000 0.00034
868 16.00500 3846.05408 3385.00000 0.00030
869 16.02000 4349.50797 3646.00000 0.00027
870 16.03500 4934.79207 4202.00000 0.00024
871 16.05000 5500.55121 4587.00000 0.00022
872 16.06500 5874.51639 4740.00000 0.00021
873 16.08000 5876.58342 4535.00000 0.00022
874 16.09500 5430.13324 4334.00000 0.00023
875 16.11000 4647.54591 3893.00000 0.00026
876 16.12500 3771.54526 3360.00000 0.00030
877 16.14000 3020.15342 2667.00000 0.00037
878 16.15500 2496.60867 2348.00000 0.00043
879 16.17000 2192.86558 2157.00000 0.00046
880 16.18500 2043.70507 2130.00000 0.00047
881 16.20000 1980.73317 2024.00000 0.00049
882 16.21500 1958.13030 2047.00000 0.00049
883 16.23000 1953.63896 2015.00000 0.00050
884 16.24500 1960.39521 2107.00000 0.00047
885 16.26000 1979.74805 2107.00000 0.00047
886 16.27500 2017.09256 2162.00000 0.00046
887 16.29000 2079.23938 2235.00000 0.00045
888 16.30500 2172.10925 2314.00000 0.00043
889 16.32000 2298.97408 2359.00000 0.00042
890 16.33500 2460.26299 2469.00000 0.00041
891 16.35000 2655.02406 2608.00000 0.00038
892 16.36500 2882.94646 2858.00000 0.00035
893 16.38000 3146.01328 2954.00000 0.00034
894 16.39500 3449.62506 3201.00000 0.00031
895 16.41000 3803.74907 3600.00000 0.00028
896 16.42500 4225.10449 4052.00000 0.00025
897 16.44000 4741.37898 4552.00000 0.00022
898 16.45500 5397.05192 5216.00000 0.00019
899 16.47000 6255.45737 5797.00000 0.00017
900 16.48500 7382.83425 7138.00000 0.00014
901 16.50000 8796.05545 8518.00000 0.00012
902 16.51500 10376.24018 10652.00000 0.00009
903 16.53000 11801.95759 12835.00000 0.00008
904 16.54500 12593.44020 13333.00000 0.00008
905 16.56000 12316.20822 12208.00000 0.00008
906 16.57500 10879.08715 10880.00000 0.00009
907 16.59000 8688.24051 9740.00000 0.00010
908 16.60500 6399.06102 7035.00000 0.00014
909 16.62000 4525.35143 4097.00000 0.00024
910 16.63500 3266.35312 2949.00000 0.00034
911 16.65000 2555.73694 2410.00000 0.00041
912 16.66500 2211.43370 2213.00000 0.00045
913 16.68000 2062.76682 2115.00000 0.00047
914 16.69500 2000.87486 2036.00000 0.00049
915 16.71000 1972.39975 2024.00000 0.00049
916 16.72500 1956.09596 2000.00000 0.00050
917 16.74000 1944.71030 1959.00000 0.00051
918 16.75500 1935.89517 1943.00000 0.00051
919 16.77000 1928.77914 1969.00000 0.00051
920 16.78500 1922.92314 1984.00000 0.00050
921 16.80000 1918.04341 1949.00000 0.00051
922 16.81500 1913.93564 1941.00000 0.00052
923 16.83000 1910.44686 1906.00000 0.00052
924 16.84500 1907.46037 1983.00000 0.00050
925 16.86000 1904.88585 1908.00000 0.00052
926 16.87500 1902.65255 1991.00000 0.00050
927 16.89000 1900.70441 1991.00000 0.00050
928 16.90500 1898.99660 1971.00000 0.00051
929 16.92000 1897.49294 1885.00000 0.00053
930 16.93500 1896.16397 1935.00000 0.00052
931 16.95000 1894.98555 1932.00000 0.00052
932 16.96500 1893.93780 1960.00000 0.00051
933 16.98000 1893.00421 1915.00000 0.00052
934 16.99500 1892.17107 1880.00000 0.00053
935 17.01000 1891.42693 1927.00000 0.00052
936 17.02500 1890.76222 1915.00000 0.00052
937 17.04000 1890.16901 2007.00000 0.00050
938 17.05500 1889.64076 1922.00000 0.00052
939 17.07000 1889.17206 1882.00000 0.00053
940 17.08500 1888.75859 2008.00000 0.00050
941 17.10000 1888.39697 1903.00000 0.00053
942 17.11500 1888.08476 1889.00000 0.00053
943 17.13000 1887.82039 1986.00000 0.00050
944 17.14500 1887.60326 1991.00000 0.00050
945 17.16000 1887.43379 1925.00000 0.00052
946 17.17500 1887.31369 1910.00000 0.00052
947 17.19000 1887.24663 1922.00000 0.00052
948 17.20500 1887.24028 1962.00000 0.00051
949 17.22000 1887.31239 1902.00000 0.00053
950 17.23500 1887.50863 1975.00000 0.00051
951 17.25000 1887.92009 1995.00000 0.00050
952 17.26500 1888.75357 1885.00000 0.00053
953 17.28000 1890.40666 1875.00000 0.00053
954 17.29500 1893.48217 1931.00000 0.00052
955 17.31000 1898.77246 1923.00000 0.00052
956 17.32500 1907.11394 1982.00000 0.00050
957 17.34000 1919.18109 1963.00000 0.00051
958 17.35500 1935.33728 2036.00000 0.00049
959 17.37000 1955.66428 2047.00000 0.00049
960 17.38500 1980.16912 2069.00000 0.00048
961 17.40000 2009.02658 2091.00000 0.00048
962 17.41500 2042.79736 2067.00000 0.00048
963 17.43000 2082.64347 2138.00000 0.00047
964 17.44500 2130.64334 2274.00000 0.00044
965 17.46000 2190.29284 2290.00000 0.00044
966 17.47500 2267.00995 2482.00000 0.00040
967 17.49000 2367.77140 2570.00000 0.00039
968 17.50500 2498.17159 2678.00000 0.00037
969 17.52000 2655.57050 2682.00000 0.00037
970 17.53500 2820.34792 2915.00000 0.00034
971 17.55000 2952.49710 2972.00000 0.00034
972 17.56500 3001.85988 3060.00000 0.00033
973 17.58000 2933.06712 2880.00000 0.00035
974 17.59500 2753.81843 2772.00000 0.00036
975 17.61000 2517.86469 2688.00000 0.00037
976 17.62500 2290.47246 2472.00000 0.00040
977 17.64000 2114.64587 2320.00000 0.00043
978 17.65500 2001.67362 2169.00000 0.00046
979 17.67000 1940.14628 2045.00000 0.00049
980 17.68500 1911.06559 2117.00000 0.00047
981 17.70000 1898.65565 1981.00000 0.00050
982 17.71500 1893.45539 2016.00000 0.00050
983 17.73000 1891.02026 1943.00000 0.00051
984 17.74500 1889.63063 1947.00000 0.00051
985 17.76000 1888.71196 1942.00000 0.00051
986 17.77500 1888.09202 1940.00000 0.00052
987 17.79000 1887.74246 1916.00000 0.00052
988 17.80500 1887.72380 1965.00000 0.00051
989 17.82000 1888.19830 1911.00000 0.00052
990 17.83500 1889.45025 1949.00000 0.00051
991 17.85000 1891.87526 1955.00000 0.00051
992 17.86500 1895.91738 1909.00000 0.00052
993 17.88000 1901.96497 1861.00000 0.00054
994 17.89500 1910.26050 1870.00000 0.00053
995 17.91000 1920.89666 1904.00000 0.00053
996 17.92500 1933.90979 1894.00000 0.00053
997 17.94000 1949.41557 1854.00000 0.00054
998 17.95500 1967.74516 1915.00000 0.00052
999 17.97000 1989.58989 1906.00000 0.00052
1000 17.98500 2016.20133 1914.00000 0.00052
1001 18.00000 2049.66103 1943.00000 0.00051
1002 18.01500 2093.03550 1880.00000 0.00053
1003 18.03000 2149.83064 1894.00000 0.00053
1004 18.04500 2221.86623 1991.00000 0.00050
1005 18.06000 2305.32979 1981.00000 0.00050
1006 18.07500 2386.89743 2073.00000 0.00048
1007 18.09000 2444.00968 2105.00000 0.00048
1008 18.10500 2452.52224 2030.00000 0.00049
1009 18.12000 2400.46752 2003.00000 0.00050
1010 18.13500 2299.73950 2044.00000 0.00049
1011 18.15000 2181.05577 1981.00000 0.00050
1012 18.16500 2074.78962 1991.00000 0.00050
1013 18.18000 1997.77699 1948.00000 0.00051
1014 18.19500 1951.93066 1921.00000 0.00052
1015 18.21000 1930.29859 2035.00000 0.00049
1016 18.22500 1924.56537 2011.00000 0.00050
1017 18.24000 1929.78923 2070.00000 0.00048
1018 18.25500 1945.82718 2124.00000 0.00047
1019 18.27000 1976.83744 2069.00000 0.00048
1020 18.28500 2029.94354 2302.00000 0.00043
1021 18.30000 2113.38327 2346.00000 0.00043
1022 18.31500 2234.42525 2482.00000 0.00040
1023 18.33000 2397.92050 2612.00000 0.00038
1024 18.34500 2606.49705 2826.00000 0.00035
1025 18.36000 2862.29426 3005.00000 0.00033
1026 18.37500 3169.38123 3379.00000 0.00030
1027 18.39000 3536.50882 3682.00000 0.00027
1028 18.40500 3980.57298 4341.00000 0.00023
1029 18.42000 4531.23691 4763.00000 0.00021
1030 18.43500 5235.19376 5619.00000 0.00018
1031 18.45000 6153.07209 6468.00000 0.00015
1032 18.46500 7335.35259 7555.00000 0.00013
1033 18.48000 8766.64408 8911.00000 0.00011
1034 18.49500 10293.66269 10208.00000 0.00010
1035 18.51000 11592.73755 11549.00000 0.00009
1036 18.52500 12242.42531 11716.00000 0.00009
1037 18.54000 11914.16737 11252.00000 0.00009
1038 18.55500 10603.20115 10582.00000 0.00009
1039 18.57000 8685.27440 8893.00000 0.00011
1040 18.58500 6673.33011 7168.00000 0.00014
1041 18.60000 4953.30052 5565.00000 0.00018
1042 18.61500 3694.72349 4371.00000 0.00023
1043 18.63000 2884.46278 3467.00000 0.00029
1044 18.64500 2414.63060 3081.00000 0.00032
1045 18.66000 2164.08381 2644.00000 0.00038
1046 18.67500 2038.56194 2483.00000 0.00040
1047 18.69000 1977.48529 2333.00000 0.00043
1048 18.70500 1946.82703 2210.00000 0.00045
1049 18.72000 1929.61996 2082.00000 0.00048
1050 18.73500 1918.31350 2064.00000 0.00048
1051 18.75000 1909.84895 1985.00000 0.00050
1052 18.76500 1903.02558 2033.00000 0.00049
1053 18.78000 1897.32725 1952.00000 0.00051
1054 18.79500 1892.47473 1947.00000 0.00051
1055 18.81000 1888.28895 1923.00000 0.00052
1056 18.82500 1884.63968 1941.00000 0.00052
1057 18.84000 1881.42699 1947.00000 0.00051
1058 18.85500 1878.57315 1918.00000 0.00052
1059 18.87000 1876.01684 1833.00000 0.00055
1060 18.88500 1873.70919 1926.00000 0.00052
1061 18.90000 1871.61084 1846.00000 0.00054
1062 18.91500 1869.68980 1870.00000 0.00053
1063 18.93000 1867.91984 1889.00000 0.00053
1064 18.94500 1866.27931 1845.00000 0.00054
1065 18.96000 1864.75021 1832.00000 0.00055
1066 18.97500 1863.31746 1824.00000 0.00055
1067 18.99000 1861.96834 1850.00000 0.00054
1068 19.00500 1860.69210 1871.00000 0.00053
1069 19.02000 1859.47954 1808.00000 0.00055
1070 19.03500 1858.32282 1901.00000 0.00053
1071 19.05000 1857.21516 1845.00000 0.00054
1072 19.06500 1856.15071 1799.00000 0.00056
1073 19.08000 1855.12438 1801.00000 0.00056
1074 19.09500 1854.13175 1824.00000 0.00055
1075 19.11000 1853.16892 1825.00000 0.00055
1076 19.12500 1852.23246 1789.00000 0.00056
1077 19.14000 1851.31932 1821.00000 0.00055
1078 19.15500 1850.42673 1818.00000 0.00055
1079 19.17000 1849.55206 1786.00000 0.00056
1080 19.18500 1848.69166 1780.00000 0.00056
1081 19.20000 1847.84683 1814.00000 0.00055
1082 19.21500 1847.01856 1803.00000 0.00055
1083 19.23000 1846.20178 1735.00000 0.00058
1084 19.24500 1845.39516 1831.00000 0.00055
1085 19.26000 1844.59750 1830.00000 0.00055
1086 19.27500 1843.80773 1822.00000 0.00055
1087 19.29000 1843.02487 1838.00000 0.00054
1088 19.30500 1842.24804 1814.00000 0.00055
1089 19.32000 1841.47644 1756.00000 0.00057
1090 19.33500 1840.70935 1829.00000 0.00055
1091 19.35000 1839.94609 1785.00000 0.00056
1092 19.36500 1839.18608 1830.00000 0.00055
1093 19.38000 1838.42876 1740.00000 0.00057
1094 19.39500 1837.67364 1768.00000 0.00057
1095 19.41000 1836.92027 1827.00000 0.00055
1096 19.42500 1836.16824 1806.00000 0.00055
1097 19.44000 1835.41722 1789.00000 0.00056
1098 19.45500 1834.66709 1798.00000 0.00056
1099 19.47000 1833.91714 1758.00000 0.00057
1100 19.48500 1833.16651 1848.00000 0.00054
1101 19.50000 1832.41545 1770.00000 0.00056
1102 19.51500 1831.66367 1806.00000 0.00055
1103 19.53000 1830.91093 1810.00000 0.00055
1104 19.54500 1830.15703 1859.00000 0.00054
1105 19.56000 1829.40175 1771.00000 0.00056
1106 19.57500 1828.64492 1817.00000 0.00055
1107 19.59000 1827.88638 1733.00000 0.00058
1108 19.60500 1827.12604 1847.00000 0.00054
1109 19.62000 1826.36387 1797.00000 0.00056
1110 19.63500 1825.60008 1838.00000 0.00054
1111 19.65000 1824.83534 1767.00000 0.00057
1112 19.66500 1824.07111 1785.00000 0.00056
1113 19.68000 1823.30998 1757.00000 0.00057
1114 19.69500 1822.55578 1804.00000 0.00055
1115 19.71000 1821.81317 1706.00000 0.00059
1116 19.72500 1821.08664 1749.00000 0.00057
1117 19.74000 1820.37917 1752.00000 0.00057
1118 19.75500 1819.68918 1804.00000 0.00055
1119 19.77000 1819.01920 1762.00000 0.00057
1120 19.78500 1818.40057 1760.00000 0.00057
1121 19.80000 1817.81707 1735.00000 0.00058
1122 19.81500 1817.28062 1774.00000 0.00056
1123 19.83000 1816.81157 1745.00000 0.00057
1124 19.84500 1816.43887 1777.00000 0.00056
1125 19.86000 1816.19214 1717.00000 0.00058
1126 19.87500 1816.07899 1785.00000 0.00056
1127 19.89000 1816.04934 1868.00000 0.00054
1128 19.90500 1815.96718 1856.00000 0.00054
1129 19.92000 1815.62405 1766.00000 0.00057
1130 19.93500 1814.81468 1798.00000 0.00056
1131 19.95000 1813.45639 1790.00000 0.00056
1132 19.96500 1811.67636 1816.00000 0.00055
1133 19.98000 1809.74970 1741.00000 0.00057
1134 19.99500 1807.93608 1749.00000 0.00057
1135 20.01000 1806.37631 1787.00000 0.00056
1136 20.02500 1805.08402 1804.00000 0.00055
1137 20.04000 1803.99554 1799.00000 0.00056
1138 20.05500 1803.02974 1786.00000 0.00056
1139 20.07000 1802.12403 1743.00000 0.00057
1140 20.08500 1801.24212 1858.00000 0.00054
1141 20.10000 1800.36712 1779.00000 0.00056
1142 20.11500 1799.49239 1783.00000 0.00056
1143 20.13000 1798.61560 1766.00000 0.00057
1144 20.14500 1797.73590 1759.00000 0.00057
1145 20.16000 1796.85304 1758.00000 0.00057
1146 20.17500 1795.96610 1741.00000 0.00057
1147 20.19000 1795.07503 1740.00000 0.00057
1148 20.20500 1794.17930 1793.00000 0.00056
1149 20.22000 1793.27800 1732.00000 0.00058
1150 20.23500 1792.36935 1845.00000 0.00054
1151 20.25000 1791.44844 1773.00000 0.00056
1152 20.26500 1790.50217 1768.00000 0.00057
1153 20.28000 1789.57652 1707.00000 0.00059
1154 20.29500 1788.68006 1715.00000 0.00058
1155 20.31000 1787.78167 1761.00000 0.00057
1156 20.32500 1786.88152 1696.00000 0.00059
1157 20.34000 1785.97977 1681.00000 0.00059
1158 20.35500 1785.07661 1772.00000 0.00056
1159 20.37000 1784.17228 1704.00000 0.00059
1160 20.38500 1783.26703 1752.00000 0.00057
1161 20.40000 1782.36112 1708.00000 0.00059
1162 20.41500 1781.45486 1673.00000 0.00060
1163 20.43000 1780.54856 1679.00000 0.00060
1164 20.44500 1779.64259 1710.00000 0.00058
1165 20.46000 1778.73736 1717.00000 0.00058
1166 20.47500 1777.83335 1777.00000 0.00056
1167 20.49000 1776.93107 1761.00000 0.00057
1168 20.50500 1776.03120 1771.00000 0.00056
1169 20.52000 1775.13468 1750.00000 0.00057
1170 20.53500 1774.24407 1744.00000 0.00057
1171 20.55000 1773.35332 1758.00000 0.00057
1172 20.56500 1772.46749 1740.00000 0.00057
1173 20.58000 1771.58755 1691.00000 0.00059
1174 20.59500 1770.71457 1700.00000 0.00059
1175 20.61000 1769.84976 1713.00000 0.00058
1176 20.62500 1768.99454 1743.00000 0.00057
1177 20.64000 1768.15049 1759.00000 0.00057
1178 20.65500 1767.31948 1767.00000 0.00057
1179 20.67000 1766.50371 1685.00000 0.00059
1180 20.68500 1765.70588 1847.00000 0.00054
1181 20.70000 1764.92898 1723.00000 0.00058
1182 20.71500 1764.17653 1716.00000 0.00058
1183 20.73000 1763.45271 1763.00000 0.00057
1184 20.74500 1762.76250 1763.00000 0.00057
1185 20.76000 1762.11197 1700.00000 0.00059
1186 20.77500 1761.50853 1735.00000 0.00058
1187 20.79000 1760.96145 1720.00000 0.00058
1188 20.80500 1760.48278 1778.00000 0.00056
1189 20.82000 1760.08999 1708.00000 0.00059
1190 20.83500 1759.82106 1773.00000 0.00056
1191 20.85000 1759.66268 1819.00000 0.00055
1192 20.86500 1759.73256 1753.00000 0.00057
1193 20.88000 1760.21393 1705.00000 0.00059
1194 20.89500 1761.49792 1768.00000 0.00057
1195 20.91000 1764.33869 1748.00000 0.00057
1196 20.92500 1770.00733 1777.00000 0.00056
1197 20.94000 1780.37561 1783.00000 0.00056
1198 20.95500 1797.83106 1919.00000 0.00052
1199 20.97000 1825.00234 1866.00000 0.00054
1200 20.98500 1864.40557 1957.00000 0.00051
1201 21.00000 1918.27540 1948.00000 0.00051
1202 21.01500 1988.82009 2030.00000 0.00049
1203 21.03000 2078.93705 2131.00000 0.00047
1204 21.04500 2193.33031 2352.00000 0.00043
1205 21.06000 2339.74478 2440.00000 0.00041
1206 21.07500 2529.30000 2698.00000 0.00037
1207 21.09000 2773.87362 2978.00000 0.00034
1208 21.10500 3078.31876 3398.00000 0.00029
1209 21.12000 3428.02008 3632.00000 0.00028
1210 21.13500 3778.14028 4019.00000 0.00025
1211 21.15000 4055.18074 4252.00000 0.00024
1212 21.16500 4177.98134 4303.00000 0.00023
1213 21.18000 4095.36614 4058.00000 0.00025
1214 21.19500 3819.88790 3806.00000 0.00026
1215 21.21000 3420.26469 3438.00000 0.00029
1216 21.22500 2982.37190 2994.00000 0.00033
1217 21.24000 2580.95640 2569.00000 0.00039
1218 21.25500 2262.57928 2283.00000 0.00044
1219 21.27000 2040.06667 2083.00000 0.00048
1220 21.28500 1901.66370 2008.00000 0.00050
1221 21.30000 1824.75213 1914.00000 0.00052
1222 21.31500 1786.62898 1920.00000 0.00052
1223 21.33000 1770.33634 1915.00000 0.00052
1224 21.34500 1766.14573 1899.00000 0.00053
1225 21.36000 1770.56289 1848.00000 0.00054
1226 21.37500 1784.75015 1952.00000 0.00051
1227 21.39000 1813.20052 1937.00000 0.00052
1228 21.40500 1862.56236 2092.00000 0.00048
1229 21.42000 1940.31675 2149.00000 0.00047
1230 21.43500 2053.40223 2337.00000 0.00043
1231 21.45000 2207.53580 2483.00000 0.00040
1232 21.46500 2408.15429 2618.00000 0.00038
1233 21.48000 2663.13172 2929.00000 0.00034
1234 21.49500 2986.64776 3232.00000 0.00031
1235 21.51000 3402.78143 3813.00000 0.00026
1236 21.52500 3945.26087 4385.00000 0.00023
1237 21.54000 4646.69894 5183.00000 0.00019
1238 21.55500 5510.90084 6419.00000 0.00016
1239 21.57000 6472.28000 7602.00000 0.00013
1240 21.58500 7366.73021 8837.00000 0.00011
1241 21.60000 7950.67314 9311.00000 0.00011
1242 21.61500 7987.59762 9206.00000 0.00011
1243 21.63000 7381.03568 8443.00000 0.00012
1244 21.64500 6271.75220 7858.00000 0.00013
1245 21.66000 4972.56632 6178.00000 0.00016
1246 21.67500 3787.92243 4509.00000 0.00022
1247 21.69000 2893.54945 3333.00000 0.00030
1248 21.70500 2319.57519 2668.00000 0.00037
1249 21.72000 2000.92186 2229.00000 0.00045
1250 21.73500 1844.48941 2079.00000 0.00048
1251 21.75000 1773.72395 1942.00000 0.00051
1252 21.76500 1741.70504 1894.00000 0.00053
1253 21.78000 1725.30473 1820.00000 0.00055
1254 21.79500 1714.96025 1728.00000 0.00058
1255 21.81000 1707.20027 1803.00000 0.00055
1256 21.82500 1700.82134 1747.00000 0.00057
1257 21.84000 1695.35778 1747.00000 0.00057
1258 21.85500 1690.57543 1696.00000 0.00059
1259 21.87000 1686.32431 1650.00000 0.00061
1260 21.88500 1682.49602 1730.00000 0.00058
1261 21.90000 1679.00711 1665.00000 0.00060
1262 21.91500 1675.80118 1683.00000 0.00059
1263 21.93000 1672.82485 1681.00000 0.00059
1264 21.94500 1670.03923 1654.00000 0.00060
1265 21.96000 1667.41323 1630.00000 0.00061
1266 21.97500 1664.92182 1678.00000 0.00060
1267 21.99000 1662.54465 1629.00000 0.00061
1268 22.00500 1660.26506 1668.00000 0.00060
1269 22.02000 1658.06926 1637.00000 0.00061
1270 22.03500 1655.94580 1657.00000 0.00060
1271 22.05000 1653.88509 1613.00000 0.00062
1272 22.06500 1651.87910 1621.00000 0.00062
1273 22.08000 1649.92107 1571.00000 0.00064
1274 22.09500 1648.00535 1567.00000 0.00064
1275 22.11000 1646.12726 1597.00000 0.00063
1276 22.12500 1644.28336 1548.00000 0.00065
1277 22.14000 1642.47274 1546.00000 0.00065
1278 22.15500 1640.67855 1629.00000 0.00061
1279 22.17000 1638.90696 1577.00000 0.00063
1280 22.18500 1637.15556 1575.00000 0.00063
1281 22.20000 1635.42225 1611.00000 0.00062
1282 22.21500 1633.70523 1578.00000 0.00063
1283 22.23000 1632.00291 1557.00000 0.00064
1284 22.24500 1630.31398 1611.00000 0.00062
1285 22.26000 1628.63755 1539.00000 0.00065
1286 22.27500 1626.97397 1638.00000 0.00061
1287 22.29000 1625.31501 1616.00000 0.00062
1288 22.30500 1623.66352 1619.00000 0.00062
1289 22.32000 1622.01697 1543.00000 0.00065
1290 22.33500 1620.36856 1641.00000 0.00061
1291 22.35000 1618.69446 1577.00000 0.00063
1292 22.36500 1617.09692 1602.00000 0.00062
1293 22.38000 1615.50838 1561.00000 0.00064
1294 22.39500 1613.92696 1582.00000 0.00063
1295 22.41000 1612.36451 1596.00000 0.00063
1296 22.42500 1610.81484 1563.00000 0.00064
1297 22.44000 1609.27953 1580.00000 0.00063
1298 22.45500 1607.76074 1630.00000 0.00061
1299 22.47000 1606.26175 1529.00000 0.00065
1300 22.48500 1604.78812 1614.00000 0.00062
1301 22.50000 1603.35111 1526.00000 0.00066
1302 22.51500 1601.97583 1620.00000 0.00062
1303 22.53000 1600.71809 1573.00000 0.00064
1304 22.54500 1599.69309 1598.00000 0.00063
1305 22.56000 1599.11317 1555.00000 0.00064
1306 22.57500 1599.32201 1543.00000 0.00065
1307 22.59000 1600.80059 1577.00000 0.00063
1308 22.60500 1604.13448 1660.00000 0.00060
1309 22.62000 1609.93856 1602.00000 0.00062
1310 22.63500 1618.78886 1687.00000 0.00059
1311 22.65000 1631.24100 1638.00000 0.00061
1312 22.66500 1647.99199 1635.00000 0.00061
1313 22.68000 1670.15291 1644.00000 0.00061
1314 22.69500 1699.48647 1703.00000 0.00059
1315 22.71000 1738.29536 1729.00000 0.00058
1316 22.72500 1788.48248 1784.00000 0.00056
1317 22.74000 1849.46649 1870.00000 0.00053
1318 22.75500 1915.49675 1954.00000 0.00051
1319 22.77000 1974.21160 1926.00000 0.00052
1320 22.78500 2008.72307 1952.00000 0.00051
1321 22.80000 2004.01177 1939.00000 0.00052
1322 22.81500 1955.75083 1879.00000 0.00053
1323 22.83000 1875.51268 1834.00000 0.00055
1324 22.84500 1784.85437 1868.00000 0.00054
1325 22.86000 1703.49306 1742.00000 0.00057
1326 22.87500 1642.26051 1711.00000 0.00058
1327 22.89000 1602.54693 1660.00000 0.00060
1328 22.90500 1579.77796 1622.00000 0.00062
1329 22.92000 1567.75146 1563.00000 0.00064
1330 22.93500 1561.42236 1561.00000 0.00064
1331 22.95000 1557.69453 1514.00000 0.00066
1332 22.96500 1555.02872 1540.00000 0.00065
1333 22.98000 1552.77968 1513.00000 0.00066
1334 22.99500 1550.70932 1466.00000 0.00068
1335 23.01000 1548.73396 1485.00000 0.00067
1336 23.02500 1546.82123 1493.00000 0.00067
1337 23.04000 1544.95509 1511.00000 0.00066
1338 23.05500 1543.12544 1531.00000 0.00065
1339 23.07000 1541.32510 1419.00000 0.00070
1340 23.08500 1539.54871 1562.00000 0.00064
1341 23.10000 1537.79224 1471.00000 0.00068
1342 23.11500 1536.05264 1473.00000 0.00068
1343 23.13000 1534.32765 1472.00000 0.00068
1344 23.14500 1532.61560 1480.00000 0.00068
1345 23.16000 1530.91540 1484.00000 0.00067
1346 23.17500 1529.22639 1404.00000 0.00071
1347 23.19000 1527.54848 1529.00000 0.00065
1348 23.20500 1525.88235 1494.00000 0.00067
1349 23.22000 1524.23021 1466.00000 0.00068
1350 23.23500 1522.59782 1454.00000 0.00069
1351 23.25000 1520.99883 1469.00000 0.00068
1352 23.26500 1519.46283 1420.00000 0.00070
1353 23.28000 1518.04691 1431.00000 0.00070
1354 23.29500 1516.84810 1443.00000 0.00069
1355 23.31000 1516.01052 1443.00000 0.00069
1356 23.32500 1515.72044 1457.00000 0.00069
1357 23.34000 1516.18800 1411.00000 0.00071
1358 23.35500 1517.62508 1482.00000 0.00067
1359 23.37000 1520.24213 1462.00000 0.00068
1360 23.38500 1524.28810 1531.00000 0.00065
1361 23.40000 1530.13070 1517.00000 0.00066
1362 23.41500 1538.32582 1532.00000 0.00065
1363 23.43000 1549.57274 1570.00000 0.00064
1364 23.44500 1564.41145 1705.00000 0.00059
1365 23.46000 1582.56406 1679.00000 0.00060
1366 23.47500 1602.13067 1775.00000 0.00056
1367 23.49000 1619.20525 1835.00000 0.00054
1368 23.50500 1628.58232 1834.00000 0.00055
1369 23.52000 1625.70529 1755.00000 0.00057
1370 23.53500 1609.39199 1758.00000 0.00057
1371 23.55000 1583.27871 1627.00000 0.00061
1372 23.56500 1553.97331 1636.00000 0.00061
1373 23.58000 1527.49925 1502.00000 0.00067
1374 23.59500 1507.19043 1507.00000 0.00066
1375 23.61000 1493.51532 1529.00000 0.00065
1376 23.62500 1485.11040 1451.00000 0.00069
1377 23.64000 1480.08355 1439.00000 0.00069
1378 23.65500 1476.87218 1438.00000 0.00070
1379 23.67000 1474.50205 1345.00000 0.00074
1380 23.68500 1472.48042 1437.00000 0.00070
1381 23.70000 1470.59701 1385.00000 0.00072
1382 23.71500 1468.77295 1407.00000 0.00071
1383 23.73000 1466.98033 1422.00000 0.00070
1384 23.74500 1465.20849 1406.00000 0.00071
1385 23.76000 1463.45230 1356.00000 0.00074
1386 23.77500 1461.70863 1374.00000 0.00073
1387 23.79000 1459.97536 1364.00000 0.00073
1388 23.80500 1458.25075 1446.00000 0.00069
1389 23.82000 1456.53346 1343.00000 0.00074
1390 23.83500 1454.82279 1405.00000 0.00071
1391 23.85000 1453.11813 1356.00000 0.00074
1392 23.86500 1451.41905 1348.00000 0.00074
1393 23.88000 1449.72530 1367.00000 0.00073
1394 23.89500 1448.03678 1284.00000 0.00078
1395 23.91000 1446.35353 1342.00000 0.00075
1396 23.92500 1444.67572 1277.00000 0.00078
1397 23.94000 1443.00378 1343.00000 0.00074
1398 23.95500 1441.33850 1382.00000 0.00072
1399 23.97000 1439.68159 1374.00000 0.00073
1400 23.98500 1438.03682 1361.00000 0.00073
1401 24.00000 1436.41304 1329.00000 0.00075
1402 24.01500 1434.82307 1350.00000 0.00074
1403 24.03000 1433.29342 1299.00000 0.00077
1404 24.04500 1431.86880 1352.00000 0.00074
1405 24.06000 1430.60859 1361.00000 0.00073
1406 24.07500 1429.58497 1371.00000 0.00073
1407 24.09000 1428.87639 1391.00000 0.00072
1408 24.10500 1428.56387 1426.00000 0.00070
1409 24.12000 1428.73889 1374.00000 0.00073
1410 24.13500 1429.52552 1420.00000 0.00070
1411 24.15000 1431.10289 1365.00000 0.00073
1412 24.16500 1433.69365 1427.00000 0.00070
1413 24.18000 1437.47042 1407.00000 0.00071
1414 24.19500 1442.35301 1374.00000 0.00073
1415 24.21000 1447.75381 1460.00000 0.00068
1416 24.22500 1452.44713 1457.00000 0.00069
1417 24.24000 1454.77159 1440.00000 0.00069
1418 24.25500 1453.23429 1434.00000 0.00070
1419 24.27000 1447.34833 1365.00000 0.00073
1420 24.28500 1438.16245 1417.00000 0.00071
1421 24.30000 1427.75910 1395.00000 0.00072
1422 24.31500 1418.12150 1385.00000 0.00072
1423 24.33000 1410.42820 1413.00000 0.00071
1424 24.34500 1404.93179 1374.00000 0.00073
1425 24.36000 1401.26155 1390.00000 0.00072
1426 24.37500 1398.84629 1409.00000 0.00071
1427 24.39000 1397.22793 1379.00000 0.00073
1428 24.40500 1396.20078 1445.00000 0.00069
1429 24.42000 1395.83995 1406.00000 0.00071
1430 24.43500 1396.49588 1435.00000 0.00070
1431 24.45000 1398.78135 1418.00000 0.00071
1432 24.46500 1403.53522 1390.00000 0.00072
1433 24.48000 1411.75082 1407.00000 0.00071
1434 24.49500 1424.49969 1350.00000 0.00074
1435 24.51000 1442.93829 1396.00000 0.00072
1436 24.52500 1468.48807 1457.00000 0.00069
1437 24.54000 1503.12982 1472.00000 0.00068
1438 24.55500 1549.49113 1576.00000 0.00063
1439 24.57000 1610.16817 1663.00000 0.00060
1440 24.58500 1685.76044 1796.00000 0.00056
1441 24.60000 1771.81277 1897.00000 0.00053
1442 24.61500 1856.26128 2081.00000 0.00048
1443 24.63000 1920.00759 2194.00000 0.00046
1444 24.64500 1942.39391 2335.00000 0.00043
1445 24.66000 1910.80080 2247.00000 0.00045
1446 24.67500 1830.00759 2196.00000 0.00046
1447 24.69000 1722.00854 1976.00000 0.00051
1448 24.70500 1613.91925 1746.00000 0.00057
1449 24.72000 1526.15233 1506.00000 0.00066
1450 24.73500 1468.24388 1423.00000 0.00070
1451 24.75000 1441.10361 1469.00000 0.00068
1452 24.76500 1442.31547 1447.00000 0.00069
1453 24.78000 1470.86442 1420.00000 0.00070
1454 24.79500 1529.27823 1514.00000 0.00066
1455 24.81000 1623.45505 1633.00000 0.00061
1456 24.82500 1761.75979 1752.00000 0.00057
1457 24.84000 1955.04360 1925.00000 0.00052
1458 24.85500 2218.07764 2162.00000 0.00046
1459 24.87000 2570.71494 2401.00000 0.00042
1460 24.88500 3034.90688 2989.00000 0.00033
1461 24.90000 3622.98736 3541.00000 0.00028
1462 24.91500 4316.19853 4433.00000 0.00023
1463 24.93000 5041.78255 5581.00000 0.00018
1464 24.94500 5666.77116 6609.00000 0.00015
1465 24.96000 6025.62333 6818.00000 0.00015
1466 24.97500 5983.62075 6426.00000 0.00016
1467 24.99000 5515.06699 6040.00000 0.00017
1468 25.00500 4736.06762 5273.00000 0.00019
1469 25.02000 3841.80689 3806.00000 0.00026
1470 25.03500 3012.72678 2679.00000 0.00037
1471 25.05000 2359.05962 1974.00000 0.00051
1472 25.06500 1909.68412 1647.00000 0.00061
1473 25.08000 1635.48638 1499.00000 0.00067
1474 25.09500 1484.35529 1445.00000 0.00069
1475 25.11000 1407.24618 1372.00000 0.00073
1476 25.12500 1369.26820 1319.00000 0.00076
1477 25.14000 1349.91113 1343.00000 0.00074
1478 25.15500 1338.76720 1319.00000 0.00076
1479 25.17000 1331.18781 1313.00000 0.00076
1480 25.18500 1325.27081 1337.00000 0.00075
1481 25.20000 1320.26584 1297.00000 0.00077
1482 25.21500 1315.85995 1293.00000 0.00077
1483 25.23000 1311.89714 1287.00000 0.00078
1484 25.24500 1308.28153 1357.00000 0.00074
1485 25.26000 1304.94533 1273.00000 0.00079
1486 25.27500 1301.83721 1304.00000 0.00077
1487 25.29000 1298.91748 1312.00000 0.00076
1488 25.30500 1296.15474 1327.00000 0.00075
1489 25.32000 1293.52397 1251.00000 0.00080
1490 25.33500 1291.00500 1288.00000 0.00078
1491 25.35000 1288.58145 1201.00000 0.00083
1492 25.36500 1286.23991 1246.00000 0.00080
1493 25.38000 1283.96929 1191.00000 0.00084
1494 25.39500 1281.76041 1181.00000 0.00085
1495 25.41000 1279.60534 1217.00000 0.00082
1496 25.42500 1277.49754 1214.00000 0.00082
1497 25.44000 1275.43158 1211.00000 0.00083
1498 25.45500 1273.40290 1226.00000 0.00082
1499 25.47000 1271.40681 1180.00000 0.00085
1500 25.48500 1269.44027 1234.00000 0.00081
1501 25.50000 1267.50026 1207.00000 0.00083
1502 25.51500 1265.58410 1185.00000 0.00084
1503 25.53000 1263.68935 1229.00000 0.00081
1504 25.54500 1261.81366 1220.00000 0.00082
1505 25.56000 1259.95452 1179.00000 0.00085
1506 25.57500 1258.10828 1167.00000 0.00086
1507 25.59000 1256.26086 1188.00000 0.00084
1508 25.60500 1254.43963 1223.00000 0.00082
1509 25.62000 1252.65621 1146.00000 0.00087
1510 25.63500 1250.88684 1193.00000 0.00084
1511 25.65000 1249.13092 1203.00000 0.00083
1512 25.66500 1247.38798 1128.00000 0.00089
1513 25.68000 1245.65764 1155.00000 0.00087
1514 25.69500 1243.93963 1161.00000 0.00086
1515 25.71000 1242.23380 1138.00000 0.00088
1516 25.72500 1240.54003 1164.00000 0.00086
1517 25.74000 1238.85840 1180.00000 0.00085
1518 25.75500 1237.18912 1171.00000 0.00085
1519 25.77000 1235.53257 1198.00000 0.00083
1520 25.78500 1233.88953 1211.00000 0.00083
1521 25.80000 1232.26140 1196.00000 0.00084
1522 25.81500 1230.65070 1197.00000 0.00084
1523 25.83000 1229.06167 1185.00000 0.00084
1524 25.84500 1227.50084 1265.00000 0.00079
1525 25.86000 1225.97732 1232.00000 0.00081
1526 25.87500 1224.50267 1254.00000 0.00080
1527 25.89000 1223.09054 1255.00000 0.00080
1528 25.90500 1221.75661 1225.00000 0.00082
1529 25.92000 1220.51973 1181.00000 0.00085
1530 25.93500 1219.40372 1205.00000 0.00083
1531 25.95000 1218.43687 1170.00000 0.00085
1532 25.96500 1217.64361 1196.00000 0.00084
1533 25.98000 1217.02473 1146.00000 0.00087
1534 25.99500 1216.53022 1102.00000 0.00091
1535 26.01000 1216.04146 1169.00000 0.00086
1536 26.02500 1215.38546 1181.00000 0.00085
1537 26.04000 1214.39306 1157.00000 0.00086
1538 26.05500 1212.99142 1166.00000 0.00086
1539 26.07000 1211.29104 1138.00000 0.00088
1540 26.08500 1209.59319 1208.00000 0.00083
1541 26.10000 1208.33099 1134.00000 0.00088
1542 26.11500 1208.06838 1170.00000 0.00085
1543 26.13000 1209.60604 1198.00000 0.00083
1544 26.14500 1214.15088 1202.00000 0.00083
1545 26.16000 1223.46511 1188.00000 0.00084
1546 26.17500 1239.91492 1246.00000 0.00080
1547 26.19000 1266.41377 1258.00000 0.00079
1548 26.20500 1306.37496 1344.00000 0.00074
1549 26.22000 1363.86735 1392.00000 0.00072
1550 26.23500 1444.00714 1551.00000 0.00064
1551 26.25000 1553.02810 1626.00000 0.00062
1552 26.26500 1696.81435 1758.00000 0.00057
1553 26.28000 1876.75450 1976.00000 0.00051
1554 26.29500 2083.33185 2234.00000 0.00045
1555 26.31000 2290.77493 2511.00000 0.00040
1556 26.32500 2458.17933 2639.00000 0.00038
1557 26.34000 2540.82219 2745.00000 0.00036
1558 26.35500 2510.34228 2736.00000 0.00037
1559 26.37000 2375.50219 2557.00000 0.00039
1560 26.38500 2184.34240 2372.00000 0.00042
1561 26.40000 1998.95274 2177.00000 0.00046
1562 26.41500 1866.48219 1945.00000 0.00051
1563 26.43000 1804.21369 1801.00000 0.00056
1564 26.44500 1798.91853 1901.00000 0.00053
1565 26.46000 1816.95091 1865.00000 0.00054
1566 26.47500 1819.77328 1879.00000 0.00053
1567 26.49000 1779.63529 1771.00000 0.00056
1568 26.50500 1691.07620 1679.00000 0.00060
1569 26.52000 1571.26818 1488.00000 0.00067
1570 26.53500 1446.91162 1382.00000 0.00072
1571 26.55000 1339.96665 1214.00000 0.00082
1572 26.56500 1261.11426 1167.00000 0.00086
1573 26.58000 1210.27427 1114.00000 0.00090
1574 26.59500 1181.08963 1130.00000 0.00088
1575 26.61000 1165.83898 1132.00000 0.00088
1576 26.62500 1158.44250 1135.00000 0.00088
1577 26.64000 1155.26049 1135.00000 0.00088
1578 26.65500 1154.61339 1110.00000 0.00090
1579 26.67000 1156.00239 1075.00000 0.00093
1580 26.68500 1159.53227 1162.00000 0.00086
1581 26.70000 1165.62126 1128.00000 0.00089
1582 26.71500 1174.86876 1153.00000 0.00087
1583 26.73000 1187.87190 1160.00000 0.00086
1584 26.74500 1204.80801 1215.00000 0.00082
1585 26.76000 1224.77009 1223.00000 0.00082
1586 26.77500 1245.14889 1254.00000 0.00080
1587 26.79000 1261.61138 1311.00000 0.00076
1588 26.80500 1269.11881 1372.00000 0.00073
1589 26.82000 1263.93438 1335.00000 0.00075
1590 26.83500 1245.90623 1349.00000 0.00074
1591 26.85000 1219.21034 1227.00000 0.00081
1592 26.86500 1190.17005 1196.00000 0.00084
1593 26.88000 1164.22251 1133.00000 0.00088
1594 26.89500 1144.33194 1114.00000 0.00090
1595 26.91000 1130.95477 1072.00000 0.00093
1596 26.92500 1122.95765 1078.00000 0.00093
1597 26.94000 1118.79387 1027.00000 0.00097
1598 26.95500 1117.28663 1092.00000 0.00092
1599 26.97000 1117.90124 1067.00000 0.00094
1600 26.98500 1120.68017 1039.00000 0.00096
1601 27.00000 1126.06749 1054.00000 0.00095
1602 27.01500 1134.78005 1072.00000 0.00093
1603 27.03000 1147.76432 1039.00000 0.00096
1604 27.04500 1166.14338 1059.00000 0.00094
1605 27.06000 1190.93017 1058.00000 0.00095
1606 27.07500 1222.29013 1107.00000 0.00090
1607 27.09000 1258.40854 1063.00000 0.00094
1608 27.10500 1294.52404 1073.00000 0.00093
1609 27.12000 1323.06334 1014.00000 0.00099
1610 27.13500 1335.54861 1069.00000 0.00094
1611 27.15000 1326.09242 1067.00000 0.00094
1612 27.16500 1295.14441 1078.00000 0.00093
1613 27.18000 1250.29577 1043.00000 0.00096
1614 27.19500 1202.26873 1027.00000 0.00097
1615 27.21000 1159.95090 1080.00000 0.00093
1616 27.22500 1127.95001 1082.00000 0.00092
1617 27.24000 1106.67282 1053.00000 0.00095
1618 27.25500 1093.91739 1054.00000 0.00095
1619 27.27000 1086.73748 1024.00000 0.00098
1620 27.28500 1082.66724 1108.00000 0.00090
1621 27.30000 1080.11679 1019.00000 0.00098
1622 27.31500 1078.24328 1061.00000 0.00094
1623 27.33000 1076.66697 1094.00000 0.00091
1624 27.34500 1075.23837 1039.00000 0.00096
1625 27.36000 1073.90480 1011.00000 0.00099
1626 27.37500 1072.65017 1060.00000 0.00094
1627 27.39000 1071.47158 1043.00000 0.00096
1628 27.40500 1070.37311 1066.00000 0.00094
1629 27.42000 1069.36641 1005.00000 0.00100
1630 27.43500 1068.47662 1030.00000 0.00097
1631 27.45000 1067.75581 1024.00000 0.00098
1632 27.46500 1067.30702 1032.00000 0.00097
1633 27.48000 1067.32197 1012.00000 0.00099
1634 27.49500 1068.12642 1014.00000 0.00099
1635 27.51000 1070.22767 1048.00000 0.00095
1636 27.52500 1074.35925 1038.00000 0.00096
1637 27.54000 1081.53668 1044.00000 0.00096
1638 27.55500 1093.16245 1112.00000 0.00090
1639 27.57000 1111.21773 1130.00000 0.00088
1640 27.58500 1138.50838 1153.00000 0.00087
1641 27.60000 1178.75705 1171.00000 0.00085
1642 27.61500 1236.18151 1246.00000 0.00080
1643 27.63000 1314.34515 1278.00000 0.00078
1644 27.64500 1414.61194 1416.00000 0.00071
1645 27.66000 1535.43628 1503.00000 0.00067
1646 27.67500 1673.54257 1684.00000 0.00059
1647 27.69000 1827.11636 1856.00000 0.00054
1648 27.70500 1998.86665 2097.00000 0.00048
1649 27.72000 2194.88353 2335.00000 0.00043
1650 27.73500 2415.07998 2837.00000 0.00035
1651 27.75000 2639.40502 3316.00000 0.00030
1652 27.76500 2822.62140 3868.00000 0.00026
1653 27.78000 2905.38535 3872.00000 0.00026
1654 27.79500 2840.06558 3673.00000 0.00027
1655 27.81000 2621.13932 3528.00000 0.00028
1656 27.82500 2296.54288 3159.00000 0.00032
1657 27.84000 1942.31436 2350.00000 0.00043
1658 27.85500 1625.44802 1824.00000 0.00055
1659 27.87000 1383.37077 1349.00000 0.00074
1660 27.88500 1222.26051 1245.00000 0.00080
1661 27.90000 1127.49543 1128.00000 0.00089
1662 27.91500 1077.36263 1099.00000 0.00091
1663 27.93000 1052.81735 1071.00000 0.00093
1664 27.94500 1041.16111 1042.00000 0.00096
1665 27.96000 1035.49417 1017.00000 0.00098
1666 27.97500 1032.69165 1044.00000 0.00096
1667 27.99000 1031.55064 1031.00000 0.00097
1668 28.00500 1031.76145 1043.00000 0.00096
1669 28.02000 1033.31675 1026.00000 0.00097
1670 28.03500 1036.20704 1068.00000 0.00094
1671 28.05000 1040.19717 1024.00000 0.00098
1672 28.06500 1044.64703 1055.00000 0.00095
1673 28.08000 1048.48561 1054.00000 0.00095
1674 28.09500 1050.45457 1071.00000 0.00093
1675 28.11000 1049.63260 1103.00000 0.00091
1676 28.12500 1046.09687 1045.00000 0.00096
1677 28.14000 1041.30895 1063.00000 0.00094
1678 28.15500 1037.75427 1108.00000 0.00090
1679 28.17000 1038.17009 1036.00000 0.00097
1680 28.18500 1045.03769 1091.00000 0.00092
1681 28.20000 1060.49047 1118.00000 0.00089
1682 28.21500 1086.50174 1146.00000 0.00087
1683 28.23000 1125.02347 1163.00000 0.00086
1684 28.24500 1177.55200 1266.00000 0.00079
1685 28.26000 1243.71210 1360.00000 0.00074
1686 28.27500 1319.09512 1461.00000 0.00068
1687 28.29000 1393.56418 1554.00000 0.00064
1688 28.30500 1451.80902 1678.00000 0.00060
1689 28.32000 1477.27258 1611.00000 0.00062
1690 28.33500 1458.94693 1658.00000 0.00060
1691 28.35000 1398.37922 1536.00000 0.00065
1692 28.36500 1310.75988 1435.00000 0.00070
1693 28.38000 1217.01658 1300.00000 0.00077
1694 28.39500 1134.46638 1194.00000 0.00084
1695 28.41000 1072.27260 1141.00000 0.00088
1696 28.42500 1031.61380 1144.00000 0.00087
1697 28.44000 1008.71889 1065.00000 0.00094
1698 28.45500 998.47948 1079.00000 0.00093
1699 28.47000 996.90059 1065.00000 0.00094
1700 28.48500 1001.96843 1125.00000 0.00089
1701 28.50000 1013.47179 1144.00000 0.00087
1702 28.51500 1032.48273 1212.00000 0.00083
1703 28.53000 1060.87753 1265.00000 0.00079
1704 28.54500 1100.83766 1401.00000 0.00071
1705 28.56000 1153.94389 1506.00000 0.00066
1706 28.57500 1219.53849 1722.00000 0.00058
1707 28.59000 1292.65415 1923.00000 0.00052
1708 28.60500 1362.71694 2244.00000 0.00045
1709 28.62000 1414.62857 2356.00000 0.00042
1710 28.63500 1433.03397 2460.00000 0.00041
1711 28.65000 1409.01959 2358.00000 0.00042
1712 28.66500 1346.26647 2153.00000 0.00046
1713 28.68000 1260.65093 1891.00000 0.00053
1714 28.69500 1171.97117 1601.00000 0.00062
1715 28.71000 1095.63135 1348.00000 0.00074
1716 28.72500 1039.06547 1165.00000 0.00086
1717 28.74000 1002.35392 1112.00000 0.00090
1718 28.75500 981.22721 1063.00000 0.00094
1719 28.77000 970.33720 992.00000 0.00101
1720 28.78500 965.34733 1010.00000 0.00099
1721 28.80000 963.63086 994.00000 0.00101
1722 28.81500 964.15921 940.00000 0.00106
1723 28.83000 967.20234 960.00000 0.00104
1724 28.84500 974.22701 1001.00000 0.00100
1725 28.86000 987.97984 968.00000 0.00103
1726 28.87500 1012.65321 1033.00000 0.00097
1727 28.89000 1054.02060 1090.00000 0.00092
1728 28.90500 1119.51755 1105.00000 0.00090
1729 28.92000 1218.25249 1183.00000 0.00085
1730 28.93500 1360.75927 1287.00000 0.00078
1731 28.95000 1557.52171 1382.00000 0.00072
1732 28.96500 1814.81419 1630.00000 0.00061
1733 28.98000 2126.98624 1896.00000 0.00053
1734 28.99500 2467.38559 2297.00000 0.00044
1735 29.01000 2783.94415 2689.00000 0.00037
1736 29.02500 3006.36982 2983.00000 0.00034
1737 29.04000 3067.47411 2957.00000 0.00034
1738 29.05500 2934.07973 2830.00000 0.00035
1739 29.07000 2632.11986 2511.00000 0.00040
1740 29.08500 2238.69611 2270.00000 0.00044
1741 29.10000 1842.27663 1718.00000 0.00058
1742 29.11500 1507.95172 1428.00000 0.00070
1743 29.13000 1264.40053 1158.00000 0.00086
1744 29.14500 1108.61072 1072.00000 0.00093
1745 29.16000 1019.91566 984.00000 0.00102
1746 29.17500 974.17325 937.00000 0.00107
1747 29.19000 952.20822 896.00000 0.00112
1748 29.20500 941.99118 953.00000 0.00105
1749 29.22000 937.27713 917.00000 0.00109
1750 29.23500 935.33977 947.00000 0.00106
1751 29.25000 935.19359 916.00000 0.00109
1752 29.26500 936.54341 883.00000 0.00113
1753 29.28000 939.22594 909.00000 0.00110
1754 29.29500 942.89712 900.00000 0.00111
1755 29.31000 946.88087 878.00000 0.00114
1756 29.32500 950.22180 881.00000 0.00114
1757 29.34000 951.98622 883.00000 0.00113
1758 29.35500 951.76616 895.00000 0.00112
1759 29.37000 950.20644 912.00000 0.00110
1760 29.38500 949.14703 925.00000 0.00108
1761 29.40000 951.13037 930.00000 0.00108
1762 29.41500 958.72942 934.00000 0.00107
1763 29.43000 974.09162 927.00000 0.00108
1764 29.44500 998.57888 999.00000 0.00100
1765 29.46000 1032.23670 987.00000 0.00101
1766 29.47500 1072.99445 1045.00000 0.00096
1767 29.49000 1115.93090 1093.00000 0.00091
1768 29.50500 1153.34027 1084.00000 0.00092
1769 29.52000 1176.24564 1099.00000 0.00091
1770 29.53500 1177.42356 1133.00000 0.00088
1771 29.55000 1155.01680 1127.00000 0.00089
1772 29.56500 1114.13368 1145.00000 0.00087
1773 29.58000 1064.36586 1100.00000 0.00091
1774 29.59500 1015.57794 1081.00000 0.00093
1775 29.61000 974.72064 1069.00000 0.00094
1776 29.62500 944.56123 1067.00000 0.00094
1777 29.64000 924.35441 1027.00000 0.00097
1778 29.65500 911.53266 1022.00000 0.00098
1779 29.67000 903.35962 976.00000 0.00102
1780 29.68500 897.90802 980.00000 0.00102
1781 29.70000 894.22962 911.00000 0.00110
1782 29.71500 892.06168 914.00000 0.00109
1783 29.73000 891.48268 928.00000 0.00108
1784 29.74500 892.68647 920.00000 0.00109
1785 29.76000 895.87352 866.00000 0.00115
1786 29.77500 901.17239 907.00000 0.00110
1787 29.79000 908.49037 917.00000 0.00109
1788 29.80500 917.27270 968.00000 0.00103
1789 29.82000 926.28693 935.00000 0.00107
1790 29.83500 933.64202 968.00000 0.00103
1791 29.85000 937.19783 924.00000 0.00108
1792 29.86500 935.34064 941.00000 0.00106
1793 29.88000 927.87378 929.00000 0.00108
1794 29.89500 916.36847 916.00000 0.00109
1795 29.91000 903.39553 919.00000 0.00109
1796 29.92500 891.31251 865.00000 0.00116
1797 29.94000 881.57615 865.00000 0.00116
1798 29.95500 874.59507 885.00000 0.00113
1799 29.97000 870.02273 839.00000 0.00119
1800 29.98500 867.19140 837.00000 0.00119
1801 30.00000 865.46137 830.00000 0.00120
1802 30.01500 864.38347 825.00000 0.00121
1803 30.03000 863.70763 835.00000 0.00120
1804 30.04500 863.31702 852.00000 0.00117
1805 30.06000 863.14781 854.00000 0.00117
1806 30.07500 863.12247 838.00000 0.00119
1807 30.09000 863.10969 857.00000 0.00117
1808 30.10500 862.92248 889.00000 0.00112
1809 30.12000 862.35930 849.00000 0.00118
1810 30.13500 861.27974 904.00000 0.00111
1811 30.15000 859.68560 849.00000 0.00118
1812 30.16500 857.74137 815.00000 0.00123
1813 30.18000 855.69176 802.00000 0.00125
1814 30.19500 853.75175 813.00000 0.00123
1815 30.21000 852.04612 827.00000 0.00121
1816 30.22500 850.60300 859.00000 0.00116
1817 30.24000 849.38321 790.00000 0.00127
1818 30.25500 848.32089 810.00000 0.00123
1819 30.27000 847.35448 812.00000 0.00123
1820 30.28500 846.44079 851.00000 0.00118
1821 30.30000 845.55496 829.00000 0.00121
1822 30.31500 844.68554 807.00000 0.00124
1823 30.33000 843.82924 823.00000 0.00122
1824 30.34500 842.98800 806.00000 0.00124
1825 30.36000 842.16808 808.00000 0.00124
1826 30.37500 841.38025 784.00000 0.00128
1827 30.39000 840.64053 804.00000 0.00124
1828 30.40500 839.97067 807.00000 0.00124
1829 30.42000 839.39817 787.00000 0.00127
1830 30.43500 838.95457 820.00000 0.00122
1831 30.45000 838.67005 814.00000 0.00123
1832 30.46500 838.56098 792.00000 0.00126
1833 30.48000 838.60931 790.00000 0.00127
1834 30.49500 838.73987 812.00000 0.00123
1835 30.51000 838.81086 799.00000 0.00125
1836 30.52500 838.63404 796.00000 0.00126
1837 30.54000 838.03012 766.00000 0.00131
1838 30.55500 836.90781 797.00000 0.00125
1839 30.57000 835.32858 786.00000 0.00127
1840 30.58500 833.48550 766.00000 0.00131
1841 30.60000 831.63020 802.00000 0.00125
1842 30.61500 829.93146 783.00000 0.00128
1843 30.63000 828.47557 788.00000 0.00127
1844 30.64500 827.26390 790.00000 0.00127
1845 30.66000 826.24695 783.00000 0.00128
1846 30.67500 825.36138 798.00000 0.00125
1847 30.69000 824.55416 799.00000 0.00125
1848 30.70500 823.79031 810.00000 0.00123
1849 30.72000 823.04871 770.00000 0.00130
1850 30.73500 822.32945 797.00000 0.00125
1851 30.75000 821.62519 782.00000 0.00128
1852 30.76500 820.93689 777.00000 0.00129
1853 30.78000 820.26856 771.00000 0.00130
1854 30.79500 819.62933 741.00000 0.00135
1855 30.81000 819.03883 794.00000 0.00126
1856 30.82500 818.53688 817.00000 0.00122
1857 30.84000 818.19850 789.00000 0.00127
1858 30.85500 818.15340 807.00000 0.00124
1859 30.87000 818.60749 793.00000 0.00126
1860 30.88500 819.86269 808.00000 0.00124
1861 30.90000 822.33042 795.00000 0.00126
1862 30.91500 826.53148 809.00000 0.00124
1863 30.93000 833.05950 820.00000 0.00122
1864 30.94500 842.46779 811.00000 0.00123
1865 30.96000 855.02853 768.00000 0.00130
1866 30.97500 870.35776 813.00000 0.00123
1867 30.99000 887.00131 806.00000 0.00124
1868 31.00500 902.32842 814.00000 0.00123
1869 31.02000 912.92951 797.00000 0.00125
1870 31.03500 915.62961 836.00000 0.00120
1871 31.05000 908.90894 810.00000 0.00123
1872 31.06500 894.01332 789.00000 0.00127
1873 31.08000 874.56417 795.00000 0.00126
1874 31.09500 854.75978 786.00000 0.00127
1875 31.11000 837.77855 781.00000 0.00128
1876 31.12500 825.14434 772.00000 0.00130
1877 31.14000 816.88494 759.00000 0.00132
1878 31.15500 812.15142 775.00000 0.00129
1879 31.17000 809.90277 771.00000 0.00130
1880 31.18500 809.38993 803.00000 0.00125
1881 31.20000 810.40524 805.00000 0.00124
1882 31.21500 813.40940 794.00000 0.00126
1883 31.23000 819.65361 785.00000 0.00127
1884 31.24500 831.34361 838.00000 0.00119
1885 31.26000 851.82455 888.00000 0.00113
1886 31.27500 885.72546 946.00000 0.00106
1887 31.29000 938.94054 1001.00000 0.00100
1888 31.30500 1018.17851 1135.00000 0.00088
1889 31.32000 1129.61600 1273.00000 0.00079
1890 31.33500 1276.13220 1507.00000 0.00066
1891 31.35000 1453.10134 1820.00000 0.00055
1892 31.36500 1644.14296 2205.00000 0.00045
1893 31.38000 1819.82554 2577.00000 0.00039
1894 31.39500 1942.32664 2766.00000 0.00036
1895 31.41000 1976.75658 2941.00000 0.00034
1896 31.42500 1906.66048 2792.00000 0.00036
1897 31.44000 1745.99142 2505.00000 0.00040
1898 31.45500 1534.61670 2100.00000 0.00048
1899 31.47000 1318.60486 1553.00000 0.00064
1900 31.48500 1132.89093 1256.00000 0.00080
1901 31.50000 994.27334 1021.00000 0.00098
1902 31.51500 903.05103 921.00000 0.00109
1903 31.53000 849.61105 855.00000 0.00117
1904 31.54500 821.60356 819.00000 0.00122
1905 31.56000 808.64155 800.00000 0.00125
1906 31.57500 803.92025 780.00000 0.00128
1907 31.59000 803.80304 771.00000 0.00130
1908 31.60500 806.67749 786.00000 0.00127
1909 31.62000 811.86630 789.00000 0.00127
1910 31.63500 818.82743 777.00000 0.00129
1911 31.65000 826.67513 775.00000 0.00129
1912 31.66500 833.99900 772.00000 0.00130
1913 31.68000 839.05306 754.00000 0.00133
1914 31.69500 840.28258 788.00000 0.00127
1915 31.71000 837.05238 777.00000 0.00129
1916 31.72500 830.20844 770.00000 0.00130
1917 31.74000 821.86905 784.00000 0.00128
1918 31.75500 814.49524 780.00000 0.00128
1919 31.77000 810.03410 783.00000 0.00128
1920 31.78500 809.48011 778.00000 0.00129
1921 31.80000 812.77155 804.00000 0.00124
1922 31.81500 818.89991 770.00000 0.00130
1923 31.83000 826.15105 823.00000 0.00122
1924 31.84500 832.47406 835.00000 0.00120
1925 31.86000 836.00388 820.00000 0.00122
1926 31.87500 835.70235 869.00000 0.00115
1927 31.89000 831.90036 864.00000 0.00116
1928 31.90500 826.21023 858.00000 0.00117
1929 31.92000 820.64696 852.00000 0.00117
1930 31.93500 816.70345 868.00000 0.00115
1931 31.95000 815.00466 860.00000 0.00116
1932 31.96500 815.57266 891.00000 0.00112
1933 31.98000 818.58753 890.00000 0.00112
1934 31.99500 825.39715 852.00000 0.00117
1935 32.01000 839.38795 880.00000 0.00114
1936 32.02500 866.34267 885.00000 0.00113
1937 32.04000 914.29092 925.00000 0.00108
1938 32.05500 993.07637 977.00000 0.00102
1939 32.07000 1113.30671 986.00000 0.00101
1940 32.08500 1283.96158 1127.00000 0.00089
1941 32.10000 1507.96829 1299.00000 0.00077
1942 32.11500 1776.01487 1525.00000 0.00066
1943 32.13000 2060.89606 1839.00000 0.00054
1944 32.14500 2316.85403 2130.00000 0.00047
1945 32.16000 2487.78324 2254.00000 0.00044
1946 32.17500 2524.62714 2253.00000 0.00044
1947 32.19000 2407.81411 2213.00000 0.00045
1948 32.20500 2162.52562 1995.00000 0.00050
1949 32.22000 1849.04020 1672.00000 0.00060
1950 32.23500 1533.70008 1377.00000 0.00073
1951 32.25000 1265.37717 1067.00000 0.00094
1952 32.26500 1066.63913 897.00000 0.00111
1953 32.28000 936.79081 828.00000 0.00121
1954 32.29500 861.54335 833.00000 0.00120
1955 32.31000 823.25153 780.00000 0.00128
1956 32.32500 807.64836 782.00000 0.00128
1957 32.34000 806.42195 806.00000 0.00124
1958 32.35500 817.18842 865.00000 0.00116
1959 32.37000 842.64824 837.00000 0.00119
1960 32.38500 889.95033 950.00000 0.00105
1961 32.40000 970.40912 989.00000 0.00101
1962 32.41500 1099.13845 1115.00000 0.00090
1963 32.43000 1293.69459 1284.00000 0.00078
1964 32.44500 1570.43757 1554.00000 0.00064
1965 32.46000 1937.44000 1851.00000 0.00054
1966 32.47500 2384.10735 2367.00000 0.00042
1967 32.49000 2870.83255 2975.00000 0.00034
1968 32.50500 3325.61487 3488.00000 0.00029
1969 32.52000 3654.74734 3652.00000 0.00027
1970 32.53500 3769.48875 3865.00000 0.00026
1971 32.55000 3623.33673 3660.00000 0.00027
1972 32.56500 3242.95125 3343.00000 0.00030
1973 32.58000 2721.78316 2746.00000 0.00036
1974 32.59500 2174.33934 2092.00000 0.00048
1975 32.61000 1692.00932 1673.00000 0.00060
1976 32.62500 1322.97564 1296.00000 0.00077
1977 32.64000 1073.56300 1065.00000 0.00094
1978 32.65500 922.84088 961.00000 0.00104
1979 32.67000 840.26163 851.00000 0.00118
1980 32.68500 798.30284 849.00000 0.00118
1981 32.70000 777.68966 793.00000 0.00126
1982 32.71500 767.17766 760.00000 0.00132
1983 32.73000 761.12279 775.00000 0.00129
1984 32.74500 757.02110 751.00000 0.00133
1985 32.76000 753.85934 736.00000 0.00136
1986 32.77500 751.22858 748.00000 0.00134
1987 32.79000 748.96408 720.00000 0.00139
1988 32.80500 746.97920 739.00000 0.00135
1989 32.82000 745.22062 709.00000 0.00141
1990 32.83500 743.65249 744.00000 0.00134
1991 32.85000 742.25309 695.00000 0.00144
1992 32.86500 741.00026 702.00000 0.00142
1993 32.88000 739.88673 712.00000 0.00140
1994 32.89500 738.91446 692.00000 0.00145
1995 32.91000 738.08490 706.00000 0.00142
1996 32.92500 737.39615 677.00000 0.00148
1997 32.94000 736.83441 681.00000 0.00147
1998 32.95500 736.36532 701.00000 0.00143
1999 32.97000 735.92994 683.00000 0.00146
2000 32.98500 735.45124 724.00000 0.00138
2001 33.00000 734.85279 692.00000 0.00145
2002 33.01500 734.08761 703.00000 0.00142
2003 33.03000 733.16938 703.00000 0.00142
2004 33.04500 732.16269 712.00000 0.00140
2005 33.06000 731.16249 683.00000 0.00146
2006 33.07500 730.25730 698.00000 0.00143
2007 33.09000 729.51472 689.00000 0.00145
2008 33.10500 728.98587 717.00000 0.00139
2009 33.12000 728.72270 693.00000 0.00144
2010 33.13500 728.79855 727.00000 0.00138
2011 33.15000 729.32257 727.00000 0.00138
2012 33.16500 730.43897 736.00000 0.00136
2013 33.18000 732.30238 744.00000 0.00134
2014 33.19500 735.02172 792.00000 0.00126
2015 33.21000 738.57305 830.00000 0.00120
2016 33.22500 742.70363 832.00000 0.00120
2017 33.24000 746.87931 895.00000 0.00112
2018 33.25500 750.34053 935.00000 0.00107
2019 33.27000 752.30349 889.00000 0.00112
2020 33.28500 752.28926 927.00000 0.00108
2021 33.30000 750.49366 881.00000 0.00114
2022 33.31500 747.97800 850.00000 0.00118
2023 33.33000 746.54042 837.00000 0.00119
2024 33.34500 748.53804 836.00000 0.00120
2025 33.36000 756.93390 782.00000 0.00128
2026 33.37500 775.54695 833.00000 0.00120
2027 33.39000 809.33690 803.00000 0.00125
2028 33.40500 864.42206 862.00000 0.00116
2029 33.42000 947.37141 950.00000 0.00105
2030 33.43500 1063.28127 1063.00000 0.00094
2031 33.45000 1212.53404 1255.00000 0.00080
2032 33.46500 1386.72206 1461.00000 0.00068
2033 33.48000 1565.86932 1789.00000 0.00056
2034 33.49500 1719.37265 2078.00000 0.00048
2035 33.51000 1812.46770 2231.00000 0.00045
2036 33.52500 1817.72876 2119.00000 0.00047
2037 33.54000 1728.37391 1975.00000 0.00051
2038 33.55500 1564.91445 1851.00000 0.00054
2039 33.57000 1366.11936 1488.00000 0.00067
2040 33.58500 1171.37304 1145.00000 0.00087
2041 33.60000 1008.18809 961.00000 0.00104
2042 33.61500 888.20670 821.00000 0.00122
2043 33.63000 809.69385 751.00000 0.00133
2044 33.64500 763.41320 754.00000 0.00133
2045 33.66000 738.44183 717.00000 0.00139
2046 33.67500 725.76384 715.00000 0.00140
2047 33.69000 719.40355 730.00000 0.00137
2048 33.70500 716.02029 698.00000 0.00143
2049 33.72000 714.00821 676.00000 0.00148
2050 33.73500 712.70994 710.00000 0.00141
2051 33.75000 711.92645 695.00000 0.00144
2052 33.76500 711.67036 709.00000 0.00141
2053 33.78000 712.05536 668.00000 0.00150
2054 33.79500 713.23608 691.00000 0.00145
2055 33.81000 715.34631 692.00000 0.00145
2056 33.82500 718.41120 722.00000 0.00139
2057 33.84000 722.24154 722.00000 0.00139
2058 33.85500 726.35207 750.00000 0.00133
2059 33.87000 729.96968 695.00000 0.00144
2060 33.88500 732.18133 724.00000 0.00138
2061 33.90000 732.21746 767.00000 0.00130
2062 33.91500 729.80145 736.00000 0.00136
2063 33.93000 725.37246 727.00000 0.00138
2064 33.94500 719.92250 724.00000 0.00138
2065 33.96000 714.56314 722.00000 0.00139
2066 33.97500 710.19237 703.00000 0.00142
2067 33.99000 707.39127 688.00000 0.00145
2068 34.00500 706.51263 704.00000 0.00142
2069 34.02000 707.86778 682.00000 0.00147
2070 34.03500 711.91076 684.00000 0.00146
2071 34.05000 719.31776 707.00000 0.00141
2072 34.06500 730.89088 669.00000 0.00149
2073 34.08000 747.24647 676.00000 0.00148
2074 34.09500 768.30729 668.00000 0.00150
2075 34.11000 792.73004 670.00000 0.00149
2076 34.12500 817.54836 679.00000 0.00147
2077 34.14000 838.38026 662.00000 0.00151
2078 34.15500 850.40006 679.00000 0.00147
2079 34.17000 849.96775 685.00000 0.00146
2080 34.18500 836.43421 668.00000 0.00150
2081 34.20000 812.90377 674.00000 0.00148
2082 34.21500 784.83103 654.00000 0.00153
2083 34.23000 757.60628 640.00000 0.00156
2084 34.24500 734.92803 696.00000 0.00144
2085 34.26000 718.31638 685.00000 0.00146
2086 34.27500 707.48527 698.00000 0.00143
2087 34.29000 701.15235 708.00000 0.00141
2088 34.30500 697.82663 709.00000 0.00141
2089 34.32000 696.29369 685.00000 0.00146
2090 34.33500 695.77448 725.00000 0.00138
2091 34.35000 695.89547 697.00000 0.00143
2092 34.36500 696.61927 722.00000 0.00139
2093 34.38000 698.23980 709.00000 0.00141
2094 34.39500 701.48760 741.00000 0.00135
2095 34.41000 707.75239 732.00000 0.00137
2096 34.42500 719.39999 784.00000 0.00128
2097 34.44000 740.12157 821.00000 0.00122
2098 34.45500 775.18329 872.00000 0.00115
2099 34.47000 831.32371 859.00000 0.00116
2100 34.48500 915.89023 1007.00000 0.00099
2101 34.50000 1034.76476 1086.00000 0.00092
2102 34.51500 1188.95916 1260.00000 0.00079
2103 34.53000 1370.58446 1404.00000 0.00071
2104 34.54500 1560.00454 1642.00000 0.00061
2105 34.56000 1726.63065 1766.00000 0.00057
2106 34.57500 1835.02049 1887.00000 0.00053
2107 34.59000 1855.93814 1894.00000 0.00053
2108 34.60500 1779.50375 1867.00000 0.00054
2109 34.62000 1622.59645 1664.00000 0.00060
2110 34.63500 1421.74364 1570.00000 0.00064
2111 34.65000 1216.92951 1349.00000 0.00074
2112 34.66500 1038.61728 1115.00000 0.00090
2113 34.68000 902.18086 1015.00000 0.00099
2114 34.69500 808.98363 905.00000 0.00110
2115 34.71000 751.48045 849.00000 0.00118
2116 34.72500 719.00768 791.00000 0.00126
2117 34.74000 701.87942 777.00000 0.00129
2118 34.75500 693.13618 769.00000 0.00130
2119 34.77000 688.56237 760.00000 0.00132
2120 34.78500 685.94097 699.00000 0.00143
2121 34.80000 684.24445 730.00000 0.00137
2122 34.81500 683.05461 691.00000 0.00145
2123 34.83000 682.23182 697.00000 0.00143
2124 34.84500 681.75214 729.00000 0.00137
2125 34.86000 681.62895 698.00000 0.00143
2126 34.87500 681.86543 697.00000 0.00143
2127 34.89000 682.41540 716.00000 0.00140
2128 34.90500 683.15262 753.00000 0.00133
2129 34.92000 683.86271 725.00000 0.00138
2130 34.93500 684.27305 707.00000 0.00141
2131 34.95000 684.12376 716.00000 0.00140
2132 34.96500 683.26603 744.00000 0.00134
2133 34.98000 681.74723 682.00000 0.00147
2134 34.99500 679.80466 697.00000 0.00143
2135 35.01000 677.75144 677.00000 0.00148
2136 35.02500 675.85445 712.00000 0.00140
2137 35.04000 674.27111 686.00000 0.00146
2138 35.05500 673.04362 684.00000 0.00146
2139 35.07000 672.12954 628.00000 0.00159
2140 35.08500 671.44866 668.00000 0.00150
2141 35.10000 670.91885 654.00000 0.00153
2142 35.11500 670.47959 666.00000 0.00150
2143 35.13000 670.09230 657.00000 0.00152
2144 35.14500 669.73632 657.00000 0.00152
2145 35.16000 669.40235 614.00000 0.00163
2146 35.17500 669.08737 648.00000 0.00154
2147 35.19000 668.79216 658.00000 0.00152
2148 35.20500 668.52064 657.00000 0.00152
2149 35.22000 668.28075 648.00000 0.00154
2150 35.23500 668.08716 675.00000 0.00148
2151 35.25000 667.95431 645.00000 0.00155
2152 35.26500 667.91177 640.00000 0.00156
2153 35.28000 667.99383 651.00000 0.00154
2154 35.29500 668.23507 652.00000 0.00153
2155 35.31000 668.65950 654.00000 0.00153
2156 35.32500 669.26378 626.00000 0.00160
2157 35.34000 670.00010 668.00000 0.00150
2158 35.35500 670.76830 659.00000 0.00152
2159 35.37000 671.42745 656.00000 0.00152
2160 35.38500 671.83138 690.00000 0.00145
2161 35.40000 671.88344 662.00000 0.00151
2162 35.41500 671.59340 681.00000 0.00147
2163 35.43000 671.09697 669.00000 0.00149
2164 35.44500 670.61109 684.00000 0.00146
2165 35.46000 670.36938 675.00000 0.00148
2166 35.47500 670.59638 694.00000 0.00144
2167 35.49000 671.53339 699.00000 0.00143
2168 35.50500 673.52234 698.00000 0.00143
2169 35.52000 677.15894 664.00000 0.00151
2170 35.53500 683.51948 714.00000 0.00140
2171 35.55000 694.50464 706.00000 0.00142
2172 35.56500 713.25612 745.00000 0.00134
2173 35.58000 744.63992 790.00000 0.00127
2174 35.59500 795.62630 864.00000 0.00116
2175 35.61000 875.20407 965.00000 0.00104
2176 35.62500 993.22988 1080.00000 0.00093
2177 35.64000 1157.55983 1231.00000 0.00081
2178 35.65500 1369.29521 1474.00000 0.00068
2179 35.67000 1617.17048 1615.00000 0.00062
2180 35.68500 1873.74643 1984.00000 0.00050
2181 35.70000 2096.84918 2179.00000 0.00046
2182 35.71500 2238.29387 2398.00000 0.00042
2183 35.73000 2259.10074 2367.00000 0.00042
2184 35.74500 2147.21111 2273.00000 0.00044
2185 35.76000 1927.27530 2044.00000 0.00049
2186 35.77500 1650.38082 1751.00000 0.00057
2187 35.79000 1371.14347 1415.00000 0.00071
2188 35.80500 1130.15427 1256.00000 0.00080
2189 35.82000 947.22171 1008.00000 0.00099
2190 35.83500 823.30922 900.00000 0.00111
2191 35.85000 747.59310 820.00000 0.00122
2192 35.86500 705.32626 777.00000 0.00129
2193 35.88000 683.32974 715.00000 0.00140
2194 35.89500 672.25938 690.00000 0.00145
2195 35.91000 666.53007 681.00000 0.00147
2196 35.92500 663.24104 648.00000 0.00154
2197 35.94000 661.05118 661.00000 0.00151
2198 35.95500 659.41858 658.00000 0.00152
2199 35.97000 658.12083 665.00000 0.00150
2200 35.98500 657.08884 659.00000 0.00152
2201 36.00000 656.31753 654.00000 0.00153
2202 36.01500 655.83666 653.00000 0.00153
2203 36.03000 655.69571 642.00000 0.00156
2204 36.04500 655.94623 680.00000 0.00147
2205 36.06000 656.61526 627.00000 0.00159
2206 36.07500 657.67283 698.00000 0.00143
2207 36.09000 659.00635 707.00000 0.00141
2208 36.10500 660.40590 658.00000 0.00152
2209 36.12000 661.61745 655.00000 0.00153
2210 36.13500 662.39803 689.00000 0.00145
2211 36.15000 662.61182 672.00000 0.00149
2212 36.16500 662.29512 682.00000 0.00147
2213 36.18000 661.63471 669.00000 0.00149
2214 36.19500 660.87779 641.00000 0.00156
2215 36.21000 660.25636 660.00000 0.00152
2216 36.22500 659.99447 665.00000 0.00150
2217 36.24000 660.42206 671.00000 0.00149
2218 36.25500 662.16198 667.00000 0.00150
2219 36.27000 666.28709 670.00000 0.00149
2220 36.28500 674.33953 700.00000 0.00143
2221 36.30000 688.16119 710.00000 0.00141
2222 36.31500 709.48427 766.00000 0.00131
2223 36.33000 739.24960 796.00000 0.00126
2224 36.34500 776.72277 856.00000 0.00117
2225 36.36000 818.71461 888.00000 0.00113
2226 36.37500 859.38631 937.00000 0.00107
2227 36.39000 891.07479 962.00000 0.00104
2228 36.40500 906.23858 1002.00000 0.00100
2229 36.42000 900.18947 949.00000 0.00105
2230 36.43500 873.61282 951.00000 0.00105
2231 36.45000 832.78403 906.00000 0.00110
2232 36.46500 786.65198 831.00000 0.00120
2233 36.48000 743.31271 763.00000 0.00131
2234 36.49500 707.98507 749.00000 0.00134
2235 36.51000 682.60185 681.00000 0.00147
2236 36.52500 666.57829 651.00000 0.00154
2237 36.54000 658.14853 658.00000 0.00152
2238 36.55500 655.64477 682.00000 0.00147
2239 36.57000 658.36728 633.00000 0.00158
2240 36.58500 667.01878 708.00000 0.00141
2241 36.60000 683.81843 670.00000 0.00149
2242 36.61500 712.33772 679.00000 0.00147
2243 36.63000 756.92736 690.00000 0.00145
2244 36.64500 821.49063 787.00000 0.00127
2245 36.66000 907.49089 815.00000 0.00123
2246 36.67500 1011.54931 927.00000 0.00108
2247 36.69000 1123.60904 1034.00000 0.00097
2248 36.70500 1226.98547 1153.00000 0.00087
2249 36.72000 1301.26886 1166.00000 0.00086
2250 36.73500 1328.03528 1222.00000 0.00082
2251 36.75000 1298.15545 1186.00000 0.00084
2252 36.76500 1217.41781 1170.00000 0.00085
2253 36.78000 1104.80217 1011.00000 0.00099
2254 36.79500 983.79251 862.00000 0.00116
2255 36.81000 873.94246 784.00000 0.00128
2256 36.82500 786.70694 727.00000 0.00138
2257 36.84000 725.16204 693.00000 0.00144
2258 36.85500 686.34991 650.00000 0.00154
2259 36.87000 664.56319 619.00000 0.00162
2260 36.88500 654.02762 631.00000 0.00158
2261 36.90000 650.27727 620.00000 0.00161
2262 36.91500 650.36742 647.00000 0.00155
2263 36.93000 652.46893 629.00000 0.00159
2264 36.94500 655.35540 632.00000 0.00158
2265 36.96000 658.07561 641.00000 0.00156
2266 36.97500 659.89012 641.00000 0.00156
2267 36.99000 660.42210 637.00000 0.00157
2268 37.00500 659.90336 647.00000 0.00155
2269 37.02000 659.30339 630.00000 0.00159
2270 37.03500 660.14419 668.00000 0.00150
2271 37.05000 664.09102 644.00000 0.00155
2272 37.06500 672.50335 649.00000 0.00154
2273 37.08000 685.98044 668.00000 0.00150
2274 37.09500 703.93649 667.00000 0.00150
2275 37.11000 724.34165 675.00000 0.00148
2276 37.12500 743.80943 713.00000 0.00140
2277 37.14000 758.21922 715.00000 0.00140
2278 37.15500 763.82117 746.00000 0.00134
2279 37.17000 758.59273 698.00000 0.00143
2280 37.18500 743.38157 718.00000 0.00139
2281 37.20000 721.67970 664.00000 0.00151
2282 37.21500 698.00008 670.00000 0.00149
2283 37.23000 676.21143 645.00000 0.00155
2284 37.24500 658.66518 673.00000 0.00149
2285 37.26000 646.08079 675.00000 0.00148
2286 37.27500 637.95761 649.00000 0.00154
2287 37.29000 633.19967 653.00000 0.00153
2288 37.30500 630.65347 644.00000 0.00155
2289 37.32000 629.40792 595.00000 0.00168
2290 37.33500 628.87036 628.00000 0.00159
2291 37.35000 628.71379 605.00000 0.00165
2292 37.36500 628.78893 630.00000 0.00159
2293 37.38000 629.05568 615.00000 0.00163
2294 37.39500 629.55378 615.00000 0.00163
2295 37.41000 630.41803 631.00000 0.00158
2296 37.42500 631.94185 616.00000 0.00162
2297 37.44000 634.70200 637.00000 0.00157
2298 37.45500 639.74489 640.00000 0.00156
2299 37.47000 648.82559 636.00000 0.00157
2300 37.48500 664.64172 705.00000 0.00142
2301 37.50000 690.93567 688.00000 0.00145
2302 37.51500 732.25724 709.00000 0.00141
2303 37.53000 793.14664 756.00000 0.00132
2304 37.54500 876.63372 785.00000 0.00127
2305 37.56000 982.34750 854.00000 0.00117
2306 37.57500 1105.05442 897.00000 0.00111
2307 37.59000 1234.69125 1000.00000 0.00100
2308 37.60500 1358.55998 1103.00000 0.00091
2309 37.62000 1465.36619 1203.00000 0.00083
2310 37.63500 1549.81765 1322.00000 0.00076
2311 37.65000 1615.21903 1410.00000 0.00071
2312 37.66500 1669.96753 1609.00000 0.00062
2313 37.68000 1718.38426 1804.00000 0.00055
2314 37.69500 1753.78160 1888.00000 0.00053
2315 37.71000 1759.17696 2032.00000 0.00049
2316 37.72500 1715.21639 2012.00000 0.00050
2317 37.74000 1612.08026 1902.00000 0.00053
2318 37.75500 1458.22266 1727.00000 0.00058
2319 37.77000 1277.61288 1488.00000 0.00067
2320 37.78500 1098.33998 1283.00000 0.00078
2321 37.80000 942.65762 1052.00000 0.00095
2322 37.81500 822.31734 898.00000 0.00111
2323 37.83000 738.65116 778.00000 0.00129
2324 37.84500 685.86202 765.00000 0.00131
2325 37.86000 655.29162 675.00000 0.00148
2326 37.87500 638.74177 681.00000 0.00147
2327 37.89000 630.08772 671.00000 0.00149
2328 37.90500 625.47289 685.00000 0.00146
2329 37.92000 622.78474 654.00000 0.00153
2330 37.93500 620.99464 671.00000 0.00149
2331 37.95000 619.64499 650.00000 0.00154
2332 37.96500 618.52457 664.00000 0.00151
2333 37.98000 617.56591 628.00000 0.00159
2334 37.99500 616.73279 639.00000 0.00156
2335 38.01000 616.00701 660.00000 0.00152
2336 38.02500 615.37785 661.00000 0.00151
2337 38.04000 614.83282 608.00000 0.00164
2338 38.05500 614.36024 649.00000 0.00154
2339 38.07000 613.94494 596.00000 0.00168
2340 38.08500 613.56882 636.00000 0.00157
2341 38.10000 613.21486 635.00000 0.00157
2342 38.11500 612.87298 594.00000 0.00168
2343 38.13000 612.54800 616.00000 0.00162
2344 38.14500 612.26833 615.00000 0.00163
2345 38.16000 612.09579 611.00000 0.00164
2346 38.17500 612.14317 613.00000 0.00163
2347 38.19000 612.63635 593.00000 0.00169
2348 38.20500 613.94118 616.00000 0.00162
2349 38.22000 616.68413 591.00000 0.00169
2350 38.23500 621.83059 590.00000 0.00169
2351 38.25000 630.71700 608.00000 0.00164
2352 38.26500 644.94824 615.00000 0.00163
2353 38.28000 666.04737 635.00000 0.00157
2354 38.29500 694.81901 654.00000 0.00153
2355 38.31000 730.52100 676.00000 0.00148
2356 38.32500 770.16087 702.00000 0.00142
2357 38.34000 808.36402 723.00000 0.00138
2358 38.35500 838.16504 751.00000 0.00133
2359 38.37000 852.76107 749.00000 0.00134
2360 38.38500 847.92209 753.00000 0.00133
2361 38.40000 824.17748 736.00000 0.00136
2362 38.41500 787.01577 705.00000 0.00142
2363 38.43000 744.40818 669.00000 0.00149
2364 38.44500 703.75969 696.00000 0.00144
2365 38.46000 670.08601 660.00000 0.00152
2366 38.47500 645.54246 623.00000 0.00161
2367 38.49000 629.95032 646.00000 0.00155
2368 38.50500 621.81510 629.00000 0.00159
2369 38.52000 619.28228 591.00000 0.00169
2370 38.53500 620.68483 616.00000 0.00162
2371 38.55000 624.64973 588.00000 0.00170
2372 38.56500 629.94948 624.00000 0.00160
2373 38.58000 635.33571 598.00000 0.00167
2374 38.59500 639.51973 605.00000 0.00165
2375 38.61000 641.35513 631.00000 0.00158
2376 38.62500 640.15551 632.00000 0.00158
2377 38.64000 636.00720 617.00000 0.00162
2378 38.65500 629.77752 612.00000 0.00163
2379 38.67000 622.71509 582.00000 0.00172
2380 38.68500 615.97114 608.00000 0.00164
2381 38.70000 610.31523 573.00000 0.00175
2382 38.71500 606.06276 605.00000 0.00165
2383 38.73000 603.16068 597.00000 0.00168
2384 38.74500 601.35441 601.00000 0.00166
2385 38.76000 600.35369 564.00000 0.00177
2386 38.77500 599.94290 601.00000 0.00166
2387 38.79000 600.02447 564.00000 0.00177
2388 38.80500 600.61269 597.00000 0.00168
2389 38.82000 601.79435 587.00000 0.00170
2390 38.83500 603.67174 601.00000 0.00166
2391 38.85000 606.23914 591.00000 0.00169
2392 38.86500 609.37489 587.00000 0.00170
2393 38.88000 612.73225 569.00000 0.00176
2394 38.89500 615.76541 583.00000 0.00172
2395 38.91000 617.83232 580.00000 0.00172
2396 38.92500 618.37436 594.00000 0.00168
2397 38.94000 617.13565 590.00000 0.00169
2398 38.95500 614.31650 586.00000 0.00171
2399 38.97000 610.50591 572.00000 0.00175
2400 38.98500 606.42035 591.00000 0.00169
2401 39.00000 602.65975 587.00000 0.00170
2402 39.01500 599.58446 571.00000 0.00175
2403 39.03000 597.30281 558.00000 0.00179
2404 39.04500 595.73530 576.00000 0.00174
2405 39.06000 594.70961 578.00000 0.00173
2406 39.07500 594.04257 595.00000 0.00168
2407 39.09000 593.58689 570.00000 0.00175
2408 39.10500 593.24413 567.00000 0.00176
2409 39.12000 592.95739 557.00000 0.00180
2410 39.13500 592.69755 557.00000 0.00180
2411 39.15000 592.45116 565.00000 0.00177
2412 39.16500 592.21253 563.00000 0.00178
2413 39.18000 591.97926 582.00000 0.00172
2414 39.19500 591.74926 554.00000 0.00181
2415 39.21000 591.52249 573.00000 0.00175
2416 39.22500 591.29854 558.00000 0.00179
2417 39.24000 591.07708 600.00000 0.00167
2418 39.25500 590.85778 576.00000 0.00174
2419 39.27000 590.64025 559.00000 0.00179
2420 39.28500 590.42365 610.00000 0.00164
2421 39.30000 590.20384 550.00000 0.00182
2422 39.31500 589.99488 565.00000 0.00177
2423 39.33000 589.78803 567.00000 0.00176
2424 39.34500 589.58377 599.00000 0.00167
2425 39.36000 589.38164 557.00000 0.00180
2426 39.37500 589.18187 552.00000 0.00181
2427 39.39000 588.98406 566.00000 0.00177
2428 39.40500 588.78855 588.00000 0.00170
2429 39.42000 588.59541 553.00000 0.00181
2430 39.43500 588.40473 586.00000 0.00171
2431 39.45000 588.21662 564.00000 0.00177
2432 39.46500 588.03122 560.00000 0.00179
2433 39.48000 587.84866 564.00000 0.00177
2434 39.49500 587.66913 551.00000 0.00181
2435 39.51000 587.49283 564.00000 0.00177
2436 39.52500 587.31998 560.00000 0.00179
2437 39.54000 587.15086 548.00000 0.00182
2438 39.55500 586.98578 546.00000 0.00183
2439 39.57000 586.82513 564.00000 0.00177
2440 39.58500 586.66937 549.00000 0.00182
2441 39.60000 586.51901 605.00000 0.00165
2442 39.61500 586.37476 553.00000 0.00181
2443 39.63000 586.23802 559.00000 0.00179
2444 39.64500 586.10780 594.00000 0.00168
2445 39.66000 585.98609 581.00000 0.00172
2446 39.67500 585.87491 561.00000 0.00178
2447 39.69000 585.77681 573.00000 0.00175
2448 39.70500 585.69575 567.00000 0.00176
2449 39.72000 585.63725 533.00000 0.00188
2450 39.73500 585.60913 572.00000 0.00175
2451 39.75000 585.62167 578.00000 0.00173
2452 39.76500 585.68775 580.00000 0.00172
2453 39.78000 585.82322 544.00000 0.00184
2454 39.79500 586.04966 587.00000 0.00170
2455 39.81000 586.40327 605.00000 0.00165
2456 39.82500 586.95597 608.00000 0.00164
2457 39.84000 587.85223 610.00000 0.00164
2458 39.85500 589.37035 613.00000 0.00163
2459 39.87000 591.99360 602.00000 0.00166
2460 39.88500 596.47393 644.00000 0.00155
2461 39.90000 603.84243 614.00000 0.00163
2462 39.91500 615.30482 616.00000 0.00162
2463 39.93000 631.97626 617.00000 0.00162
2464 39.94500 654.46103 647.00000 0.00155
2465 39.96000 682.37027 659.00000 0.00152
2466 39.97500 713.96922 672.00000 0.00149
2467 39.99000 746.18128 686.00000 0.00146
2468 40.00500 775.07356 714.00000 0.00140
2469 40.02000 796.78378 716.00000 0.00140
2470 40.03500 808.63802 748.00000 0.00134
2471 40.05000 810.00979 738.00000 0.00136
2472 40.06500 802.31168 716.00000 0.00140
2473 40.08000 788.04956 734.00000 0.00136
2474 40.09500 769.96631 685.00000 0.00146
2475 40.11000 751.11212 713.00000 0.00140
2476 40.12500 735.47700 715.00000 0.00140
2477 40.14000 728.12086 705.00000 0.00142
2478 40.15500 734.27657 772.00000 0.00130
2479 40.17000 757.89274 797.00000 0.00125
2480 40.18500 800.03851 902.00000 0.00111
2481 40.20000 857.49854 971.00000 0.00103
2482 40.21500 922.18740 1111.00000 0.00090
2483 40.23000 982.01249 1245.00000 0.00080
2484 40.24500 1023.37964 1360.00000 0.00074
2485 40.26000 1035.00311 1373.00000 0.00073
2486 40.27500 1012.16232 1360.00000 0.00074
2487 40.29000 959.28101 1237.00000 0.00081
2488 40.30500 888.11004 1096.00000 0.00091
2489 40.32000 812.60456 886.00000 0.00113
2490 40.33500 744.44980 815.00000 0.00123
2491 40.35000 690.91721 700.00000 0.00143
2492 40.36500 654.75453 702.00000 0.00142
2493 40.38000 635.45658 685.00000 0.00146
2494 40.39500 631.06450 704.00000 0.00142
2495 40.41000 639.64575 727.00000 0.00138
2496 40.42500 660.02768 782.00000 0.00128
2497 40.44000 691.79364 817.00000 0.00122
2498 40.45500 734.76549 891.00000 0.00112
2499 40.47000 788.18643 911.00000 0.00110
2500 40.48500 849.78785 1057.00000 0.00095
2501 40.50000 915.04209 1101.00000 0.00091
2502 40.51500 976.98280 1217.00000 0.00082
2503 40.53000 1026.68700 1257.00000 0.00080
2504 40.54500 1054.55433 1342.00000 0.00075
2505 40.56000 1052.87354 1311.00000 0.00076
2506 40.57500 1019.28510 1293.00000 0.00077
2507 40.59000 959.10908 1227.00000 0.00081
2508 40.60500 883.77561 1148.00000 0.00087
2509 40.62000 806.25788 977.00000 0.00102
2510 40.63500 737.12594 907.00000 0.00110
2511 40.65000 682.67328 817.00000 0.00122
2512 40.66500 644.83079 775.00000 0.00129
2513 40.68000 622.29406 701.00000 0.00143
2514 40.69500 612.08935 674.00000 0.00148
2515 40.71000 610.84483 693.00000 0.00144
2516 40.72500 615.42482 683.00000 0.00146
2517 40.74000 623.02944 672.00000 0.00149
2518 40.75500 631.09309 713.00000 0.00140
2519 40.77000 637.28349 685.00000 0.00146
2520 40.78500 639.73277 706.00000 0.00142
2521 40.80000 637.46025 672.00000 0.00149
2522 40.81500 630.74060 670.00000 0.00149
2523 40.83000 620.98855 664.00000 0.00151
2524 40.84500 610.10965 654.00000 0.00153
2525 40.86000 599.81868 650.00000 0.00154
2526 40.87500 591.25163 658.00000 0.00152
2527 40.89000 584.87142 599.00000 0.00167
2528 40.90500 580.59262 601.00000 0.00166
2529 40.92000 578.01972 572.00000 0.00175
2530 40.93500 576.68614 588.00000 0.00170
2531 40.95000 576.22266 578.00000 0.00173
2532 40.96500 576.46115 561.00000 0.00178
2533 40.98000 577.49946 571.00000 0.00175
2534 40.99500 579.78847 584.00000 0.00171
2535 41.01000 584.26485 594.00000 0.00168
2536 41.02500 592.51518 606.00000 0.00165
2537 41.04000 606.89338 635.00000 0.00157
2538 41.05500 630.44264 634.00000 0.00158
2539 41.07000 666.42717 638.00000 0.00157
2540 41.08500 717.32592 718.00000 0.00139
2541 41.10000 783.34525 740.00000 0.00135
2542 41.11500 860.87674 788.00000 0.00127
2543 41.13000 941.67657 877.00000 0.00114
2544 41.14500 1013.53403 951.00000 0.00105
2545 41.16000 1062.75958 951.00000 0.00105
2546 41.17500 1078.19382 983.00000 0.00102
2547 41.19000 1055.81534 979.00000 0.00102
2548 41.20500 1001.56920 932.00000 0.00107
2549 41.22000 929.52196 870.00000 0.00115
2550 41.23500 856.35963 807.00000 0.00124
2551 41.25000 796.40183 740.00000 0.00135
2552 41.26500 758.72442 689.00000 0.00145
2553 41.28000 746.16711 679.00000 0.00147
2554 41.29500 755.75458 686.00000 0.00146
2555 41.31000 780.04947 689.00000 0.00145
2556 41.32500 809.01093 718.00000 0.00139
2557 41.34000 832.12402 707.00000 0.00141
2558 41.35500 840.69306 729.00000 0.00137
2559 41.37000 830.13583 703.00000 0.00142
2560 41.38500 801.48366 688.00000 0.00145
2561 41.40000 760.61209 666.00000 0.00150
2562 41.41500 715.36336 629.00000 0.00159
2563 41.43000 672.72156 589.00000 0.00170
2564 41.44500 637.25248 618.00000 0.00162
2565 41.46000 610.74863 601.00000 0.00166
2566 41.47500 592.75792 569.00000 0.00176
2567 41.49000 581.55251 589.00000 0.00170
2568 41.50500 575.06372 574.00000 0.00174
2569 41.52000 571.49784 538.00000 0.00186
2570 41.53500 569.57272 567.00000 0.00176
2571 41.55000 568.49852 556.00000 0.00180
2572 41.56500 567.84559 542.00000 0.00185
2573 41.58000 567.40173 557.00000 0.00180
2574 41.59500 567.08782 541.00000 0.00185
2575 41.61000 566.87166 560.00000 0.00179
2576 41.62500 566.76696 552.00000 0.00181
2577 41.64000 566.82882 564.00000 0.00177
2578 41.65500 567.17118 562.00000 0.00178
2579 41.67000 567.99451 561.00000 0.00178
2580 41.68500 569.61320 572.00000 0.00175
2581 41.70000 572.46386 542.00000 0.00185
2582 41.71500 577.06593 572.00000 0.00175
2583 41.73000 583.90566 557.00000 0.00180
2584 41.74500 593.23335 597.00000 0.00168
2585 41.76000 604.81084 561.00000 0.00178
2586 41.77500 617.70688 594.00000 0.00168
2587 41.79000 630.27077 566.00000 0.00177
2588 41.80500 640.37602 605.00000 0.00165
2589 41.82000 645.93305 593.00000 0.00169
2590 41.83500 645.58084 604.00000 0.00166
2591 41.85000 639.32270 599.00000 0.00167
2592 41.86500 628.63064 605.00000 0.00165
2593 41.88000 615.80080 555.00000 0.00180
2594 41.89500 603.08928 583.00000 0.00172
2595 41.91000 592.14684 563.00000 0.00178
2596 41.92500 583.82484 590.00000 0.00169
2597 41.94000 578.27005 545.00000 0.00183
2598 41.95500 575.18300 603.00000 0.00166
2599 41.97000 574.09034 564.00000 0.00177
2600 41.98500 574.52856 569.00000 0.00176
2601 42.00000 576.11370 581.00000 0.00172
2602 42.01500 578.53361 585.00000 0.00171
2603 42.03000 581.53349 581.00000 0.00172
2604 42.04500 584.96549 581.00000 0.00172
2605 42.06000 588.95633 592.00000 0.00169
2606 42.07500 594.24709 622.00000 0.00161
2607 42.09000 602.72480 640.00000 0.00156
2608 42.10500 618.11222 652.00000 0.00153
2609 42.12000 646.67166 640.00000 0.00156
2610 42.13500 697.68076 711.00000 0.00141
2611 42.15000 783.22371 763.00000 0.00131
2612 42.16500 916.59293 885.00000 0.00113
2613 42.18000 1108.66273 1065.00000 0.00094
2614 42.19500 1362.30483 1316.00000 0.00076
2615 42.21000 1666.22816 1757.00000 0.00057
2616 42.22500 1991.03318 2231.00000 0.00045
2617 42.24000 2290.59035 2738.00000 0.00037
2618 42.25500 2510.34599 3101.00000 0.00032
2619 42.27000 2601.78350 3004.00000 0.00033
2620 42.28500 2540.01599 3136.00000 0.00032
2621 42.30000 2336.83379 2810.00000 0.00036
2622 42.31500 2037.36819 2313.00000 0.00043
2623 42.33000 1700.71273 1792.00000 0.00056
2624 42.34500 1379.89445 1320.00000 0.00076
2625 42.36000 1110.40089 1024.00000 0.00098
2626 42.37500 907.23841 834.00000 0.00120
2627 42.39000 768.42740 780.00000 0.00128
2628 42.40500 681.90751 741.00000 0.00135
2629 42.42000 632.48459 658.00000 0.00152
2630 42.43500 606.58563 668.00000 0.00150
2631 42.45000 594.31745 653.00000 0.00153
2632 42.46500 589.52898 604.00000 0.00166
2633 42.48000 588.90898 613.00000 0.00163
2634 42.49500 590.90001 605.00000 0.00165
2635 42.51000 594.76378 606.00000 0.00165
2636 42.52500 599.90990 597.00000 0.00168
2637 42.54000 605.51942 600.00000 0.00167
2638 42.55500 610.44418 620.00000 0.00161
2639 42.57000 613.40210 576.00000 0.00174
2640 42.58500 613.33627 589.00000 0.00170
2641 42.60000 609.84173 594.00000 0.00168
2642 42.61500 603.40677 583.00000 0.00172
2643 42.63000 595.21563 556.00000 0.00180
2644 42.64500 586.64875 598.00000 0.00167
2645 42.66000 578.84439 573.00000 0.00175
2646 42.67500 572.49712 597.00000 0.00168
2647 42.69000 567.82938 601.00000 0.00166
2648 42.70500 564.70303 581.00000 0.00172
2649 42.72000 562.79016 549.00000 0.00182
2650 42.73500 561.72718 578.00000 0.00173
2651 42.75000 561.20970 567.00000 0.00176
2652 42.76500 561.02594 573.00000 0.00175
2653 42.78000 561.04942 567.00000 0.00176
2654 42.79500 561.21546 567.00000 0.00176
2655 42.81000 561.49768 567.00000 0.00176
2656 42.82500 561.89139 573.00000 0.00175
2657 42.84000 562.40432 571.00000 0.00175
2658 42.85500 563.05305 594.00000 0.00168
2659 42.87000 563.86440 575.00000 0.00174
2660 42.88500 564.88313 632.00000 0.00158
2661 42.90000 566.19245 554.00000 0.00181
2662 42.91500 567.96183 583.00000 0.00172
2663 42.93000 570.54962 611.00000 0.00164
2664 42.94500 574.70435 637.00000 0.00157
2665 42.96000 581.92063 612.00000 0.00163
2666 42.97500 594.99475 631.00000 0.00158
2667 42.99000 618.75900 695.00000 0.00144
2668 43.00500 660.82133 751.00000 0.00133
2669 43.02000 731.89848 819.00000 0.00122
2670 43.03500 845.08595 947.00000 0.00106
2671 43.05000 1013.34010 1082.00000 0.00092
2672 43.06500 1244.85258 1317.00000 0.00076
2673 43.08000 1536.98832 1635.00000 0.00061
2674 43.09500 1870.85233 1984.00000 0.00050
2675 43.11000 2209.52151 2433.00000 0.00041
2676 43.12500 2502.45554 2735.00000 0.00037
2677 43.14000 2696.54450 2926.00000 0.00034
2678 43.15500 2751.90554 3024.00000 0.00033
2679 43.17000 2657.76418 2856.00000 0.00035
2680 43.18500 2438.90718 2624.00000 0.00038
2681 43.20000 2144.71517 2341.00000 0.00043
2682 43.21500 1828.59608 2022.00000 0.00049
2683 43.23000 1532.29869 1666.00000 0.00060
2684 43.24500 1279.72168 1485.00000 0.00067
2685 43.26000 1078.47169 1255.00000 0.00080
2686 43.27500 925.63673 1134.00000 0.00088
2687 43.29000 813.65992 987.00000 0.00101
2688 43.30500 734.32230 870.00000 0.00115
2689 43.32000 680.79650 744.00000 0.00134
2690 43.33500 648.12300 727.00000 0.00138
2691 43.35000 632.74956 679.00000 0.00147
2692 43.36500 631.83695 672.00000 0.00149
2693 43.38000 642.62238 640.00000 0.00156
2694 43.39500 661.90568 645.00000 0.00155
2695 43.41000 685.73683 679.00000 0.00147
2696 43.42500 709.47794 688.00000 0.00145
2697 43.44000 728.37052 673.00000 0.00149
2698 43.45500 738.57201 678.00000 0.00147
2699 43.47000 738.42813 645.00000 0.00155
2700 43.48500 729.34734 663.00000 0.00151
2701 43.50000 715.29880 678.00000 0.00147
2702 43.51500 700.95149 646.00000 0.00155
2703 43.53000 689.76062 644.00000 0.00155
2704 43.54500 682.90113 649.00000 0.00154
2705 43.56000 679.18821 633.00000 0.00158
2706 43.57500 675.85982 651.00000 0.00154
2707 43.59000 669.91669 596.00000 0.00168
2708 43.60500 659.54357 629.00000 0.00159
2709 43.62000 644.93629 615.00000 0.00163
2710 43.63500 628.02122 633.00000 0.00158
2711 43.65000 611.49068 609.00000 0.00164
2712 43.66500 597.96271 583.00000 0.00172
2713 43.68000 589.55205 577.00000 0.00173
2714 43.69500 587.78467 595.00000 0.00168
2715 43.71000 593.68650 610.00000 0.00164
2716 43.72500 607.81963 626.00000 0.00160
2717 43.74000 630.08768 656.00000 0.00152
2718 43.75500 659.30772 679.00000 0.00147
2719 43.77000 692.76590 693.00000 0.00144
2720 43.78500 726.10806 724.00000 0.00138
2721 43.80000 753.84924 742.00000 0.00135
2722 43.81500 770.54269 749.00000 0.00134
2723 43.83000 772.41238 709.00000 0.00141
2724 43.84500 758.97162 730.00000 0.00137
2725 43.86000 733.57708 744.00000 0.00134
2726 43.87500 702.17564 720.00000 0.00139
2727 43.89000 671.25632 708.00000 0.00141
2728 43.90500 646.42315 701.00000 0.00143
2729 43.92000 631.97069 671.00000 0.00149
2730 43.93500 631.35510 691.00000 0.00145
2731 43.95000 648.30352 690.00000 0.00145
2732 43.96500 688.06227 752.00000 0.00133
2733 43.98000 758.07595 795.00000 0.00126
2734 43.99500 867.34546 874.00000 0.00114
2735 44.01000 1023.93018 1001.00000 0.00100
2736 44.02500 1230.62546 1209.00000 0.00083
2737 44.04000 1479.79736 1439.00000 0.00069
2738 44.05500 1749.56017 1686.00000 0.00059
2739 44.07000 2004.00456 1905.00000 0.00052
2740 44.08500 2199.04201 2204.00000 0.00045
2741 44.10000 2293.42826 2172.00000 0.00046
2742 44.11500 2262.82963 2157.00000 0.00046
2743 44.13000 2111.45801 2042.00000 0.00049
2744 44.14500 1871.88018 1808.00000 0.00055
2745 44.16000 1591.14898 1482.00000 0.00067
2746 44.17500 1314.33295 1219.00000 0.00082
2747 44.19000 1074.01055 1000.00000 0.00100
2748 44.20500 886.51657 911.00000 0.00110
2749 44.22000 753.56087 758.00000 0.00132
2750 44.23500 667.15635 733.00000 0.00136
2751 44.25000 615.27517 656.00000 0.00152
2752 44.26500 586.20334 624.00000 0.00160
2753 44.28000 570.82026 592.00000 0.00169
2754 44.29500 563.11279 592.00000 0.00169
2755 44.31000 559.69344 565.00000 0.00177
2756 44.32500 559.01337 577.00000 0.00173
2757 44.34000 560.65176 547.00000 0.00183
2758 44.35500 564.78022 575.00000 0.00174
2759 44.37000 571.74957 558.00000 0.00179
2760 44.38500 581.72535 569.00000 0.00176
2761 44.40000 594.35496 565.00000 0.00177
2762 44.41500 608.53452 553.00000 0.00181
2763 44.43000 622.39062 536.00000 0.00187
2764 44.44500 633.56105 538.00000 0.00186
2765 44.46000 639.76624 554.00000 0.00181
2766 44.47500 639.57395 572.00000 0.00175
2767 44.49000 633.10549 544.00000 0.00184
2768 44.50500 622.18365 561.00000 0.00178
2769 44.52000 609.68102 536.00000 0.00187
2770 44.53500 598.56801 563.00000 0.00178
2771 44.55000 591.17888 549.00000 0.00182
2772 44.56500 588.78866 559.00000 0.00179
2773 44.58000 591.46575 563.00000 0.00178
2774 44.59500 598.16361 516.00000 0.00194
2775 44.61000 606.99528 546.00000 0.00183
2776 44.62500 615.63095 551.00000 0.00181
2777 44.64000 621.78425 584.00000 0.00171
2778 44.65500 623.74918 565.00000 0.00177
2779 44.67000 620.82069 559.00000 0.00179
2780 44.68500 613.36343 579.00000 0.00173
2781 44.70000 602.58005 579.00000 0.00173
2782 44.71500 590.15931 560.00000 0.00179
2783 44.73000 577.82731 550.00000 0.00182
2784 44.74500 566.94651 550.00000 0.00182
2785 44.76000 558.35014 530.00000 0.00189
2786 44.77500 552.40780 532.00000 0.00188
2787 44.79000 549.22850 523.00000 0.00191
2788 44.80500 548.90734 532.00000 0.00188
2789 44.82000 551.72637 508.00000 0.00197
2790 44.83500 558.23203 543.00000 0.00184
2791 44.85000 569.12686 547.00000 0.00183
2792 44.86500 584.95698 536.00000 0.00187
2793 44.88000 605.65152 554.00000 0.00181
2794 44.89500 630.05368 568.00000 0.00176
2795 44.91000 655.65335 568.00000 0.00176
2796 44.92500 678.77743 572.00000 0.00175
2797 44.94000 695.27289 575.00000 0.00174
2798 44.95500 701.61800 565.00000 0.00177
2799 44.97000 696.22816 586.00000 0.00171
2800 44.98500 680.32856 608.00000 0.00164
2801 45.00000 657.59629 573.00000 0.00175
2802 45.01500 632.76120 573.00000 0.00175
2803 45.03000 610.23237 540.00000 0.00185
2804 45.04500 593.28130 564.00000 0.00177
2805 45.06000 583.73192 574.00000 0.00174
2806 45.07500 582.00232 596.00000 0.00168
2807 45.09000 587.32011 621.00000 0.00161
2808 45.10500 597.95170 608.00000 0.00164
2809 45.12000 611.42598 594.00000 0.00168
2810 45.13500 624.82264 597.00000 0.00168
2811 45.15000 635.22844 620.00000 0.00161
2812 45.16500 640.38383 632.00000 0.00158
2813 45.18000 639.42492 621.00000 0.00161
2814 45.19500 633.38859 622.00000 0.00161
2815 45.21000 624.96899 627.00000 0.00159
2816 45.22500 617.58217 634.00000 0.00158
2817 45.24000 614.37214 620.00000 0.00161
2818 45.25500 617.52261 645.00000 0.00155
2819 45.27000 627.89155 600.00000 0.00167
2820 45.28500 644.92119 644.00000 0.00155
2821 45.30000 666.75199 623.00000 0.00161
2822 45.31500 690.48776 693.00000 0.00144
2823 45.33000 712.62584 667.00000 0.00150
2824 45.34500 729.55616 709.00000 0.00141
2825 45.36000 738.04633 680.00000 0.00147
2826 45.37500 735.79109 680.00000 0.00147
2827 45.39000 722.21699 692.00000 0.00145
2828 45.40500 699.10771 677.00000 0.00148
2829 45.42000 670.21873 664.00000 0.00151
2830 45.43500 639.95489 664.00000 0.00151
2831 45.45000 612.11581 627.00000 0.00159
2832 45.46500 589.24269 608.00000 0.00164
2833 45.48000 572.53148 581.00000 0.00172
2834 45.49500 562.19586 576.00000 0.00174
2835 45.51000 558.13187 601.00000 0.00166
2836 45.52500 560.69737 577.00000 0.00173
2837 45.54000 571.43190 620.00000 0.00161
2838 45.55500 593.54963 649.00000 0.00154
2839 45.57000 632.05274 698.00000 0.00143
2840 45.58500 693.16096 748.00000 0.00134
2841 45.60000 782.85073 823.00000 0.00122
2842 45.61500 904.46204 895.00000 0.00112
2843 45.63000 1055.75275 1049.00000 0.00095
2844 45.64500 1226.50959 1264.00000 0.00079
2845 45.66000 1397.84711 1382.00000 0.00072
2846 45.67500 1544.42081 1554.00000 0.00064
2847 45.69000 1639.75276 1644.00000 0.00061
2848 45.70500 1663.84486 1680.00000 0.00060
2849 45.72000 1610.57430 1502.00000 0.00067
2850 45.73500 1490.67212 1435.00000 0.00070
2851 45.75000 1327.76913 1265.00000 0.00079
2852 45.76500 1149.93847 1148.00000 0.00087
2853 45.78000 981.70692 953.00000 0.00105
2854 45.79500 839.40987 846.00000 0.00118
2855 45.81000 730.09617 777.00000 0.00129
2856 45.82500 653.10530 726.00000 0.00138
2857 45.84000 603.02267 654.00000 0.00153
2858 45.85500 572.68984 643.00000 0.00156
2859 45.87000 555.37904 607.00000 0.00165
2860 45.88500 545.87033 605.00000 0.00165
2861 45.90000 540.64774 564.00000 0.00177
2862 45.91500 537.60756 557.00000 0.00180
2863 45.93000 535.62292 555.00000 0.00180
2864 45.94500 534.15273 531.00000 0.00188
2865 45.96000 532.96345 527.00000 0.00190
2866 45.97500 531.96290 536.00000 0.00187
2867 45.99000 531.11384 529.00000 0.00189
2868 46.00500 530.39626 547.00000 0.00183
2869 46.02000 529.79273 524.00000 0.00191
2870 46.03500 529.28574 521.00000 0.00192
2871 46.05000 528.85900 524.00000 0.00191
2872 46.06500 528.49907 521.00000 0.00192
2873 46.08000 528.19647 511.00000 0.00196
2874 46.09500 527.94637 535.00000 0.00187
2875 46.11000 527.74818 500.00000 0.00200
2876 46.12500 527.61136 518.00000 0.00193
2877 46.14000 527.55990 499.00000 0.00200
2878 46.15500 527.64599 516.00000 0.00194
2879 46.17000 527.97169 506.00000 0.00198
2880 46.18500 528.71951 486.00000 0.00206
2881 46.20000 530.18671 526.00000 0.00190
2882 46.21500 532.80839 545.00000 0.00183
2883 46.23000 537.14339 526.00000 0.00190
2884 46.24500 543.79259 549.00000 0.00182
2885 46.26000 553.22523 566.00000 0.00177
2886 46.27500 565.53084 562.00000 0.00178
2887 46.29000 580.17551 582.00000 0.00172
2888 46.30500 595.86007 624.00000 0.00160
2889 46.32000 610.59565 662.00000 0.00151
2890 46.33500 622.11064 656.00000 0.00152
2891 46.35000 628.50547 654.00000 0.00153
2892 46.36500 629.05230 680.00000 0.00147
2893 46.38000 624.80731 674.00000 0.00148
2894 46.39500 618.53183 673.00000 0.00149
2895 46.41000 613.88135 706.00000 0.00142
2896 46.42500 614.43427 735.00000 0.00136
2897 46.44000 622.97700 806.00000 0.00124
2898 46.45500 641.15727 857.00000 0.00117
2899 46.47000 669.55985 920.00000 0.00109
2900 46.48500 708.16765 1089.00000 0.00092
2901 46.50000 756.98566 1151.00000 0.00087
2902 46.51500 816.43828 1258.00000 0.00079
2903 46.53000 887.23178 1321.00000 0.00076
2904 46.54500 969.38004 1385.00000 0.00072
2905 46.56000 1060.28402 1455.00000 0.00069
2906 46.57500 1152.66492 1520.00000 0.00066
2907 46.59000 1234.07199 1548.00000 0.00065
2908 46.60500 1288.97342 1616.00000 0.00062
2909 46.62000 1303.17370 1570.00000 0.00064
2910 46.63500 1269.42901 1551.00000 0.00064
2911 46.65000 1191.53683 1375.00000 0.00073
2912 46.66500 1083.33901 1276.00000 0.00078
2913 46.68000 963.14046 1064.00000 0.00094
2914 46.69500 847.91894 965.00000 0.00104
2915 46.71000 749.77703 839.00000 0.00119
2916 46.72500 674.69191 751.00000 0.00133
2917 46.74000 623.11789 683.00000 0.00146
2918 46.75500 591.74085 643.00000 0.00156
2919 46.77000 575.50621 622.00000 0.00161
2920 46.78500 569.24598 611.00000 0.00164
2921 46.80000 568.65194 553.00000 0.00181
2922 46.81500 570.68297 572.00000 0.00175
2923 46.83000 573.62555 561.00000 0.00178
2924 46.84500 576.96706 553.00000 0.00181
2925 46.86000 581.06898 538.00000 0.00186
2926 46.87500 586.59324 568.00000 0.00176
2927 46.89000 593.87212 578.00000 0.00173
2928 46.90500 602.50708 591.00000 0.00169
2929 46.92000 611.31854 569.00000 0.00176
2930 46.93500 618.63115 596.00000 0.00168
2931 46.95000 622.80258 607.00000 0.00165
2932 46.96500 622.84869 588.00000 0.00170
2933 46.98000 618.79302 577.00000 0.00173
2934 46.99500 611.45286 571.00000 0.00175
2935 47.01000 601.88073 569.00000 0.00176
2936 47.02500 590.96608 569.00000 0.00176
2937 47.04000 579.36790 531.00000 0.00188
2938 47.05500 567.65684 526.00000 0.00190
2939 47.07000 556.42780 513.00000 0.00195
2940 47.08500 546.24765 536.00000 0.00187
2941 47.10000 537.54410 497.00000 0.00201
2942 47.11500 530.54049 482.00000 0.00207
2943 47.13000 525.23958 507.00000 0.00197
2944 47.14500 521.45127 521.00000 0.00192
2945 47.16000 518.86112 484.00000 0.00207
2946 47.17500 517.11846 477.00000 0.00210
2947 47.19000 515.91362 463.00000 0.00216
2948 47.20500 515.02174 471.00000 0.00212
2949 47.22000 514.30713 488.00000 0.00205
2950 47.23500 513.70178 504.00000 0.00198
2951 47.25000 513.17778 478.00000 0.00209
2952 47.26500 512.72506 478.00000 0.00209
2953 47.28000 512.33755 475.00000 0.00211
2954 47.29500 512.00769 468.00000 0.00214
2955 47.31000 511.72598 470.00000 0.00213
2956 47.32500 511.48304 482.00000 0.00207
2957 47.34000 511.27191 460.00000 0.00217
2958 47.35500 511.08989 481.00000 0.00208
2959 47.37000 510.93995 467.00000 0.00214
2960 47.38500 510.83187 470.00000 0.00213
2961 47.40000 510.78448 486.00000 0.00206
2962 47.41500 510.82803 486.00000 0.00206
2963 47.43000 511.00763 469.00000 0.00213
2964 47.44500 511.38844 473.00000 0.00211
2965 47.46000 512.06326 478.00000 0.00209
2966 47.47500 513.20167 497.00000 0.00201
2967 47.49000 514.99871 511.00000 0.00196
2968 47.50500 517.74153 502.00000 0.00199
2969 47.52000 521.78055 489.00000 0.00204
2970 47.53500 527.46694 490.00000 0.00204
2971 47.55000 535.03100 481.00000 0.00208
2972 47.56500 544.41250 511.00000 0.00196
2973 47.58000 555.08721 528.00000 0.00189
2974 47.59500 565.97397 532.00000 0.00188
2975 47.61000 575.51787 528.00000 0.00189
2976 47.62500 581.98792 522.00000 0.00192
2977 47.64000 583.95029 528.00000 0.00189
2978 47.65500 580.80564 535.00000 0.00187
2979 47.67000 573.10783 487.00000 0.00205
2980 47.68500 562.36215 531.00000 0.00188
2981 47.70000 550.43486 512.00000 0.00195
2982 47.71500 539.00346 487.00000 0.00205
2983 47.73000 529.22626 520.00000 0.00192
2984 47.74500 521.67800 529.00000 0.00189
2985 47.76000 516.42293 473.00000 0.00211
2986 47.77500 513.23038 493.00000 0.00203
2987 47.79000 511.82074 506.00000 0.00198
2988 47.80500 512.08453 521.00000 0.00192
2989 47.82000 514.24164 525.00000 0.00190
2990 47.83500 518.93055 526.00000 0.00190
2991 47.85000 527.20056 515.00000 0.00194
2992 47.86500 540.36445 521.00000 0.00192
2993 47.88000 559.66509 554.00000 0.00181
2994 47.89500 585.75488 538.00000 0.00186
2995 47.91000 618.08545 577.00000 0.00173
2996 47.92500 654.41907 604.00000 0.00166
2997 47.94000 690.73515 606.00000 0.00165
2998 47.95500 721.74832 639.00000 0.00156
2999 47.97000 742.07285 634.00000 0.00158
3000 47.98500 747.87283 682.00000 0.00147
3001 48.00000 738.54964 642.00000 0.00156
3002 48.01500 717.47275 630.00000 0.00159
3003 48.03000 690.95521 628.00000 0.00159
3004 48.04500 666.17619 674.00000 0.00148
3005 48.06000 649.27532 662.00000 0.00151
3006 48.07500 644.03258 687.00000 0.00146
3007 48.09000 651.15427 716.00000 0.00140
3008 48.10500 668.20564 697.00000 0.00143
3009 48.12000 690.19089 727.00000 0.00138
3010 48.13500 710.68663 746.00000 0.00134
3011 48.15000 723.35531 750.00000 0.00133
3012 48.16500 723.60606 782.00000 0.00128
3013 48.18000 709.99694 703.00000 0.00142
3014 48.19500 684.62214 674.00000 0.00148
3015 48.21000 652.03244 641.00000 0.00156
3016 48.22500 617.42368 652.00000 0.00153
3017 48.24000 585.18836 589.00000 0.00170
3018 48.25500 558.16305 613.00000 0.00163
3019 48.27000 537.48879 551.00000 0.00181
3020 48.28500 522.92753 543.00000 0.00184
3021 48.30000 513.41219 519.00000 0.00193
3022 48.31500 507.59468 535.00000 0.00187
3023 48.33000 504.23752 531.00000 0.00188
3024 48.34500 502.40182 520.00000 0.00192
3025 48.36000 501.49613 495.00000 0.00202
3026 48.37500 501.23264 497.00000 0.00201
3027 48.39000 501.56988 484.00000 0.00207
3028 48.40500 502.71711 513.00000 0.00195
3029 48.42000 505.02761 490.00000 0.00204
3030 48.43500 509.02486 513.00000 0.00195
3031 48.45000 515.30186 522.00000 0.00192
3032 48.46500 524.36730 505.00000 0.00198
3033 48.48000 536.42686 527.00000 0.00190
3034 48.49500 551.15351 496.00000 0.00202
3035 48.51000 567.53067 528.00000 0.00189
3036 48.52500 583.87212 556.00000 0.00180
3037 48.54000 598.07253 542.00000 0.00185
3038 48.55500 608.06814 576.00000 0.00174
3039 48.57000 612.43188 550.00000 0.00182
3040 48.58500 610.88019 541.00000 0.00185
3041 48.60000 604.30446 555.00000 0.00180
3042 48.61500 594.24219 537.00000 0.00186
3043 48.63000 582.26539 530.00000 0.00189
3044 48.64500 569.66949 558.00000 0.00179
3045 48.66000 557.45283 527.00000 0.00190
3046 48.67500 546.39618 560.00000 0.00179
3047 48.69000 537.05709 531.00000 0.00188
3048 48.70500 529.70275 534.00000 0.00187
3049 48.72000 524.28755 490.00000 0.00204
3050 48.73500 520.49977 533.00000 0.00188
3051 48.75000 517.85362 511.00000 0.00196
3052 48.76500 515.84044 543.00000 0.00184
3053 48.78000 514.08715 537.00000 0.00186
3054 48.79500 512.48174 509.00000 0.00196
3055 48.81000 511.22116 531.00000 0.00188
3056 48.82500 510.73686 509.00000 0.00196
3057 48.84000 511.51735 538.00000 0.00186
3058 48.85500 513.90453 531.00000 0.00188
3059 48.87000 517.92255 545.00000 0.00183
3060 48.88500 523.17038 588.00000 0.00170
3061 48.90000 528.82714 574.00000 0.00174
3062 48.91500 533.78185 612.00000 0.00163
3063 48.93000 536.88109 600.00000 0.00167
3064 48.94500 537.25276 594.00000 0.00168
3065 48.96000 534.61454 598.00000 0.00167
3066 48.97500 529.38627 583.00000 0.00172
3067 48.99000 522.49232 535.00000 0.00187
3068 49.00500 515.01357 567.00000 0.00176
3069 49.02000 507.89113 506.00000 0.00198
3070 49.03500 501.76789 519.00000 0.00193
3071 49.05000 496.94244 479.00000 0.00209
3072 49.06500 493.41411 493.00000 0.00203
3073 49.08000 490.99110 452.00000 0.00221
3074 49.09500 489.40261 438.00000 0.00228
3075 49.11000 488.38405 472.00000 0.00212
3076 49.12500 487.72484 461.00000 0.00217
3077 49.14000 487.27438 476.00000 0.00210
3078 49.15500 486.93922 456.00000 0.00219
3079 49.17000 486.66610 461.00000 0.00217
3080 49.18500 486.42704 438.00000 0.00228
3081 49.20000 486.20843 449.00000 0.00223
3082 49.21500 486.00402 446.00000 0.00224
3083 49.23000 485.81113 426.00000 0.00235
3084 49.24500 485.62893 447.00000 0.00224
3085 49.26000 485.45729 453.00000 0.00221
3086 49.27500 485.29701 463.00000 0.00216
3087 49.29000 485.14884 467.00000 0.00214
3088 49.30500 485.01081 485.00000 0.00206
3089 49.32000 484.88696 442.00000 0.00226
3090 49.33500 484.77988 456.00000 0.00219
3091 49.35000 484.69460 457.00000 0.00219
3092 49.36500 484.64041 466.00000 0.00215
3093 49.38000 484.63370 434.00000 0.00230
3094 49.39500 484.70067 475.00000 0.00211
3095 49.41000 484.88877 454.00000 0.00220
3096 49.42500 485.27865 479.00000 0.00209
3097 49.44000 485.94673 471.00000 0.00212
3098 49.45500 486.99139 473.00000 0.00211
3099 49.47000 488.50300 477.00000 0.00210
3100 49.48500 490.53868 489.00000 0.00204
3101 49.50000 493.10281 477.00000 0.00210
3102 49.51500 496.15628 489.00000 0.00204
3103 49.53000 499.68113 492.00000 0.00203
3104 49.54500 503.82277 512.00000 0.00195
3105 49.56000 509.11231 521.00000 0.00192
3106 49.57500 516.73684 542.00000 0.00185
3107 49.59000 528.76332 554.00000 0.00181
3108 49.60500 548.14221 574.00000 0.00174
3109 49.62000 578.31809 629.00000 0.00159
3110 49.63500 622.39652 673.00000 0.00149
3111 49.65000 681.95145 698.00000 0.00143
3112 49.66500 755.71468 796.00000 0.00126
3113 49.68000 838.58295 835.00000 0.00120
3114 49.69500 921.47322 928.00000 0.00108
3115 49.71000 992.42872 988.00000 0.00101
3116 49.72500 1039.05380 1020.00000 0.00098
3117 49.74000 1051.91708 1025.00000 0.00098
3118 49.75500 1027.87199 1020.00000 0.00098
3119 49.77000 971.49032 949.00000 0.00105
3120 49.78500 893.40513 892.00000 0.00112
3121 49.80000 806.54675 828.00000 0.00121
3122 49.81500 722.56651 737.00000 0.00136
3123 49.83000 649.68855 682.00000 0.00147
3124 49.84500 592.03425 639.00000 0.00156
3125 49.86000 550.09960 603.00000 0.00166
3126 49.87500 521.92752 569.00000 0.00176
3127 49.89000 504.43732 557.00000 0.00180
3128 49.90500 494.48452 544.00000 0.00184
3129 49.92000 489.46291 503.00000 0.00199
3130 49.93500 487.48218 521.00000 0.00192
3131 49.95000 487.27615 487.00000 0.00205
3132 49.96500 487.99694 495.00000 0.00202
3133 49.98000 489.04552 481.00000 0.00208
3134 49.99500 489.95601 443.00000 0.00226
3135 50.01000 490.36675 483.00000 0.00207
3136 50.02500 490.05719 470.00000 0.00213
3137 50.04000 489.00319 466.00000 0.00215
3138 50.05500 487.38905 484.00000 0.00207
3139 50.07000 485.54420 468.00000 0.00214
3140 50.08500 483.84209 470.00000 0.00213
3141 50.10000 482.61360 466.00000 0.00215
3142 50.11500 482.08762 466.00000 0.00215
3143 50.13000 482.35163 460.00000 0.00217
3144 50.14500 483.33589 485.00000 0.00206
3145 50.16000 484.82110 466.00000 0.00215
3146 50.17500 486.47151 458.00000 0.00218
3147 50.19000 487.89371 470.00000 0.00213
3148 50.20500 488.71848 475.00000 0.00211
3149 50.22000 488.69649 462.00000 0.00216
3150 50.23500 487.78128 479.00000 0.00209
3151 50.25000 486.14490 472.00000 0.00212
3152 50.26500 484.10336 474.00000 0.00211
3153 50.28000 482.00897 462.00000 0.00216
3154 50.29500 480.17287 453.00000 0.00221
3155 50.31000 478.83364 470.00000 0.00213
3156 50.32500 478.17339 476.00000 0.00210
3157 50.34000 478.36165 474.00000 0.00211
3158 50.35500 479.63731 477.00000 0.00210
3159 50.37000 482.39660 478.00000 0.00209
3160 50.38500 487.28329 519.00000 0.00193
3161 50.40000 495.27645 515.00000 0.00194
3162 50.41500 507.77759 526.00000 0.00190
3163 50.43000 526.69650 524.00000 0.00191
3164 50.44500 554.51305 593.00000 0.00169
3165 50.46000 594.24517 662.00000 0.00151
3166 50.47500 649.19461 709.00000 0.00141
3167 50.49000 722.31680 791.00000 0.00126
3168 50.50500 815.13886 855.00000 0.00117
3169 50.52000 926.34538 972.00000 0.00103
3170 50.53500 1050.37213 1125.00000 0.00089
3171 50.55000 1176.57544 1231.00000 0.00081
3172 50.56500 1289.71213 1402.00000 0.00071
3173 50.58000 1372.20675 1484.00000 0.00067
3174 50.59500 1408.11479 1432.00000 0.00070
3175 50.61000 1388.24113 1540.00000 0.00065
3176 50.62500 1314.46328 1452.00000 0.00069
3177 50.64000 1199.82834 1330.00000 0.00075
3178 50.65500 1063.69542 1157.00000 0.00086
3179 50.67000 925.62277 955.00000 0.00105
3180 50.68500 801.07572 886.00000 0.00113
3181 50.70000 699.39784 744.00000 0.00134
3182 50.71500 623.69705 686.00000 0.00146
3183 50.73000 572.15327 651.00000 0.00154
3184 50.74500 540.01654 627.00000 0.00159
3185 50.76000 521.54361 572.00000 0.00175
3186 50.77500 511.40653 569.00000 0.00176
3187 50.79000 505.44496 577.00000 0.00173
3188 50.80500 500.91824 571.00000 0.00175
3189 50.82000 496.41430 559.00000 0.00179
3190 50.83500 491.53037 539.00000 0.00186
3191 50.85000 486.44620 508.00000 0.00197
3192 50.86500 481.55409 490.00000 0.00204
3193 50.88000 477.22389 475.00000 0.00211
3194 50.89500 473.68937 470.00000 0.00213
3195 50.91000 471.02410 472.00000 0.00212
3196 50.92500 469.17532 460.00000 0.00217
3197 50.94000 468.02265 463.00000 0.00216
3198 50.95500 467.43278 459.00000 0.00218
3199 50.97000 467.29339 460.00000 0.00217
3200 50.98500 467.52280 464.00000 0.00216
3201 51.00000 468.06119 463.00000 0.00216
3202 51.01500 468.85444 456.00000 0.00219
3203 51.03000 469.84231 468.00000 0.00214
3204 51.04500 470.96150 453.00000 0.00221
3205 51.06000 472.17221 476.00000 0.00210
3206 51.07500 473.51778 472.00000 0.00212
3207 51.09000 475.20860 488.00000 0.00205
3208 51.10500 477.77460 494.00000 0.00202
3209 51.12000 482.19915 477.00000 0.00210
3210 51.13500 490.06323 499.00000 0.00200
3211 51.15000 503.64674 499.00000 0.00200
3212 51.16500 525.95208 545.00000 0.00183
3213 51.18000 560.54620 576.00000 0.00174
3214 51.19500 611.17684 608.00000 0.00164
3215 51.21000 681.17800 712.00000 0.00140
3216 51.22500 772.76184 801.00000 0.00125
3217 51.24000 886.33240 969.00000 0.00103
3218 51.25500 1019.92436 1152.00000 0.00087
3219 51.27000 1168.81692 1271.00000 0.00079
3220 51.28500 1325.40436 1518.00000 0.00066
3221 51.30000 1479.51902 1669.00000 0.00060
3222 51.31500 1619.11911 1799.00000 0.00056
3223 51.33000 1730.68358 1894.00000 0.00053
3224 51.34500 1799.55069 1925.00000 0.00052
3225 51.36000 1811.94026 1917.00000 0.00052
3226 51.37500 1759.52231 1829.00000 0.00055
3227 51.39000 1644.63700 1749.00000 0.00057
3228 51.40500 1481.84211 1596.00000 0.00063
3229 51.42000 1293.50620 1334.00000 0.00075
3230 51.43500 1102.91237 1173.00000 0.00085
3231 51.45000 929.03025 970.00000 0.00103
3232 51.46500 783.87952 778.00000 0.00129
3233 51.48000 672.09958 690.00000 0.00145
3234 51.49500 592.24953 629.00000 0.00159
3235 51.51000 539.09314 566.00000 0.00177
3236 51.52500 505.97210 538.00000 0.00186
3237 51.54000 486.59347 521.00000 0.00192
3238 51.55500 475.98558 508.00000 0.00197
3239 51.57000 470.72566 504.00000 0.00198
3240 51.58500 468.72309 501.00000 0.00200
3241 51.60000 468.82762 469.00000 0.00213
3242 51.61500 470.44215 496.00000 0.00202
3243 51.63000 473.22227 479.00000 0.00209
3244 51.64500 476.87856 500.00000 0.00200
3245 51.66000 481.07203 484.00000 0.00207
3246 51.67500 485.38461 514.00000 0.00195
3247 51.69000 489.36286 520.00000 0.00192
3248 51.70500 492.61098 522.00000 0.00192
3249 51.72000 494.88982 492.00000 0.00203
3250 51.73500 496.18464 506.00000 0.00198
3251 51.75000 496.73744 490.00000 0.00204
3252 51.76500 497.06337 513.00000 0.00195
3253 51.78000 497.89608 490.00000 0.00204
3254 51.79500 499.98275 494.00000 0.00202
3255 51.81000 503.79069 503.00000 0.00199
3256 51.82500 509.28485 555.00000 0.00180
3257 51.84000 515.89215 521.00000 0.00192
3258 51.85500 522.69262 528.00000 0.00189
3259 51.87000 528.83314 536.00000 0.00187
3260 51.88500 534.10705 563.00000 0.00178
3261 51.90000 539.53636 557.00000 0.00180
3262 51.91500 547.62934 540.00000 0.00185
3263 51.93000 562.01655 536.00000 0.00187
3264 51.94500 586.50509 579.00000 0.00173
3265 51.96000 623.88698 585.00000 0.00171
3266 51.97500 674.67583 643.00000 0.00156
3267 51.99000 736.13097 704.00000 0.00142
3268 52.00500 801.91552 795.00000 0.00126
3269 52.02000 862.72592 775.00000 0.00129
3270 52.03500 907.97412 857.00000 0.00117
3271 52.05000 928.37065 855.00000 0.00117
3272 52.06500 918.89440 857.00000 0.00117
3273 52.08000 880.85451 787.00000 0.00127
3274 52.09500 821.40994 736.00000 0.00136
3275 52.11000 750.73178 668.00000 0.00150
3276 52.12500 678.89402 641.00000 0.00156
3277 52.14000 613.79641 567.00000 0.00176
3278 52.15500 560.21377 536.00000 0.00187
3279 52.17000 519.81265 487.00000 0.00205
3280 52.18500 491.86622 482.00000 0.00207
3281 52.20000 474.27306 467.00000 0.00214
3282 52.21500 464.49178 460.00000 0.00217
3283 52.23000 460.15868 459.00000 0.00218
3284 52.24500 459.34944 461.00000 0.00217
3285 52.26000 460.58264 460.00000 0.00217
3286 52.27500 462.70843 468.00000 0.00214
3287 52.29000 464.80154 469.00000 0.00213
3288 52.30500 466.12286 462.00000 0.00216
3289 52.32000 466.16186 439.00000 0.00228
3290 52.33500 464.72024 455.00000 0.00220
3291 52.35000 461.95229 457.00000 0.00219
3292 52.36500 458.28023 448.00000 0.00223
3293 52.38000 454.23182 423.00000 0.00236
3294 52.39500 450.28106 442.00000 0.00226
3295 52.41000 446.78131 449.00000 0.00223
3296 52.42500 443.92170 447.00000 0.00224
3297 52.44000 441.73973 437.00000 0.00229
3298 52.45500 440.16668 442.00000 0.00226
3299 52.47000 439.07793 427.00000 0.00234
3300 52.48500 438.34026 436.00000 0.00229
3301 52.50000 437.83981 426.00000 0.00235
3302 52.51500 437.49423 431.00000 0.00232
3303 52.53000 437.25443 420.00000 0.00238
3304 52.54500 437.10290 423.00000 0.00236
3305 52.56000 437.05361 427.00000 0.00234
3306 52.57500 437.16591 434.00000 0.00230
3307 52.59000 437.56666 443.00000 0.00226
3308 52.60500 438.48963 453.00000 0.00221
3309 52.62000 440.32452 427.00000 0.00234
3310 52.63500 443.66103 464.00000 0.00216
3311 52.65000 449.29839 440.00000 0.00227
3312 52.66500 458.18033 439.00000 0.00228
3313 52.68000 471.21832 451.00000 0.00222
3314 52.69500 488.99474 454.00000 0.00220
3315 52.71000 511.39226 492.00000 0.00203
3316 52.72500 537.25840 486.00000 0.00206
3317 52.74000 564.25382 517.00000 0.00193
3318 52.75500 589.01419 554.00000 0.00181
3319 52.77000 607.69248 561.00000 0.00178
3320 52.78500 616.85128 537.00000 0.00186
3321 52.80000 614.54445 533.00000 0.00188
3322 52.81500 601.13074 539.00000 0.00186
3323 52.83000 579.18484 536.00000 0.00187
3324 52.84500 552.50090 495.00000 0.00202
3325 52.86000 524.92725 472.00000 0.00212
3326 52.87500 499.55540 493.00000 0.00203
3327 52.89000 478.32634 483.00000 0.00207
3328 52.90500 461.99718 451.00000 0.00222
3329 52.92000 450.38043 422.00000 0.00237
3330 52.93500 442.71860 429.00000 0.00233
3331 52.95000 438.04934 431.00000 0.00232
3332 52.96500 435.46378 420.00000 0.00238
3333 52.98000 434.23531 407.00000 0.00246
3334 52.99500 433.83804 414.00000 0.00242
3335 53.01000 433.90724 444.00000 0.00225
3336 53.02500 434.18610 430.00000 0.00233
3337 53.04000 434.47156 424.00000 0.00236
3338 53.05500 434.61258 411.00000 0.00243
3339 53.07000 434.50551 426.00000 0.00235
3340 53.08500 434.10828 451.00000 0.00222
3341 53.10000 433.45019 406.00000 0.00246
3342 53.11500 432.61645 414.00000 0.00242
3343 53.13000 431.71617 428.00000 0.00234
3344 53.14500 430.85391 425.00000 0.00235
3345 53.16000 430.11379 422.00000 0.00237
3346 53.17500 429.55611 434.00000 0.00230
3347 53.19000 429.22515 405.00000 0.00247
3348 53.20500 429.16059 421.00000 0.00238
3349 53.22000 429.41366 427.00000 0.00234
3350 53.23500 430.05417 439.00000 0.00228
3351 53.25000 431.16600 441.00000 0.00227
3352 53.26500 432.82787 404.00000 0.00248
3353 53.28000 435.08145 426.00000 0.00235
3354 53.29500 437.89419 432.00000 0.00231
3355 53.31000 441.12953 424.00000 0.00236
3356 53.32500 444.54053 437.00000 0.00229
3357 53.34000 447.80159 415.00000 0.00241
3358 53.35500 450.58633 441.00000 0.00227
3359 53.37000 452.68403 456.00000 0.00219
3360 53.38500 454.12705 457.00000 0.00219
3361 53.40000 455.29759 449.00000 0.00223
3362 53.41500 456.98433 437.00000 0.00229
3363 53.43000 460.36435 445.00000 0.00225
3364 53.44500 466.93912 513.00000 0.00195
3365 53.46000 478.48201 511.00000 0.00196
3366 53.47500 496.99825 530.00000 0.00189
3367 53.49000 524.63598 552.00000 0.00181
3368 53.50500 563.44727 602.00000 0.00166
3369 53.52000 614.91766 638.00000 0.00157
3370 53.53500 679.25971 712.00000 0.00140
3371 53.55000 754.60676 779.00000 0.00128
3372 53.56500 836.32177 900.00000 0.00111
3373 53.58000 916.76012 956.00000 0.00105
3374 53.59500 985.83404 1026.00000 0.00097
3375 53.61000 1032.63209 1132.00000 0.00088
3376 53.62500 1048.04180 1130.00000 0.00088
3377 53.64000 1027.86919 1101.00000 0.00091
3378 53.65500 974.93218 1073.00000 0.00093
3379 53.67000 898.29297 970.00000 0.00103
3380 53.68500 810.03073 908.00000 0.00110
3381 53.70000 721.84291 781.00000 0.00128
3382 53.71500 642.78754 705.00000 0.00142
3383 53.73000 578.23927 635.00000 0.00157
3384 53.74500 529.88603 626.00000 0.00160
3385 53.76000 496.50587 547.00000 0.00183
3386 53.77500 475.13941 524.00000 0.00191
3387 53.79000 462.23594 518.00000 0.00193
3388 53.80500 454.51325 479.00000 0.00209
3389 53.82000 449.45051 460.00000 0.00217
3390 53.83500 445.45208 484.00000 0.00207
3391 53.85000 441.75098 484.00000 0.00207
3392 53.86500 438.15143 471.00000 0.00212
3393 53.88000 434.75357 443.00000 0.00226
3394 53.89500 431.75422 442.00000 0.00226
3395 53.91000 429.33462 452.00000 0.00221
3396 53.92500 427.62854 451.00000 0.00222
3397 53.94000 426.74738 450.00000 0.00222
3398 53.95500 426.83641 444.00000 0.00225
3399 53.97000 428.12912 440.00000 0.00227
3400 53.98500 430.96705 438.00000 0.00228
3401 54.00000 435.76249 419.00000 0.00239
3402 54.01500 442.89666 438.00000 0.00228
3403 54.03000 452.56330 442.00000 0.00226
3404 54.04500 464.59173 453.00000 0.00221
3405 54.06000 478.30915 478.00000 0.00209
3406 54.07500 492.51465 481.00000 0.00208
3407 54.09000 505.62431 490.00000 0.00204
3408 54.10500 516.00805 473.00000 0.00211
3409 54.12000 522.48024 472.00000 0.00212
3410 54.13500 524.83620 495.00000 0.00202
3411 54.15000 524.21101 480.00000 0.00208
3412 54.16500 522.95361 495.00000 0.00202
3413 54.18000 523.96120 490.00000 0.00204
3414 54.19500 529.79788 507.00000 0.00197
3415 54.21000 541.90262 535.00000 0.00187
3416 54.22500 560.03481 529.00000 0.00189
3417 54.24000 582.08163 570.00000 0.00175
3418 54.25500 604.32041 617.00000 0.00162
3419 54.27000 622.15266 570.00000 0.00175
3420 54.28500 631.21285 653.00000 0.00153
3421 54.30000 628.66952 604.00000 0.00166
3422 54.31500 614.23759 588.00000 0.00170
3423 54.33000 590.22360 570.00000 0.00175
3424 54.34500 560.52930 562.00000 0.00178
3425 54.36000 529.37329 526.00000 0.00190
3426 54.37500 500.35005 492.00000 0.00203
3427 54.39000 475.93777 498.00000 0.00201
3428 54.40500 457.40135 470.00000 0.00213
3429 54.42000 445.00335 446.00000 0.00224
3430 54.43500 438.37921 441.00000 0.00227
3431 54.45000 436.90787 465.00000 0.00215
3432 54.46500 439.95142 465.00000 0.00215
3433 54.48000 446.91568 459.00000 0.00218
3434 54.49500 457.16118 468.00000 0.00214
3435 54.51000 469.84042 449.00000 0.00223
3436 54.52500 483.77989 467.00000 0.00214
3437 54.54000 497.46171 488.00000 0.00205
3438 54.55500 509.18172 540.00000 0.00185
3439 54.57000 517.35689 535.00000 0.00187
3440 54.58500 520.89581 540.00000 0.00185
3441 54.60000 519.53284 562.00000 0.00178
3442 54.61500 513.97259 551.00000 0.00181
3443 54.63000 505.67135 494.00000 0.00202
3444 54.64500 496.32859 515.00000 0.00194
3445 54.66000 487.39794 502.00000 0.00199
3446 54.67500 479.80264 501.00000 0.00200
3447 54.69000 473.84958 483.00000 0.00207
3448 54.70500 469.29705 499.00000 0.00200
3449 54.72000 465.55384 489.00000 0.00204
3450 54.73500 461.97433 485.00000 0.00206
3451 54.75000 458.15492 485.00000 0.00206
3452 54.76500 454.08935 497.00000 0.00201
3453 54.78000 450.11006 479.00000 0.00209
3454 54.79500 446.71745 470.00000 0.00213
3455 54.81000 444.45156 504.00000 0.00198
3456 54.82500 443.87454 499.00000 0.00200
3457 54.84000 445.67018 500.00000 0.00200
3458 54.85500 450.83267 521.00000 0.00192
3459 54.87000 460.86984 510.00000 0.00196
3460 54.88500 477.87099 571.00000 0.00175
3461 54.90000 504.31742 580.00000 0.00172
3462 54.91500 542.48765 561.00000 0.00178
3463 54.93000 593.58471 619.00000 0.00162
3464 54.94500 656.73863 624.00000 0.00160
3465 54.96000 728.26205 680.00000 0.00147
3466 54.97500 801.40800 712.00000 0.00140
3467 54.99000 866.97249 713.00000 0.00140
3468 55.00500 914.81551 762.00000 0.00131
3469 55.02000 936.23348 756.00000 0.00132
3470 55.03500 926.72573 733.00000 0.00136
3471 55.05000 887.87477 724.00000 0.00138
3472 55.06500 826.83339 664.00000 0.00151
3473 55.08000 753.69834 638.00000 0.00157
3474 55.09500 678.64036 612.00000 0.00163
3475 55.11000 609.94814 584.00000 0.00171
3476 55.12500 553.09858 552.00000 0.00181
3477 55.14000 510.70925 532.00000 0.00188
3478 55.15500 483.20033 541.00000 0.00185
3479 55.17000 469.73239 507.00000 0.00197
3480 55.18500 469.08587 499.00000 0.00200
3481 55.20000 480.15508 511.00000 0.00196
3482 55.21500 501.95175 529.00000 0.00189
3483 55.23000 533.19583 526.00000 0.00190
3484 55.24500 571.72941 632.00000 0.00158
3485 55.26000 614.05442 663.00000 0.00151
3486 55.27500 655.26528 765.00000 0.00131
3487 55.29000 689.52337 782.00000 0.00128
3488 55.30500 711.09208 840.00000 0.00119
3489 55.32000 715.79640 825.00000 0.00121
3490 55.33500 702.47105 812.00000 0.00123
3491 55.35000 673.51749 769.00000 0.00130
3492 55.36500 634.00054 700.00000 0.00143
3493 55.38000 589.94030 629.00000 0.00159
3494 55.39500 546.81937 530.00000 0.00189
3495 55.41000 508.67921 492.00000 0.00203
3496 55.42500 477.75364 467.00000 0.00214
3497 55.44000 454.57840 456.00000 0.00219
3498 55.45500 438.42262 451.00000 0.00222
3499 55.47000 427.85669 398.00000 0.00251
3500 55.48500 421.26565 450.00000 0.00222
3501 55.50000 417.20932 406.00000 0.00246
3502 55.51500 414.60499 417.00000 0.00240
3503 55.53000 412.76052 420.00000 0.00238
3504 55.54500 411.30734 415.00000 0.00241
3505 55.56000 410.09493 435.00000 0.00230
3506 55.57500 409.09418 424.00000 0.00236
3507 55.59000 408.34747 417.00000 0.00240
3508 55.60500 407.93809 429.00000 0.00233
3509 55.62000 408.00200 415.00000 0.00241
3510 55.63500 408.76302 427.00000 0.00234
3511 55.65000 410.58082 441.00000 0.00227
3512 55.66500 413.99147 434.00000 0.00230
3513 55.68000 419.71151 464.00000 0.00216
3514 55.69500 428.57151 442.00000 0.00226
3515 55.71000 441.35285 455.00000 0.00220
3516 55.72500 458.52767 478.00000 0.00209
3517 55.74000 479.94565 518.00000 0.00193
3518 55.75500 504.56094 535.00000 0.00187
3519 55.77000 530.31418 545.00000 0.00183
3520 55.78500 554.27112 589.00000 0.00170
3521 55.80000 573.07185 576.00000 0.00174
3522 55.81500 583.68898 568.00000 0.00176
3523 55.83000 584.39131 566.00000 0.00177
3524 55.84500 575.55856 589.00000 0.00170
3525 55.86000 559.80438 571.00000 0.00175
3526 55.87500 541.30399 566.00000 0.00177
3527 55.89000 524.84869 538.00000 0.00186
3528 55.90500 515.04321 529.00000 0.00189
3529 55.92000 515.67246 507.00000 0.00197
3530 55.93500 529.16590 559.00000 0.00179
3531 55.95000 556.14053 563.00000 0.00178
3532 55.96500 595.06288 590.00000 0.00169
3533 55.98000 642.12612 667.00000 0.00150
3534 55.99500 691.47508 748.00000 0.00134
3535 56.01000 735.89543 828.00000 0.00121
3536 56.02500 768.01820 879.00000 0.00114
3537 56.04000 781.99289 887.00000 0.00113
3538 56.05500 775.26187 874.00000 0.00114
3539 56.07000 749.48813 808.00000 0.00124
3540 56.08500 709.78843 760.00000 0.00132
3541 56.10000 662.79158 627.00000 0.00159
3542 56.11500 614.78923 592.00000 0.00169
3543 56.13000 570.57082 558.00000 0.00179
3544 56.14500 532.94860 510.00000 0.00196
3545 56.16000 502.81740 478.00000 0.00209
3546 56.17500 479.61853 458.00000 0.00218
3547 56.19000 462.00649 463.00000 0.00216
3548 56.20500 448.49430 420.00000 0.00238
3549 56.22000 437.86719 443.00000 0.00226
3550 56.23500 429.30494 425.00000 0.00235
3551 56.25000 422.32085 415.00000 0.00241
3552 56.26500 416.64317 405.00000 0.00247
3553 56.28000 412.11000 407.00000 0.00246
3554 56.29500 408.59807 409.00000 0.00244
3555 56.31000 405.98897 397.00000 0.00252
3556 56.32500 404.15902 415.00000 0.00241
3557 56.34000 402.99333 396.00000 0.00253
3558 56.35500 402.37665 386.00000 0.00259
3559 56.37000 402.19202 386.00000 0.00259
3560 56.38500 402.32271 378.00000 0.00265
3561 56.40000 402.64287 393.00000 0.00254
3562 56.41500 403.01793 389.00000 0.00257
3563 56.43000 403.31453 373.00000 0.00268
3564 56.44500 403.42070 391.00000 0.00256
3565 56.46000 403.27254 396.00000 0.00253
3566 56.47500 402.87615 410.00000 0.00244
3567 56.49000 402.30716 397.00000 0.00252
3568 56.50500 401.68434 402.00000 0.00249
3569 56.52000 401.13377 366.00000 0.00273
3570 56.53500 400.75716 369.00000 0.00271
3571 56.55000 400.61076 394.00000 0.00254
3572 56.56500 400.69240 373.00000 0.00268
3573 56.58000 400.94336 370.00000 0.00270
3574 56.59500 401.26129 367.00000 0.00272
3575 56.61000 401.52347 410.00000 0.00244
3576 56.62500 401.61721 376.00000 0.00266
3577 56.64000 401.47288 381.00000 0.00262
3578 56.65500 401.08835 378.00000 0.00265
3579 56.67000 400.53058 390.00000 0.00256
3580 56.68500 399.91329 366.00000 0.00273
3581 56.70000 399.36834 380.00000 0.00263
3582 56.71500 399.02066 402.00000 0.00249
3583 56.73000 398.96951 391.00000 0.00256
3584 56.74500 399.27256 397.00000 0.00252
3585 56.76000 399.94023 383.00000 0.00261
3586 56.77500 400.92910 374.00000 0.00267
3587 56.79000 402.14575 372.00000 0.00269
3588 56.80500 403.45750 400.00000 0.00250
3589 56.82000 404.71095 397.00000 0.00252
3590 56.83500 405.75838 387.00000 0.00258
3591 56.85000 406.48990 380.00000 0.00263
3592 56.86500 406.86010 389.00000 0.00257
3593 56.88000 406.88820 398.00000 0.00251
3594 56.89500 406.62856 394.00000 0.00254
3595 56.91000 406.13609 403.00000 0.00248
3596 56.92500 405.45125 375.00000 0.00267
3597 56.94000 404.60790 402.00000 0.00249
3598 56.95500 403.65429 395.00000 0.00253
3599 56.97000 402.66851 401.00000 0.00249
3600 56.98500 401.75303 395.00000 0.00253
3601 57.00000 401.02843 384.00000 0.00260
3602 57.01500 400.64935 392.00000 0.00255
3603 57.03000 400.81869 407.00000 0.00246
3604 57.04500 401.83991 435.00000 0.00230
3605 57.06000 404.19067 419.00000 0.00239
3606 57.07500 408.61575 417.00000 0.00240
3607 57.09000 416.21263 468.00000 0.00214
3608 57.10500 428.44661 492.00000 0.00203
3609 57.12000 447.06451 474.00000 0.00211
3610 57.13500 473.81026 512.00000 0.00195
3611 57.15000 509.93373 548.00000 0.00182
3612 57.16500 555.58934 571.00000 0.00175
3613 57.18000 609.16325 623.00000 0.00161
3614 57.19500 666.92872 664.00000 0.00151
3615 57.21000 723.09994 690.00000 0.00145
3616 57.22500 770.49578 746.00000 0.00134
3617 57.24000 801.86028 728.00000 0.00137
3618 57.25500 811.74388 746.00000 0.00134
3619 57.27000 798.44978 701.00000 0.00143
3620 57.28500 764.93733 733.00000 0.00136
3621 57.30000 717.89635 675.00000 0.00148
3622 57.31500 665.69941 645.00000 0.00155
3623 57.33000 616.47647 617.00000 0.00162
3624 57.34500 576.78013 590.00000 0.00169
3625 57.36000 550.80364 560.00000 0.00179
3626 57.37500 540.07958 557.00000 0.00180
3627 57.39000 543.58668 563.00000 0.00178
3628 57.40500 558.15317 623.00000 0.00161
3629 57.42000 579.05268 673.00000 0.00149
3630 57.43500 600.73326 708.00000 0.00141
3631 57.45000 617.66973 705.00000 0.00142
3632 57.46500 625.34883 729.00000 0.00137
3633 57.48000 621.28270 697.00000 0.00143
3634 57.49500 605.62513 695.00000 0.00144
3635 57.51000 580.88085 626.00000 0.00160
3636 57.52500 550.85339 590.00000 0.00169
3637 57.54000 519.52887 501.00000 0.00200
3638 57.55500 490.30488 491.00000 0.00204
3639 57.57000 465.58418 441.00000 0.00227
3640 57.58500 446.67031 426.00000 0.00235
3641 57.60000 433.90151 415.00000 0.00241
3642 57.61500 426.92055 402.00000 0.00249
3643 57.63000 424.95668 391.00000 0.00256
3644 57.64500 427.03472 411.00000 0.00243
3645 57.66000 432.09197 422.00000 0.00237
3646 57.67500 439.03799 431.00000 0.00232
3647 57.69000 446.81599 435.00000 0.00230
3648 57.70500 454.51432 419.00000 0.00239
3649 57.72000 461.55305 442.00000 0.00226
3650 57.73500 467.91956 433.00000 0.00231
3651 57.75000 474.35010 455.00000 0.00220
3652 57.76500 482.26081 460.00000 0.00217
3653 57.78000 493.33520 481.00000 0.00208
3654 57.79500 508.91024 478.00000 0.00209
3655 57.81000 529.38665 516.00000 0.00194
3656 57.82500 553.82317 542.00000 0.00185
3657 57.84000 579.82702 544.00000 0.00184
3658 57.85500 603.81173 573.00000 0.00175
3659 57.87000 621.63644 585.00000 0.00171
3660 57.88500 629.58932 571.00000 0.00175
3661 57.90000 625.53873 553.00000 0.00181
3662 57.91500 609.73504 545.00000 0.00183
3663 57.93000 584.74131 540.00000 0.00185
3664 57.94500 554.52203 518.00000 0.00193
3665 57.96000 523.38932 513.00000 0.00195
3666 57.97500 495.27072 478.00000 0.00209
3667 57.99000 473.36729 466.00000 0.00215
3668 58.00500 460.14003 474.00000 0.00211
3669 58.02000 457.51240 453.00000 0.00221
3670 58.03500 467.10496 487.00000 0.00205
3671 58.05000 490.32019 504.00000 0.00198
3672 58.06500 528.07867 532.00000 0.00188
3673 58.08000 580.24468 587.00000 0.00170
3674 58.09500 644.88334 626.00000 0.00160
3675 58.11000 717.64813 754.00000 0.00133
3676 58.12500 791.62211 829.00000 0.00121
3677 58.14000 857.85059 917.00000 0.00109
3678 58.15500 906.67179 1036.00000 0.00097
3679 58.17000 929.81440 1033.00000 0.00097
3680 58.18500 922.87575 1045.00000 0.00096
3681 58.20000 887.02680 954.00000 0.00105
3682 58.21500 828.61101 880.00000 0.00114
3683 58.23000 756.85924 726.00000 0.00138
3684 58.24500 681.31197 687.00000 0.00146
3685 58.26000 609.96752 573.00000 0.00175
3686 58.27500 548.27781 507.00000 0.00197
3687 58.29000 498.89841 474.00000 0.00211
3688 58.30500 462.05899 432.00000 0.00231
3689 58.32000 436.31563 422.00000 0.00237
3690 58.33500 419.39380 431.00000 0.00232
3691 58.35000 408.88817 396.00000 0.00253
3692 58.36500 402.70632 391.00000 0.00256
3693 58.38000 399.26083 384.00000 0.00260
3694 58.39500 397.48112 390.00000 0.00256
3695 58.41000 396.73746 372.00000 0.00269
3696 58.42500 396.75232 402.00000 0.00249
3697 58.44000 397.54724 412.00000 0.00243
3698 58.45500 399.44689 398.00000 0.00251
3699 58.47000 403.14030 379.00000 0.00264
3700 58.48500 409.77651 408.00000 0.00245
3701 58.50000 421.04668 386.00000 0.00259
3702 58.51500 439.17613 402.00000 0.00249
3703 58.53000 466.73348 426.00000 0.00235
3704 58.54500 506.17996 468.00000 0.00214
3705 58.56000 559.14812 492.00000 0.00203
3706 58.57500 625.55544 569.00000 0.00176
3707 58.59000 702.78511 626.00000 0.00160
3708 58.60500 785.24084 720.00000 0.00139
3709 58.62000 864.55153 842.00000 0.00119
3710 58.63500 930.58786 962.00000 0.00104
3711 58.65000 973.33314 995.00000 0.00101
3712 58.66500 985.45951 961.00000 0.00104
3713 58.68000 964.86717 941.00000 0.00106
3714 58.69500 915.65340 831.00000 0.00120
3715 58.71000 846.62381 793.00000 0.00126
3716 58.72500 768.44450 679.00000 0.00147
3717 58.74000 691.07387 552.00000 0.00181
3718 58.75500 622.08837 542.00000 0.00185
3719 58.77000 565.88916 475.00000 0.00211
3720 58.78500 523.70625 470.00000 0.00213
3721 58.80000 494.23850 426.00000 0.00235
3722 58.81500 474.63914 435.00000 0.00230
3723 58.83000 461.57287 402.00000 0.00249
3724 58.84500 452.08367 410.00000 0.00244
3725 58.86000 444.14090 423.00000 0.00236
3726 58.87500 436.76431 417.00000 0.00240
3727 58.89000 429.79716 416.00000 0.00240
3728 58.90500 423.54155 400.00000 0.00250
3729 58.92000 418.42807 391.00000 0.00256
3730 58.93500 414.77820 393.00000 0.00254
3731 58.95000 412.67008 421.00000 0.00238
3732 58.96500 411.90366 411.00000 0.00243
3733 58.98000 412.04835 387.00000 0.00258
3734 58.99500 412.54573 434.00000 0.00230
3735 59.01000 412.84063 410.00000 0.00244
3736 59.02500 412.51423 429.00000 0.00233
3737 59.04000 411.37493 415.00000 0.00241
3738 59.05500 409.47595 412.00000 0.00243
3739 59.07000 407.07264 408.00000 0.00245
3740 59.08500 404.55611 425.00000 0.00235
3741 59.10000 402.38867 421.00000 0.00238
3742 59.11500 401.06323 393.00000 0.00254
3743 59.13000 401.10218 409.00000 0.00244
3744 59.14500 403.09596 410.00000 0.00244
3745 59.16000 407.77159 388.00000 0.00258
3746 59.17500 416.07495 407.00000 0.00246
3747 59.19000 429.23850 421.00000 0.00238
3748 59.20500 448.79515 444.00000 0.00225
3749 59.22000 476.47551 489.00000 0.00204
3750 59.23500 513.93254 540.00000 0.00185
3751 59.25000 562.26621 558.00000 0.00179
3752 59.26500 621.40313 635.00000 0.00157
3753 59.28000 689.48317 692.00000 0.00145
3754 59.29500 762.44303 827.00000 0.00121
3755 59.31000 833.95786 902.00000 0.00111
3756 59.32500 895.90351 1016.00000 0.00098
3757 59.34000 939.51858 1060.00000 0.00094
3758 59.35500 957.33289 1116.00000 0.00090
3759 59.37000 945.51130 1094.00000 0.00091
3760 59.38500 905.48429 1017.00000 0.00098
3761 59.40000 843.57684 942.00000 0.00106
3762 59.41500 768.83904 813.00000 0.00123
3763 59.43000 690.61506 710.00000 0.00141
3764 59.44500 616.77000 650.00000 0.00154
3765 59.46000 552.71613 556.00000 0.00180
3766 59.47500 501.14365 526.00000 0.00190
3767 59.49000 462.34277 498.00000 0.00201
3768 59.50500 434.90664 466.00000 0.00215
3769 59.52000 416.55048 410.00000 0.00244
3770 59.53500 404.81564 418.00000 0.00239
3771 59.55000 397.53759 380.00000 0.00263
3772 59.56500 393.06038 400.00000 0.00250
3773 59.58000 390.25938 377.00000 0.00265
3774 59.59500 388.44340 390.00000 0.00256
3775 59.61000 387.22827 393.00000 0.00254
3776 59.62500 386.43231 389.00000 0.00257
3777 59.64000 385.99346 392.00000 0.00255
3778 59.65500 385.92056 371.00000 0.00270
3779 59.67000 386.26560 372.00000 0.00269
3780 59.68500 387.10579 388.00000 0.00258
3781 59.70000 388.52388 385.00000 0.00260
3782 59.71500 390.58069 366.00000 0.00273
3783 59.73000 393.28028 373.00000 0.00268
3784 59.74500 396.53496 405.00000 0.00247
3785 59.76000 400.14052 392.00000 0.00255
3786 59.77500 403.77141 372.00000 0.00269
3787 59.79000 407.00626 372.00000 0.00269
3788 59.80500 409.38556 371.00000 0.00270
3789 59.82000 410.50901 374.00000 0.00267
3790 59.83500 410.15505 400.00000 0.00250
3791 59.85000 408.37001 388.00000 0.00258
3792 59.86500 405.45843 379.00000 0.00264
3793 59.88000 401.87482 380.00000 0.00263
3794 59.89500 398.09189 366.00000 0.00273
3795 59.91000 394.50266 364.00000 0.00275
3796 59.92500 391.36661 362.00000 0.00276
3797 59.94000 388.79655 365.00000 0.00274
3798 59.95500 386.78109 369.00000 0.00271
3799 59.97000 385.23193 380.00000 0.00263
3800 59.98500 384.03887 372.00000 0.00269
3801 60.00000 383.11414 367.00000 0.00272
3802 60.01500 382.40680 376.00000 0.00266
3803 60.03000 381.92682 351.00000 0.00285
3804 60.04500 381.73874 373.00000 0.00268
3805 60.06000 381.97263 383.00000 0.00261
3806 60.07500 382.83561 390.00000 0.00256
3807 60.09000 384.62257 368.00000 0.00272
3808 60.10500 387.71517 378.00000 0.00265
3809 60.12000 392.55392 386.00000 0.00259
3810 60.13500 399.56731 393.00000 0.00254
3811 60.15000 409.05969 416.00000 0.00240
3812 60.16500 421.06474 424.00000 0.00236
3813 60.18000 435.20266 457.00000 0.00219
3814 60.19500 450.58764 483.00000 0.00207
3815 60.21000 465.83523 540.00000 0.00185
3816 60.22500 479.20089 564.00000 0.00177
3817 60.24000 488.85563 601.00000 0.00166
3818 60.25500 493.28165 599.00000 0.00167
3819 60.27000 491.70982 567.00000 0.00176
3820 60.28500 484.40921 611.00000 0.00164
3821 60.30000 472.59924 538.00000 0.00186
3822 60.31500 458.03511 524.00000 0.00191
3823 60.33000 442.54948 462.00000 0.00216
3824 60.34500 427.71916 453.00000 0.00221
3825 60.36000 414.67879 420.00000 0.00238
3826 60.37500 404.05876 405.00000 0.00247
3827 60.39000 396.03012 403.00000 0.00248
3828 60.40500 390.42582 393.00000 0.00254
3829 60.42000 386.88659 384.00000 0.00260
3830 60.43500 384.99937 383.00000 0.00261
3831 60.45000 384.40915 397.00000 0.00252
3832 60.46500 384.88561 370.00000 0.00270
3833 60.48000 386.37435 374.00000 0.00267
3834 60.49500 389.02892 384.00000 0.00260
3835 60.51000 393.22336 366.00000 0.00273
3836 60.52500 399.52948 363.00000 0.00275
3837 60.54000 408.63164 376.00000 0.00266
3838 60.55500 421.15789 398.00000 0.00251
3839 60.57000 437.43958 387.00000 0.00258
3840 60.58500 457.25135 419.00000 0.00239
3841 60.60000 479.61182 458.00000 0.00218
3842 60.61500 502.71938 477.00000 0.00210
3843 60.63000 524.07678 501.00000 0.00200
3844 60.64500 540.83741 547.00000 0.00183
3845 60.66000 550.37017 578.00000 0.00173
3846 60.67500 550.98309 586.00000 0.00171
3847 60.69000 542.53871 559.00000 0.00179
3848 60.70500 526.55005 540.00000 0.00185
3849 60.72000 505.67178 494.00000 0.00202
3850 60.73500 482.97913 457.00000 0.00219
3851 60.75000 461.40179 426.00000 0.00235
3852 60.76500 443.39583 412.00000 0.00243
3853 60.78000 430.81554 398.00000 0.00251
3854 60.79500 424.93734 407.00000 0.00246
3855 60.81000 426.55030 430.00000 0.00233
3856 60.82500 436.01542 439.00000 0.00228
3857 60.84000 453.21943 471.00000 0.00212
3858 60.85500 477.41493 520.00000 0.00192
3859 60.87000 507.01534 558.00000 0.00179
3860 60.88500 539.46209 653.00000 0.00153
3861 60.90000 571.28162 725.00000 0.00138
3862 60.91500 598.40805 795.00000 0.00126
3863 60.93000 616.80907 850.00000 0.00118
3864 60.94500 623.39028 866.00000 0.00115
3865 60.96000 616.95160 803.00000 0.00125
3866 60.97500 598.65181 782.00000 0.00128
3867 60.99000 571.57902 715.00000 0.00140
3868 61.00500 539.73722 668.00000 0.00150
3869 61.02000 507.04800 596.00000 0.00168
3870 61.03500 476.71515 522.00000 0.00192
3871 61.05000 450.84740 485.00000 0.00206
3872 61.06500 430.40106 436.00000 0.00229
3873 61.08000 415.36747 424.00000 0.00236
3874 61.09500 405.08314 424.00000 0.00236
3875 61.11000 398.62372 407.00000 0.00246
3876 61.12500 395.14317 418.00000 0.00239
3877 61.14000 394.13494 433.00000 0.00231
3878 61.15500 395.59812 454.00000 0.00220
3879 61.17000 400.12633 434.00000 0.00230
3880 61.18500 408.94036 465.00000 0.00215
3881 61.20000 423.85715 483.00000 0.00207
3882 61.21500 447.17900 518.00000 0.00193
3883 61.23000 481.42157 502.00000 0.00199
3884 61.24500 528.89048 560.00000 0.00179
3885 61.26000 591.11838 623.00000 0.00161
3886 61.27500 668.24940 688.00000 0.00145
3887 61.29000 758.49672 759.00000 0.00132
3888 61.30500 857.80663 838.00000 0.00119
3889 61.32000 959.85967 879.00000 0.00114
3890 61.33500 1056.56733 985.00000 0.00102
3891 61.35000 1139.21658 983.00000 0.00102
3892 61.36500 1200.09010 1108.00000 0.00090
3893 61.38000 1233.78156 1125.00000 0.00089
3894 61.39500 1237.53259 1111.00000 0.00090
3895 61.41000 1211.08439 1132.00000 0.00088
3896 61.42500 1157.04707 1092.00000 0.00092
3897 61.44000 1081.58612 1004.00000 0.00100
3898 61.45500 994.23855 984.00000 0.00102
3899 61.47000 906.35287 865.00000 0.00116
3900 61.48500 829.04145 856.00000 0.00117
3901 61.50000 771.54509 841.00000 0.00119
3902 61.51500 740.11257 795.00000 0.00126
3903 61.53000 737.24636 813.00000 0.00123
3904 61.54500 761.31073 848.00000 0.00118
3905 61.56000 806.63354 896.00000 0.00112
3906 61.57500 864.12130 1010.00000 0.00099
3907 61.59000 922.42729 1091.00000 0.00092
3908 61.60500 969.62776 1226.00000 0.00082
3909 61.62000 995.38491 1217.00000 0.00082
3910 61.63500 993.34247 1256.00000 0.00080
3911 61.65000 962.80408 1148.00000 0.00087
3912 61.66500 908.49006 1038.00000 0.00096
3913 61.68000 838.47282 863.00000 0.00116
3914 61.69500 761.70925 770.00000 0.00130
3915 61.71000 686.18789 669.00000 0.00149
3916 61.72500 617.82650 555.00000 0.00180
3917 61.74000 560.02607 521.00000 0.00192
3918 61.75500 513.82551 484.00000 0.00207
3919 61.77000 478.51780 444.00000 0.00225
3920 61.78500 452.43558 434.00000 0.00230
3921 61.80000 433.61769 429.00000 0.00233
3922 61.81500 420.22127 420.00000 0.00238
3923 61.83000 410.71199 392.00000 0.00255
3924 61.84500 403.91249 430.00000 0.00233
3925 61.86000 398.98176 403.00000 0.00248
3926 61.87500 395.38740 410.00000 0.00244
3927 61.89000 392.90613 419.00000 0.00239
3928 61.90500 391.64239 412.00000 0.00243
3929 61.92000 392.03065 413.00000 0.00242
3930 61.93500 394.80262 432.00000 0.00231
3931 61.95000 400.90329 435.00000 0.00230
3932 61.96500 411.35602 443.00000 0.00226
3933 61.98000 427.04204 459.00000 0.00218
3934 61.99500 448.41066 469.00000 0.00213
3935 62.01000 475.16736 511.00000 0.00196
3936 62.02500 506.02261 508.00000 0.00197
3937 62.04000 538.59639 518.00000 0.00193
3938 62.05500 569.55236 543.00000 0.00184
3939 62.07000 594.99688 532.00000 0.00188
3940 62.08500 611.15349 582.00000 0.00172
3941 62.10000 615.27232 546.00000 0.00183
3942 62.11500 606.51710 560.00000 0.00179
3943 62.13000 586.29922 515.00000 0.00194
3944 62.14500 557.76366 502.00000 0.00199
3945 62.16000 524.81290 501.00000 0.00200
3946 62.17500 491.21541 474.00000 0.00211
3947 62.19000 459.99788 447.00000 0.00224
3948 62.20500 433.16578 454.00000 0.00220
3949 62.22000 411.64421 420.00000 0.00238
3950 62.23500 395.44630 408.00000 0.00245
3951 62.25000 383.96166 415.00000 0.00241
3952 62.26500 376.26862 387.00000 0.00258
3953 62.28000 371.39163 385.00000 0.00260
3954 62.29500 368.46759 374.00000 0.00267
3955 62.31000 366.82134 374.00000 0.00267
3956 62.32500 365.97456 372.00000 0.00269
3957 62.34000 365.61853 369.00000 0.00271
3958 62.35500 365.57741 383.00000 0.00261
3959 62.37000 365.77546 398.00000 0.00251
3960 62.38500 366.21414 373.00000 0.00268
3961 62.40000 366.95575 364.00000 0.00275
3962 62.41500 368.10511 360.00000 0.00278
3963 62.43000 369.78241 373.00000 0.00268
3964 62.44500 372.09091 381.00000 0.00262
3965 62.46000 375.08475 394.00000 0.00254
3966 62.47500 378.75111 384.00000 0.00260
3967 62.49000 383.01642 416.00000 0.00240
3968 62.50500 387.78343 404.00000 0.00248
3969 62.52000 392.99846 374.00000 0.00267
3970 62.53500 398.73925 408.00000 0.00245
3971 62.55000 405.30243 401.00000 0.00249
3972 62.56500 413.24978 443.00000 0.00226
3973 62.58000 423.34429 440.00000 0.00227
3974 62.59500 436.32917 445.00000 0.00225
3975 62.61000 452.59955 469.00000 0.00213
3976 62.62500 471.88705 485.00000 0.00206
3977 62.64000 493.06585 463.00000 0.00216
3978 62.65500 514.14592 484.00000 0.00207
3979 62.67000 532.48836 487.00000 0.00205
3980 62.68500 545.25343 515.00000 0.00194
3981 62.70000 550.05936 508.00000 0.00197
3982 62.71500 545.70854 492.00000 0.00203
3983 62.73000 532.63013 479.00000 0.00209
3984 62.74500 512.72207 476.00000 0.00210
3985 62.76000 488.71545 451.00000 0.00222
3986 62.77500 463.45906 435.00000 0.00230
3987 62.79000 439.43463 428.00000 0.00234
3988 62.80500 418.43182 432.00000 0.00231
3989 62.82000 401.44348 413.00000 0.00242
3990 62.83500 388.72117 417.00000 0.00240
3991 62.85000 379.94573 407.00000 0.00246
3992 62.86500 374.44532 373.00000 0.00268
3993 62.88000 371.40019 369.00000 0.00271
3994 62.89500 369.99811 378.00000 0.00265
3995 62.91000 369.53222 360.00000 0.00278
3996 62.92500 369.45309 374.00000 0.00267
3997 62.94000 369.39384 379.00000 0.00264
3998 62.95500 369.17790 389.00000 0.00257
3999 62.97000 368.80024 374.00000 0.00267
4000 62.98500 368.37463 387.00000 0.00258
4001 63.00000 368.06301 385.00000 0.00260
4002 63.01500 368.01160 368.00000 0.00272
4003 63.03000 368.30551 350.00000 0.00286
4004 63.04500 368.94307 372.00000 0.00269
4005 63.06000 369.83274 354.00000 0.00282
4006 63.07500 370.81074 353.00000 0.00283
4007 63.09000 371.67488 372.00000 0.00269
4008 63.10500 372.22981 366.00000 0.00273
4009 63.12000 372.33958 359.00000 0.00279
4010 63.13500 371.97466 360.00000 0.00278
4011 63.15000 371.23908 369.00000 0.00271
4012 63.16500 370.37240 367.00000 0.00272
4013 63.18000 369.72855 349.00000 0.00287
4014 63.19500 369.73607 352.00000 0.00284
4015 63.21000 370.85052 364.00000 0.00275
4016 63.22500 373.50389 385.00000 0.00260
4017 63.24000 378.04690 386.00000 0.00259
4018 63.25500 384.68005 395.00000 0.00253
4019 63.27000 393.37709 376.00000 0.00266
4020 63.28500 403.81534 410.00000 0.00244
4021 63.30000 415.33758 391.00000 0.00256
4022 63.31500 426.97535 401.00000 0.00249
4023 63.33000 437.53664 409.00000 0.00244
4024 63.34500 445.75547 414.00000 0.00242
4025 63.36000 450.50117 427.00000 0.00234
4026 63.37500 451.05380 440.00000 0.00227
4027 63.39000 447.37820 408.00000 0.00245
4028 63.40500 440.23700 418.00000 0.00239
4029 63.42000 431.05780 407.00000 0.00246
4030 63.43500 421.67623 411.00000 0.00243
4031 63.45000 414.12210 390.00000 0.00256
4032 63.46500 410.50315 402.00000 0.00249
4033 63.48000 412.93172 413.00000 0.00242
4034 63.49500 423.44607 431.00000 0.00232
4035 63.51000 443.86226 442.00000 0.00226
4036 63.52500 475.49257 495.00000 0.00202
4037 63.54000 518.73167 519.00000 0.00193
4038 63.55500 572.57667 605.00000 0.00165
4039 63.57000 634.22374 681.00000 0.00147
4040 63.58500 698.91843 752.00000 0.00133
4041 63.60000 760.20651 814.00000 0.00123
4042 63.61500 810.66303 917.00000 0.00109
4043 63.63000 843.13055 981.00000 0.00102
4044 63.64500 852.39619 993.00000 0.00101
4045 63.66000 836.83516 964.00000 0.00104
4046 63.67500 799.05116 932.00000 0.00107
4047 63.69000 744.96619 852.00000 0.00117
4048 63.70500 682.02339 750.00000 0.00133
4049 63.72000 617.50947 595.00000 0.00168
4050 63.73500 557.41706 585.00000 0.00171
4051 63.75000 505.82324 524.00000 0.00191
4052 63.76500 464.74033 470.00000 0.00213
4053 63.78000 434.36101 410.00000 0.00244
4054 63.79500 413.55763 403.00000 0.00248
4055 63.81000 400.46411 401.00000 0.00249
4056 63.82500 392.99337 392.00000 0.00255
4057 63.84000 389.20041 399.00000 0.00251
4058 63.85500 387.47154 374.00000 0.00267
4059 63.87000 386.58053 354.00000 0.00282
4060 63.88500 385.69974 390.00000 0.00256
4061 63.90000 384.38111 371.00000 0.00270
4062 63.91500 382.51978 365.00000 0.00274
4063 63.93000 380.25947 357.00000 0.00280
4064 63.94500 377.85326 348.00000 0.00287
4065 63.96000 375.53569 361.00000 0.00277
4066 63.97500 373.44342 357.00000 0.00280
4067 63.99000 371.58453 366.00000 0.00273
4068 64.00500 369.85249 336.00000 0.00298
4069 64.02000 368.07960 342.00000 0.00292
4070 64.03500 366.11389 371.00000 0.00270
4071 64.05000 363.88667 339.00000 0.00295
4072 64.06500 361.43343 345.00000 0.00290
4073 64.08000 358.86810 335.00000 0.00299
4074 64.09500 356.33825 330.00000 0.00303
4075 64.11000 353.98106 335.00000 0.00299
4076 64.12500 351.91173 318.00000 0.00314
4077 64.14000 350.19784 337.00000 0.00297
4078 64.15500 348.86654 345.00000 0.00290
4079 64.17000 347.90769 337.00000 0.00297
4080 64.18500 347.29876 336.00000 0.00298
4081 64.20000 347.02231 356.00000 0.00281
4082 64.21500 347.08123 337.00000 0.00297
4083 64.23000 347.50635 319.00000 0.00313
4084 64.24500 348.35433 340.00000 0.00294
4085 64.26000 349.69504 336.00000 0.00298
4086 64.27500 351.58895 347.00000 0.00288
4087 64.29000 354.05781 351.00000 0.00285
4088 64.30500 357.05459 363.00000 0.00275
4089 64.32000 360.44045 341.00000 0.00293
4090 64.33500 363.97675 327.00000 0.00306
4091 64.35000 367.33776 330.00000 0.00303
4092 64.36500 370.14793 357.00000 0.00280
4093 64.38000 372.04610 334.00000 0.00299
4094 64.39500 372.77066 345.00000 0.00290
4095 64.41000 372.23456 374.00000 0.00267
4096 64.42500 370.54475 381.00000 0.00262
4097 64.44000 367.95698 368.00000 0.00272
4098 64.45500 364.82236 368.00000 0.00272
4099 64.47000 361.50140 348.00000 0.00287
4100 64.48500 358.33451 381.00000 0.00262
4101 64.50000 355.60635 359.00000 0.00279
4102 64.51500 353.54481 361.00000 0.00277
4103 64.53000 352.35287 362.00000 0.00276
4104 64.54500 352.26941 393.00000 0.00254
4105 64.56000 353.65079 396.00000 0.00253
4106 64.57500 357.06026 376.00000 0.00266
4107 64.59000 363.34386 396.00000 0.00253
4108 64.60500 373.66066 417.00000 0.00240
4109 64.62000 389.42750 424.00000 0.00236
4110 64.63500 412.14022 441.00000 0.00227
4111 64.65000 443.05434 475.00000 0.00211
4112 64.66500 482.74886 472.00000 0.00212
4113 64.68000 530.64874 505.00000 0.00198
4114 64.69500 584.65421 542.00000 0.00185
4115 64.71000 640.98908 569.00000 0.00176
4116 64.72500 694.39958 601.00000 0.00166
4117 64.74000 738.74474 626.00000 0.00160
4118 64.75500 768.00713 655.00000 0.00153
4119 64.77000 777.68204 634.00000 0.00158
4120 64.78500 766.17138 642.00000 0.00156
4121 64.80000 735.38167 622.00000 0.00161
4122 64.81500 690.04037 613.00000 0.00163
4123 64.83000 636.24321 552.00000 0.00181
4124 64.84500 580.07135 542.00000 0.00185
4125 64.86000 526.63212 516.00000 0.00194
4126 64.87500 479.52331 489.00000 0.00204
4127 64.89000 440.67593 463.00000 0.00216
4128 64.90500 410.52126 426.00000 0.00235
4129 64.92000 388.37951 397.00000 0.00252
4130 64.93500 372.93266 402.00000 0.00249
4131 64.95000 362.65502 402.00000 0.00249
4132 64.96500 356.11815 380.00000 0.00263
4133 64.98000 352.16984 373.00000 0.00268
4134 64.99500 349.94637 378.00000 0.00265
4135 65.01000 348.86081 376.00000 0.00266
4136 65.02500 348.52865 371.00000 0.00270
4137 65.04000 348.69513 384.00000 0.00260
4138 65.05500 349.17574 338.00000 0.00296
4139 65.07000 349.81641 350.00000 0.00286
4140 65.08500 350.47129 364.00000 0.00275
4141 65.10000 350.99549 366.00000 0.00273
4142 65.11500 351.25206 343.00000 0.00292
4143 65.13000 351.13286 354.00000 0.00282
4144 65.14500 350.58658 359.00000 0.00279
4145 65.16000 349.63719 342.00000 0.00292
4146 65.17500 348.37644 342.00000 0.00292
4147 65.19000 346.93334 330.00000 0.00303
4148 65.20500 345.44345 351.00000 0.00285
4149 65.22000 344.02507 322.00000 0.00311
4150 65.23500 342.76469 338.00000 0.00296
4151 65.25000 341.71298 355.00000 0.00282
4152 65.26500 340.88585 327.00000 0.00306
4153 65.28000 340.27241 322.00000 0.00311
4154 65.29500 339.84558 326.00000 0.00307
4155 65.31000 339.57264 331.00000 0.00302
4156 65.32500 339.42464 339.00000 0.00295
4157 65.34000 339.38380 320.00000 0.00312
4158 65.35500 339.45126 331.00000 0.00302
4159 65.37000 339.65534 326.00000 0.00307
4160 65.38500 340.06559 330.00000 0.00303
4161 65.40000 340.81227 343.00000 0.00292
4162 65.41500 342.11163 336.00000 0.00298
4163 65.43000 344.29368 331.00000 0.00302
4164 65.44500 347.82388 336.00000 0.00298
4165 65.46000 353.30367 346.00000 0.00289
4166 65.47500 361.43311 354.00000 0.00282
4167 65.49000 372.91915 383.00000 0.00261
4168 65.50500 388.32380 374.00000 0.00267
4169 65.52000 407.86566 367.00000 0.00272
4170 65.53500 431.21181 423.00000 0.00236
4171 65.55000 457.31729 448.00000 0.00223
4172 65.56500 484.37346 470.00000 0.00213
4173 65.58000 509.91300 516.00000 0.00194
4174 65.59500 531.09523 569.00000 0.00176
4175 65.61000 545.16608 581.00000 0.00172
4176 65.62500 550.06184 578.00000 0.00173
4177 65.64000 545.01464 567.00000 0.00176
4178 65.65500 530.84138 549.00000 0.00182
4179 65.67000 509.68295 492.00000 0.00203
4180 65.68500 484.36224 496.00000 0.00202
4181 65.70000 457.73905 433.00000 0.00231
4182 65.71500 432.24844 420.00000 0.00238
4183 65.73000 409.64378 384.00000 0.00260
4184 65.74500 390.88045 386.00000 0.00259
4185 65.76000 376.19641 364.00000 0.00275
4186 65.77500 365.28247 350.00000 0.00286
4187 65.79000 357.50978 347.00000 0.00288
4188 65.80500 352.14808 335.00000 0.00299
4189 65.82000 348.52875 333.00000 0.00300
4190 65.83500 346.13369 348.00000 0.00287
4191 65.85000 344.62012 346.00000 0.00289
4192 65.86500 343.80379 347.00000 0.00288
4193 65.88000 343.61984 346.00000 0.00289
4194 65.89500 344.07384 337.00000 0.00297
4195 65.91000 345.19234 344.00000 0.00291
4196 65.92500 346.97802 350.00000 0.00286
4197 65.94000 349.37363 342.00000 0.00292
4198 65.95500 352.23872 366.00000 0.00273
4199 65.97000 355.34363 363.00000 0.00275
4200 65.98500 358.38480 350.00000 0.00286
4201 66.00000 361.02358 361.00000 0.00277
4202 66.01500 362.94949 363.00000 0.00275
4203 66.03000 363.96580 347.00000 0.00288
4204 66.04500 364.08353 369.00000 0.00271
4205 66.06000 363.58995 368.00000 0.00272
4206 66.07500 363.06094 368.00000 0.00272
4207 66.09000 363.32609 355.00000 0.00282
4208 66.10500 365.41607 373.00000 0.00268
4209 66.12000 370.49601 366.00000 0.00273
4210 66.13500 379.76268 373.00000 0.00268
4211 66.15000 394.28367 386.00000 0.00259
4212 66.16500 414.77413 425.00000 0.00235
4213 66.18000 441.33387 418.00000 0.00239
4214 66.19500 473.19841 453.00000 0.00221
4215 66.21000 508.57868 499.00000 0.00200
4216 66.22500 544.66298 555.00000 0.00180
4217 66.24000 577.82792 624.00000 0.00160
4218 66.25500 604.08220 639.00000 0.00156
4219 66.27000 619.76020 627.00000 0.00159
4220 66.28500 622.41037 662.00000 0.00151
4221 66.30000 611.57452 603.00000 0.00166
4222 66.31500 588.95952 584.00000 0.00171
4223 66.33000 557.85266 555.00000 0.00180
4224 66.34500 522.20194 528.00000 0.00189
4225 66.36000 485.81605 475.00000 0.00211
4226 66.37500 451.82451 439.00000 0.00228
4227 66.39000 422.38314 414.00000 0.00242
4228 66.40500 398.60279 388.00000 0.00258
4229 66.42000 380.66762 361.00000 0.00277
4230 66.43500 368.07761 361.00000 0.00277
4231 66.45000 359.93443 363.00000 0.00275
4232 66.46500 355.20132 333.00000 0.00300
4233 66.48000 352.89653 348.00000 0.00287
4234 66.49500 352.20987 361.00000 0.00277
4235 66.51000 352.55432 344.00000 0.00291
4236 66.52500 353.57231 358.00000 0.00279
4237 66.54000 355.10814 345.00000 0.00290
4238 66.55500 357.14579 364.00000 0.00275
4239 66.57000 359.71772 372.00000 0.00269
4240 66.58500 362.81055 369.00000 0.00271
4241 66.60000 366.29629 388.00000 0.00258
4242 66.61500 369.90371 382.00000 0.00262
4243 66.63000 373.23391 363.00000 0.00275
4244 66.64500 375.82112 419.00000 0.00239
4245 66.66000 377.23952 404.00000 0.00248
4246 66.67500 377.24410 410.00000 0.00244
4247 66.69000 375.90004 408.00000 0.00245
4248 66.70500 373.63286 416.00000 0.00240
4249 66.72000 371.18306 408.00000 0.00245
4250 66.73500 369.52992 400.00000 0.00250
4251 66.75000 369.81885 388.00000 0.00258
4252 66.76500 373.29253 435.00000 0.00230
4253 66.78000 381.19957 418.00000 0.00239
4254 66.79500 394.65799 451.00000 0.00222
4255 66.81000 414.46292 452.00000 0.00221
4256 66.82500 440.84866 486.00000 0.00206
4257 66.84000 473.24500 506.00000 0.00198
4258 66.85500 510.09404 560.00000 0.00179
4259 66.87000 548.80195 584.00000 0.00171
4260 66.88500 585.88421 635.00000 0.00157
4261 66.90000 617.33479 690.00000 0.00145
4262 66.91500 639.23190 717.00000 0.00139
4263 66.93000 648.55725 685.00000 0.00146
4264 66.94500 644.03736 705.00000 0.00142
4265 66.96000 626.56468 661.00000 0.00151
4266 66.97500 598.87491 625.00000 0.00160
4267 66.99000 564.71974 589.00000 0.00170
4268 67.00500 528.03162 568.00000 0.00176
4269 67.02000 492.31035 507.00000 0.00197
4270 67.03500 460.22725 487.00000 0.00205
4271 67.05000 433.43120 445.00000 0.00225
4272 67.06500 412.56001 440.00000 0.00227
4273 67.08000 397.42276 398.00000 0.00251
4274 67.09500 387.27870 393.00000 0.00254
4275 67.11000 381.13127 408.00000 0.00245
4276 67.12500 377.97246 379.00000 0.00264
4277 67.14000 376.95567 381.00000 0.00262
4278 67.15500 377.48943 378.00000 0.00265
4279 67.17000 379.30409 376.00000 0.00266
4280 67.18500 382.47831 379.00000 0.00264
4281 67.20000 387.42777 365.00000 0.00274
4282 67.21500 394.84248 385.00000 0.00260
4283 67.23000 405.57445 390.00000 0.00256
4284 67.24500 420.48659 385.00000 0.00260
4285 67.26000 440.26473 410.00000 0.00244
4286 67.27500 465.19012 435.00000 0.00230
4287 67.29000 494.88729 466.00000 0.00215
4288 67.30500 528.10668 516.00000 0.00194
4289 67.32000 562.63246 543.00000 0.00184
4290 67.33500 595.37990 573.00000 0.00175
4291 67.35000 622.70373 625.00000 0.00160
4292 67.36500 640.93350 661.00000 0.00151
4293 67.38000 647.14172 642.00000 0.00156
4294 67.39500 639.99390 647.00000 0.00155
4295 67.41000 620.24838 664.00000 0.00151
4296 67.42500 590.52345 602.00000 0.00166
4297 67.44000 554.50191 537.00000 0.00186
4298 67.45500 516.05703 506.00000 0.00198
4299 67.47000 478.61499 426.00000 0.00235
4300 67.48500 444.75815 446.00000 0.00224
4301 67.50000 416.05457 403.00000 0.00248
4302 67.51500 393.08943 371.00000 0.00270
4303 67.53000 375.65426 376.00000 0.00266
4304 67.54500 363.02183 367.00000 0.00272
4305 67.56000 354.22784 362.00000 0.00276
4306 67.57500 348.29668 350.00000 0.00286
4307 67.59000 344.38195 366.00000 0.00273
4308 67.60500 341.82582 341.00000 0.00293
4309 67.62000 340.16082 362.00000 0.00276
4310 67.63500 339.07908 352.00000 0.00284
4311 67.65000 338.39072 346.00000 0.00289
4312 67.66500 337.98402 359.00000 0.00279
4313 67.68000 337.79471 348.00000 0.00287
4314 67.69500 337.78602 356.00000 0.00281
4315 67.71000 337.93855 330.00000 0.00303
4316 67.72500 338.24855 340.00000 0.00294
4317 67.74000 338.73378 346.00000 0.00289
4318 67.75500 339.44783 367.00000 0.00272
4319 67.77000 340.50498 364.00000 0.00275
4320 67.78500 342.11840 354.00000 0.00282
4321 67.80000 344.65301 364.00000 0.00275
4322 67.81500 348.68960 373.00000 0.00268
4323 67.83000 355.08965 376.00000 0.00266
4324 67.84500 365.04061 403.00000 0.00248
4325 67.86000 380.05026 400.00000 0.00250
4326 67.87500 401.85810 399.00000 0.00251
4327 67.89000 432.19626 465.00000 0.00215
4328 67.90500 472.44418 482.00000 0.00207
4329 67.92000 523.15844 508.00000 0.00197
4330 67.93500 583.58746 595.00000 0.00168
4331 67.95000 651.30422 627.00000 0.00159
4332 67.96500 722.06101 721.00000 0.00139
4333 67.98000 790.01985 760.00000 0.00132
4334 67.99500 848.34916 860.00000 0.00116
4335 68.01000 890.25012 927.00000 0.00108
4336 68.02500 910.41765 932.00000 0.00107
4337 68.04000 906.65413 926.00000 0.00108
4338 68.05500 880.83440 859.00000 0.00116
4339 68.07000 838.48783 804.00000 0.00124
4340 68.08500 787.25203 784.00000 0.00128
4341 68.10000 735.09864 738.00000 0.00136
4342 68.11500 688.89038 687.00000 0.00146
4343 68.13000 653.37847 662.00000 0.00151
4344 68.14500 630.65839 665.00000 0.00150
4345 68.16000 620.11853 654.00000 0.00153
4346 68.17500 618.83991 691.00000 0.00145
4347 68.19000 622.33982 696.00000 0.00144
4348 68.20500 625.56295 716.00000 0.00140
4349 68.22000 623.97408 690.00000 0.00145
4350 68.23500 614.58917 728.00000 0.00137
4351 68.25000 596.57175 679.00000 0.00147
4352 68.26500 571.09269 634.00000 0.00158
4353 68.28000 540.62216 597.00000 0.00168
4354 68.29500 508.11606 545.00000 0.00183
4355 68.31000 476.38162 504.00000 0.00198
4356 68.32500 447.66611 475.00000 0.00211
4357 68.34000 423.45218 448.00000 0.00223
4358 68.35500 404.44510 440.00000 0.00227
4359 68.37000 390.72089 417.00000 0.00240
4360 68.38500 381.97651 412.00000 0.00243
4361 68.40000 377.80655 406.00000 0.00246
4362 68.41500 377.93532 414.00000 0.00242
4363 68.43000 382.35645 406.00000 0.00246
4364 68.44500 391.36337 425.00000 0.00235
4365 68.46000 405.47221 422.00000 0.00237
4366 68.47500 425.24430 448.00000 0.00223
4367 68.49000 451.01693 446.00000 0.00224
4368 68.50500 482.57957 451.00000 0.00222
4369 68.52000 518.87552 462.00000 0.00216
4370 68.53500 557.82846 453.00000 0.00221
4371 68.55000 596.36874 467.00000 0.00214
4372 68.56500 630.68765 501.00000 0.00200
4373 68.58000 656.72175 480.00000 0.00208
4374 68.59500 670.87087 502.00000 0.00199
4375 68.61000 670.87889 498.00000 0.00201
4376 68.62500 656.56003 487.00000 0.00205
4377 68.64000 629.90965 472.00000 0.00212
4378 68.65500 594.49757 470.00000 0.00213
4379 68.67000 554.55396 440.00000 0.00227
4380 68.68500 514.16305 457.00000 0.00219
4381 68.70000 476.70378 443.00000 0.00226
4382 68.71500 444.53275 446.00000 0.00224
4383 68.73000 418.87759 436.00000 0.00229
4384 68.74500 399.92221 421.00000 0.00238
4385 68.76000 387.02961 398.00000 0.00251
4386 68.77500 379.03040 408.00000 0.00245
4387 68.79000 374.51027 407.00000 0.00246
4388 68.80500 372.05297 410.00000 0.00244
4389 68.82000 370.42580 403.00000 0.00248
4390 68.83500 368.71224 420.00000 0.00238
4391 68.85000 366.38410 393.00000 0.00254
4392 68.86500 363.28909 393.00000 0.00254
4393 68.88000 359.55625 368.00000 0.00272
4394 68.89500 355.46899 378.00000 0.00265
4395 68.91000 351.35498 386.00000 0.00259
4396 68.92500 347.50924 394.00000 0.00254
4397 68.94000 344.14807 365.00000 0.00274
4398 68.95500 341.39030 375.00000 0.00267
4399 68.97000 339.26180 373.00000 0.00268
4400 68.98500 337.71670 378.00000 0.00265
4401 69.00000 336.66731 368.00000 0.00272
4402 69.01500 336.01601 364.00000 0.00275
4403 69.03000 335.68478 367.00000 0.00272
4404 69.04500 335.64065 399.00000 0.00251
4405 69.06000 335.91747 379.00000 0.00264
4406 69.07500 336.63656 363.00000 0.00275
4407 69.09000 338.02976 384.00000 0.00260
4408 69.10500 340.46484 393.00000 0.00254
4409 69.12000 344.46706 374.00000 0.00267
4410 69.13500 350.72352 393.00000 0.00254
4411 69.15000 360.05228 386.00000 0.00259
4412 69.16500 373.31889 411.00000 0.00243
4413 69.18000 391.28589 416.00000 0.00240
4414 69.19500 414.40642 430.00000 0.00233
4415 69.21000 442.58784 448.00000 0.00223
4416 69.22500 474.98118 445.00000 0.00225
4417 69.24000 509.86074 481.00000 0.00208
4418 69.25500 544.64784 483.00000 0.00207
4419 69.27000 576.10721 484.00000 0.00207
4420 69.28500 600.73131 531.00000 0.00188
4421 69.30000 615.33052 514.00000 0.00195
4422 69.31500 617.78715 530.00000 0.00189
4423 69.33000 607.71952 508.00000 0.00197
4424 69.34500 586.62677 513.00000 0.00195
4425 69.36000 557.41711 469.00000 0.00213
4426 69.37500 523.63657 475.00000 0.00211
4427 69.39000 488.78428 468.00000 0.00214
4428 69.40500 455.83490 432.00000 0.00231
4429 69.42000 426.95672 419.00000 0.00239
4430 69.43500 403.40771 420.00000 0.00238
4431 69.45000 385.58873 404.00000 0.00248
4432 69.46500 373.21048 381.00000 0.00262
4433 69.48000 365.51480 380.00000 0.00263
4434 69.49500 361.49471 375.00000 0.00267
4435 69.51000 360.07642 376.00000 0.00266
4436 69.52500 360.24913 371.00000 0.00270
4437 69.54000 361.14808 357.00000 0.00280
4438 69.55500 362.10782 356.00000 0.00281
4439 69.57000 362.70009 390.00000 0.00256
4440 69.58500 362.74948 338.00000 0.00296
4441 69.60000 362.30030 364.00000 0.00275
4442 69.61500 361.53500 362.00000 0.00276
4443 69.63000 360.67861 366.00000 0.00273
4444 69.64500 359.92687 366.00000 0.00273
4445 69.66000 359.41098 360.00000 0.00278
4446 69.67500 359.19948 362.00000 0.00276
4447 69.69000 359.33666 391.00000 0.00256
4448 69.70500 359.91610 372.00000 0.00269
4449 69.72000 361.18149 374.00000 0.00267
4450 69.73500 363.63109 397.00000 0.00252
4451 69.75000 368.09287 401.00000 0.00249
4452 69.76500 375.74695 412.00000 0.00243
4453 69.78000 388.08197 419.00000 0.00239
4454 69.79500 406.76008 426.00000 0.00235
4455 69.81000 433.38356 460.00000 0.00217
4456 69.82500 469.15527 500.00000 0.00200
4457 69.84000 514.46819 504.00000 0.00198
4458 69.85500 568.49642 566.00000 0.00177
4459 69.87000 628.89266 610.00000 0.00164
4460 69.88500 691.70221 697.00000 0.00143
4461 69.90000 751.57122 699.00000 0.00143
4462 69.91500 802.28194 753.00000 0.00133
4463 69.93000 837.63987 784.00000 0.00128
4464 69.94500 852.71139 809.00000 0.00124
4465 69.96000 845.16286 768.00000 0.00130
4466 69.97500 816.03529 770.00000 0.00130
4467 69.99000 769.39154 714.00000 0.00140
4468 70.00500 711.09571 670.00000 0.00149
4469 70.02000 647.47206 602.00000 0.00166
4470 70.03500 584.27752 544.00000 0.00184
4471 70.05000 526.04278 515.00000 0.00194
4472 70.06500 475.74401 504.00000 0.00198
4473 70.08000 434.78280 441.00000 0.00227
4474 70.09500 403.21810 424.00000 0.00236
4475 70.11000 380.14900 403.00000 0.00248
4476 70.12500 364.13657 382.00000 0.00262
4477 70.14000 353.57186 378.00000 0.00265
4478 70.15500 346.93819 386.00000 0.00259
4479 70.17000 342.95786 381.00000 0.00262
4480 70.18500 340.64318 370.00000 0.00270
4481 70.20000 339.28558 369.00000 0.00271
4482 70.21500 338.41555 351.00000 0.00285
4483 70.23000 337.75525 342.00000 0.00292
4484 70.24500 337.17148 366.00000 0.00273
4485 70.26000 336.62991 337.00000 0.00297
4486 70.27500 336.15456 356.00000 0.00281
4487 70.29000 335.79885 325.00000 0.00308
4488 70.30500 335.62984 345.00000 0.00290
4489 70.32000 335.72244 342.00000 0.00292
4490 70.33500 336.16227 334.00000 0.00299
4491 70.35000 337.05517 336.00000 0.00298
4492 70.36500 338.50999 332.00000 0.00301
4493 70.38000 340.64362 309.00000 0.00324
4494 70.39500 343.55363 316.00000 0.00316
4495 70.41000 347.28240 341.00000 0.00293
4496 70.42500 351.77584 339.00000 0.00295
4497 70.44000 356.84960 351.00000 0.00285
4498 70.45500 362.17504 345.00000 0.00290
4499 70.47000 367.29289 324.00000 0.00309
4500 70.48500 371.65772 349.00000 0.00287
4501 70.50000 374.71555 340.00000 0.00294
4502 70.51500 376.01477 362.00000 0.00276
4503 70.53000 375.32905 351.00000 0.00285
4504 70.54500 372.73288 361.00000 0.00277
4505 70.56000 368.57797 341.00000 0.00293
4506 70.57500 363.38903 346.00000 0.00289
4507 70.59000 357.74500 319.00000 0.00313
4508 70.60500 352.18608 357.00000 0.00280
4509 70.62000 347.15057 340.00000 0.00294
4510 70.63500 342.93862 332.00000 0.00301
4511 70.65000 339.70129 318.00000 0.00314
4512 70.66500 337.45126 311.00000 0.00322
4513 70.68000 336.09005 314.00000 0.00318
4514 70.69500 335.44339 328.00000 0.00305
4515 70.71000 335.29729 323.00000 0.00310
4516 70.72500 335.43014 325.00000 0.00308
4517 70.74000 335.63965 311.00000 0.00322
4518 70.75500 335.76607 337.00000 0.00297
4519 70.77000 335.71095 330.00000 0.00303
4520 70.78500 335.44499 331.00000 0.00302
4521 70.80000 334.99815 335.00000 0.00299
4522 70.81500 334.43554 321.00000 0.00312
4523 70.83000 333.83215 333.00000 0.00300
4524 70.84500 333.25496 329.00000 0.00304
4525 70.86000 332.75463 325.00000 0.00308
4526 70.87500 332.36690 351.00000 0.00285
4527 70.89000 332.12406 347.00000 0.00288
4528 70.90500 332.07571 354.00000 0.00282
4529 70.92000 332.31481 337.00000 0.00297
4530 70.93500 333.00237 342.00000 0.00292
4531 70.95000 334.38515 345.00000 0.00290
4532 70.96500 336.80239 356.00000 0.00281
4533 70.98000 340.67589 345.00000 0.00290
4534 70.99500 346.47593 361.00000 0.00277
4535 71.01000 354.65688 359.00000 0.00279
4536 71.02500 365.56253 378.00000 0.00265
4537 71.04000 379.31059 391.00000 0.00256
4538 71.05500 395.67756 398.00000 0.00251
4539 71.07000 414.01326 418.00000 0.00239
4540 71.08500 433.21526 439.00000 0.00228
4541 71.10000 451.78488 447.00000 0.00224
4542 71.11500 467.97510 453.00000 0.00221
4543 71.13000 480.03788 445.00000 0.00225
4544 71.14500 486.57547 468.00000 0.00214
4545 71.16000 486.94328 479.00000 0.00209
4546 71.17500 481.53944 468.00000 0.00214
4547 71.19000 471.80486 453.00000 0.00221
4548 71.20500 459.94898 471.00000 0.00212
4549 71.22000 448.58073 457.00000 0.00219
4550 71.23500 440.37256 487.00000 0.00205
4551 71.25000 437.77064 467.00000 0.00214
4552 71.26500 442.72997 461.00000 0.00217
4553 71.28000 456.46881 483.00000 0.00207
4554 71.29500 479.25492 525.00000 0.00190
4555 71.31000 510.24902 531.00000 0.00188
4556 71.32500 547.44004 603.00000 0.00166
4557 71.34000 587.70992 635.00000 0.00157
4558 71.35500 627.05858 710.00000 0.00141
4559 71.37000 661.00517 723.00000 0.00138
4560 71.38500 685.17552 771.00000 0.00130
4561 71.40000 696.06948 792.00000 0.00126
4562 71.41500 691.88136 773.00000 0.00129
4563 71.43000 673.01471 751.00000 0.00133
4564 71.44500 641.92794 734.00000 0.00136
4565 71.46000 602.39168 681.00000 0.00147
4566 71.47500 558.60296 620.00000 0.00161
4567 71.49000 514.47694 546.00000 0.00183
4568 71.50500 473.18014 513.00000 0.00195
4569 71.52000 436.88292 464.00000 0.00216
4570 71.53500 406.71276 463.00000 0.00216
4571 71.55000 382.88194 410.00000 0.00244
4572 71.56500 364.92771 402.00000 0.00249
4573 71.58000 351.98048 386.00000 0.00259
4574 71.59500 343.02780 360.00000 0.00278
4575 71.61000 337.09648 348.00000 0.00287
4576 71.62500 333.35891 377.00000 0.00265
4577 71.64000 331.17063 350.00000 0.00286
4578 71.65500 330.05957 361.00000 0.00277
4579 71.67000 329.68912 361.00000 0.00277
4580 71.68500 329.81422 347.00000 0.00288
4581 71.70000 330.24356 339.00000 0.00295
4582 71.71500 330.81458 340.00000 0.00294
4583 71.73000 331.38349 336.00000 0.00298
4584 71.74500 331.82964 336.00000 0.00298
4585 71.76000 332.07320 346.00000 0.00289
4586 71.77500 332.10258 330.00000 0.00303
4587 71.79000 332.00105 328.00000 0.00305
4588 71.80500 331.96096 336.00000 0.00298
4589 71.82000 332.28416 347.00000 0.00288
4590 71.83500 333.37545 325.00000 0.00308
4591 71.85000 335.73073 332.00000 0.00301
4592 71.86500 339.91236 318.00000 0.00314
4593 71.88000 346.50132 328.00000 0.00305
4594 71.89500 356.01947 345.00000 0.00290
4595 71.91000 368.82233 340.00000 0.00294
4596 71.92500 384.97401 350.00000 0.00286
4597 71.94000 404.12768 369.00000 0.00271
4598 71.95500 425.44283 396.00000 0.00253
4599 71.97000 447.56914 412.00000 0.00243
4600 71.98500 468.71904 421.00000 0.00238
4601 72.00000 486.83741 455.00000 0.00220
4602 72.01500 499.87626 448.00000 0.00223
4603 72.03000 506.17366 431.00000 0.00232
4604 72.04500 504.86778 460.00000 0.00217
4605 72.06000 496.15523 446.00000 0.00224
4606 72.07500 481.21585 428.00000 0.00234
4607 72.09000 461.85809 416.00000 0.00240
4608 72.10500 440.10648 409.00000 0.00244
4609 72.12000 417.87810 390.00000 0.00256
4610 72.13500 396.76812 362.00000 0.00276
4611 72.15000 377.92676 356.00000 0.00281
4612 72.16500 362.02044 359.00000 0.00279
4613 72.18000 349.27130 352.00000 0.00284
4614 72.19500 339.55371 341.00000 0.00293
4615 72.21000 332.51491 340.00000 0.00294
4616 72.22500 327.68936 321.00000 0.00312
4617 72.24000 324.58741 323.00000 0.00310
4618 72.25500 322.75203 337.00000 0.00297
4619 72.27000 321.78668 315.00000 0.00317
4620 72.28500 321.36302 340.00000 0.00294
4621 72.30000 321.21661 335.00000 0.00299
4622 72.31500 321.13865 325.00000 0.00308
4623 72.33000 320.96998 337.00000 0.00297
4624 72.34500 320.60169 336.00000 0.00298
4625 72.36000 319.98066 320.00000 0.00312
4626 72.37500 319.11186 313.00000 0.00319
4627 72.39000 318.04955 323.00000 0.00310
4628 72.40500 316.88007 338.00000 0.00296
4629 72.42000 315.70458 308.00000 0.00325
4630 72.43500 314.62707 339.00000 0.00295
4631 72.45000 313.74724 320.00000 0.00312
4632 72.46500 313.15560 307.00000 0.00326
4633 72.48000 312.93441 311.00000 0.00322
4634 72.49500 313.15166 327.00000 0.00306
4635 72.51000 313.85517 309.00000 0.00324
4636 72.52500 315.06648 306.00000 0.00327
4637 72.54000 316.76797 334.00000 0.00299
4638 72.55500 318.89098 347.00000 0.00288
4639 72.57000 321.30763 337.00000 0.00297
4640 72.58500 323.83048 339.00000 0.00295
