#------------------------------------------------------------------------------
#$Date: 2020-05-05 16:29:02 +0300 (Tue, 05 May 2020) $
#$Revision: 251660 $
#$URL: file:///home/coder/svn-repositories/cod/cif/7/70/38/7703818.cif $
#------------------------------------------------------------------------------
#
# This file is available in the Crystallography Open Database (COD),
# http://www.crystallography.net/
#
# All data on this site have been placed in the public domain by the
# contributors.
#
data_7703818
loop_
_publ_author_name
'Rabe, Timo'
'Pewe, Harm'
'Reinsch, Helge'
'Willhammar, Tom'
'Svensson Grape, Erik'
'Stock, Norbert'
_publ_section_title
;
 Influence of the substitution pattern of four naphthalenedicarboxylic
 acids on the structures and properties of group 13 metal-organic
 frameworks and coordination polymers.
;
_journal_issue                   15
_journal_name_full
'Dalton transactions (Cambridge, England : 2003)'
_journal_page_first              4861
_journal_page_last               4868
_journal_paper_doi               10.1039/d0dt00387e
_journal_volume                  49
_journal_year                    2020
_chemical_formula_moiety         'C12 Al2 O8, 0.427 (O2)'
_chemical_formula_sum            'C12 Al2 O8.85'
_chemical_formula_weight         339.74
_space_group_IT_number           13
_space_group_name_Hall           '-P 2yc'
_space_group_name_H-M_alt        'P 1 2/c 1'
_symmetry_cell_setting           monoclinic
_symmetry_space_group_name_Hall  '-P 2yc'
_symmetry_space_group_name_H-M   'P 1 2/c 1'
_audit_update_record
;
2020-01-31 deposited with the CCDC.	2020-03-18 downloaded from the CCDC.
;
_cell_angle_alpha                90
_cell_angle_beta                 135.335(8)
_cell_angle_gamma                90
_cell_formula_units_Z            2
_cell_length_a                   7.5927(18)
_cell_length_b                   12.860(2)
_cell_length_c                   9.7151(14)
_cell_measurement_temperature    298
_cell_volume                     666.8(2)
_diffrn_ambient_temperature      298
_diffrn_measurement_device_type  'Stoe Stadi P Combi'
_diffrn_radiation_probe          x-ray
_diffrn_radiation_type           'Cu K\a'
_diffrn_radiation_wavelength     1.5406
_exptl_crystal_density_diffrn    1.692
_exptl_crystal_description       powder
_pd_char_colour                  white
_pd_proc_ls_prof_R_factor        0.0409
_pd_proc_ls_prof_wR_expected     0.0232
_pd_proc_ls_prof_wR_factor       0.0535
_refine_ls_goodness_of_fit_all   2.31117
_refine_ls_R_I_factor            0.0113
_cod_data_source_file            d0dt00387e2.cif
_cod_data_source_block           Al23
_cod_depositor_comments
'Adding full bibliography for 7703815--7703820.cif.'
_cod_original_sg_symbol_H-M      P2/C
_cod_original_formula_sum        'C12 Al2 O8.85 '
_cod_database_code               7703818
loop_
_symmetry_equiv_pos_as_xyz
'x, y, z '
'-x, y, -z+1/2 '
'x, -y, z+1/2 '
'-x, -y, -z '
loop_
_atom_site_label
_atom_site_type_symbol
_atom_site_symmetry_multiplicity
_atom_site_fract_x
_atom_site_fract_y
_atom_site_fract_z
_atom_site_occupancy
_atom_site_B_iso_or_equiv
Al1 Al 2 0.5 1 0 1 1.3(2)
Al2 Al 2 0 1.0772(11) -0.25 1 1.3(2)
O1 O 4 0.123(3) 1.1825(13) -0.304(2) 1 1.0(3)
O2 O 4 0.188(2) 0.9728(9) -0.248(2) 1 1.0(3)
O3 O 4 0.705(2) 0.9349(13) -0.0189(16) 1 1.0(3)
O4 O 4 0.489(3) 0.8693(9) 0.0922(14) 1 1.0(3)
C1 C 4 0.653(5) 0.7987(17) 0.216(3) 1 2.4(4)
C2 C 4 0.412(3) 1.3054(19) -0.2453(9) 1 2.4(4)
C3 C 4 0.321(3) 1.3985(16) -0.2453(9) 1 2.4(4)
C4 C 4 0.413(4) 1.493(2) -0.2453(9) 1 2.4(4)
C5 C 4 0.320(3) 1.5877(17) -0.2453(9) 1 2.4(4)
C6 C 4 0.413(3) 1.6808(18) -0.2453(9) 1 2.4(4)
Ow1 O 4 0.953(10) 0.214(3) 0.261(8) 0.427(12) 1.0(3)
loop_
_geom_angle_atom_site_label_1
_geom_angle_atom_site_label_2
_geom_angle_atom_site_label_3
_geom_angle
_geom_angle_site_symmetry_1
_geom_angle_site_symmetry_2
_geom_angle_site_symmetry_3
O2 Al1 O2 180.000 1_555 1_555 4_675
O3 Al1 O2 99.9(7) 1_555 1_555 1_555
O3 Al1 O2 80.1(7) 1_555 1_555 4_675
O3 Al1 O3 180.000 4_675 1_555 1_555
O3 Al1 O2 80.1(7) 4_675 1_555 1_555
O3 Al1 O2 99.9(7) 4_675 1_555 4_675
O4 Al1 O3 88.2(9) 4_675 1_555 4_675
O4 Al1 O3 91.8(9) 4_675 1_555 1_555
O4 Al1 O2 90.0(6) 4_675 1_555 1_555
O4 Al1 O2 90.0(6) 4_675 1_555 4_675
O4 Al1 O4 180.000 1_555 1_555 4_675
O4 Al1 O3 91.8(9) 1_555 1_555 4_675
O4 Al1 O3 88.2(9) 1_555 1_555 1_555
O4 Al1 O2 90.0(6) 1_555 1_555 1_555
O4 Al1 O2 90.0(6) 1_555 1_555 4_675
Al2 Al1 O4 103.1(6) 1_555 1_555 1_555
Al2 Al1 O4 76.9(6) 1_555 1_555 4_675
Al2 Al1 O3 40.6(3) 1_555 1_555 4_675
Al2 Al1 O3 139.4(3) 1_555 1_555 1_555
Al2 Al1 O2 42.4(6) 1_555 1_555 1_555
Al2 Al1 O2 137.6(6) 1_555 1_555 4_675
Al2 Al1 Al2 180.00000000(18) 3_675 1_555 1_555
Al2 Al1 O4 76.9(6) 3_675 1_555 1_555
Al2 Al1 O4 103.1(6) 3_675 1_555 4_675
Al2 Al1 O3 139.4(3) 3_675 1_555 4_675
Al2 Al1 O3 40.6(3) 3_675 1_555 1_555
Al2 Al1 O2 137.6(6) 3_675 1_555 1_555
Al2 Al1 O2 42.4(6) 3_675 1_555 4_675
C1 Al1 Al2 121.0(8) 4_675 1_555 3_675
C1 Al1 Al2 59.0(8) 4_675 1_555 1_555
C1 Al1 O4 162.1(9) 4_675 1_555 1_555
C1 Al1 O4 17.9(9) 4_675 1_555 4_675
C1 Al1 O3 75.4(10) 4_675 1_555 4_675
C1 Al1 O3 104.6(10) 4_675 1_555 1_555
C1 Al1 O2 75.6(6) 4_675 1_555 1_555
C1 Al1 O2 104.4(6) 4_675 1_555 4_675
C1 Al1 C1 180.0000000(5) 1_555 1_555 4_675
C1 Al1 Al2 59.0(8) 1_555 1_555 3_675
C1 Al1 Al2 121.0(8) 1_555 1_555 1_555
C1 Al1 O4 17.9(9) 1_555 1_555 1_555
C1 Al1 O4 162.1(9) 1_555 1_555 4_675
C1 Al1 O3 104.6(10) 1_555 1_555 4_675
C1 Al1 O3 75.4(10) 1_555 1_555 1_555
C1 Al1 O2 104.4(6) 1_555 1_555 1_555
C1 Al1 O2 75.6(6) 1_555 1_555 4_675
O3 Al2 O3 170.5(13) 3_474 1_555 4_675
O1 Al2 O3 90.5(7) 1_555 1_555 3_474
O1 Al2 O3 96.2(7) 1_555 1_555 4_675
O1 Al2 O1 90.0(14) 2_554 1_555 1_555
O1 Al2 O3 96.2(7) 2_554 1_555 3_474
O1 Al2 O3 90.5(7) 2_554 1_555 4_675
O2 Al2 O1 168.2(5) 1_555 1_555 2_554
O2 Al2 O1 89.8(8) 1_555 1_555 1_555
O2 Al2 O3 95.7(8) 1_555 1_555 3_474
O2 Al2 O3 77.7(7) 1_555 1_555 4_675
O2 Al2 O2 92.8(11) 2_554 1_555 1_555
O2 Al2 O1 89.8(8) 2_554 1_555 2_554
O2 Al2 O1 168.2(5) 2_554 1_555 1_555
O2 Al2 O3 77.7(7) 2_554 1_555 3_474
O2 Al2 O3 95.7(8) 2_554 1_555 4_675
Al1 Al2 O2 106.8(6) 1_555 1_555 2_554
Al1 Al2 O2 39.8(3) 1_555 1_555 1_555
Al1 Al2 O1 128.5(4) 1_555 1_555 2_554
Al1 Al2 O1 82.4(4) 1_555 1_555 1_555
Al1 Al2 O3 134.5(7) 1_555 1_555 3_474
Al1 Al2 O3 40.7(6) 1_555 1_555 4_675
Al1 Al2 Al1 139.4(5) 2_554 1_555 1_555
Al1 Al2 O2 39.8(3) 2_554 1_555 2_554
Al1 Al2 O2 106.8(6) 2_554 1_555 1_555
Al1 Al2 O1 82.4(4) 2_554 1_555 2_554
Al1 Al2 O1 128.5(4) 2_554 1_555 1_555
Al1 Al2 O3 40.7(6) 2_554 1_555 3_474
Al1 Al2 O3 134.5(7) 2_554 1_555 4_675
C1 Al2 Al1 62.9(4) 3_474 1_555 2_554
C1 Al2 Al1 147.1(5) 3_474 1_555 1_555
C1 Al2 O2 77.2(8) 3_474 1_555 2_554
C1 Al2 O2 169.3(8) 3_474 1_555 1_555
C1 Al2 O1 20.0(5) 3_474 1_555 2_554
C1 Al2 O1 99.2(11) 3_474 1_555 1_555
C1 Al2 O3 78.4(7) 3_474 1_555 3_474
C1 Al2 O3 107.0(8) 3_474 1_555 4_675
C1 Al2 C1 112.9(13) 4_675 1_555 3_474
C1 Al2 Al1 147.1(5) 4_675 1_555 2_554
C1 Al2 Al1 62.9(4) 4_675 1_555 1_555
C1 Al2 O2 169.3(8) 4_675 1_555 2_554
C1 Al2 O2 77.2(8) 4_675 1_555 1_555
C1 Al2 O1 99.2(11) 4_675 1_555 2_554
C1 Al2 O1 20.0(5) 4_675 1_555 1_555
C1 Al2 O3 107.0(8) 4_675 1_555 3_474
C1 Al2 O3 78.4(7) 4_675 1_555 4_675
O4 Al2 C1 131.2(8) 3_474 1_555 4_675
O4 Al2 C1 25.0(5) 3_474 1_555 3_474
O4 Al2 Al1 37.9(2) 3_474 1_555 2_554
O4 Al2 Al1 160.9(4) 3_474 1_555 1_555
O4 Al2 O2 59.5(5) 3_474 1_555 2_554
O4 Al2 O2 144.7(6) 3_474 1_555 1_555
O4 Al2 O1 44.8(5) 3_474 1_555 2_554
O4 Al2 O1 113.1(7) 3_474 1_555 1_555
O4 Al2 O3 59.4(7) 3_474 1_555 3_474
O4 Al2 O3 123.1(7) 3_474 1_555 4_675
O4 Al2 O4 154.1(7) 4_675 1_555 3_474
O4 Al2 C1 25.0(5) 4_675 1_555 4_675
O4 Al2 C1 131.2(8) 4_675 1_555 3_474
O4 Al2 Al1 160.9(4) 4_675 1_555 2_554
O4 Al2 Al1 37.9(2) 4_675 1_555 1_555
O4 Al2 O2 144.7(6) 4_675 1_555 2_554
O4 Al2 O2 59.5(5) 4_675 1_555 1_555
O4 Al2 O1 113.1(7) 4_675 1_555 2_554
O4 Al2 O1 44.8(5) 4_675 1_555 1_555
O4 Al2 O3 123.1(7) 4_675 1_555 3_474
O4 Al2 O3 59.4(7) 4_675 1_555 4_675
Al2 O1 C1 129.1(15) 1_555 1_555 4_675
O4 O1 Al2 96.9(8) 4_675 1_555 1_555
O4 O1 C1 32.7(12) 4_675 1_555 4_675
C2 O1 O4 65.5(8) 1_555 1_555 4_675
C2 O1 Al2 158.9(6) 1_555 1_555 1_555
C2 O1 C1 32.9(12) 1_555 1_555 4_675
O3 O1 C2 156.6(9) 3_474 1_555 1_555
O3 O1 O4 128.1(8) 3_474 1_555 4_675
O3 O1 Al2 44.2(5) 3_474 1_555 1_555
O3 O1 C1 154.4(19) 3_474 1_555 4_675
O1 O1 O3 63.0(6) 2_554 1_555 3_474
O1 O1 C2 131.8(8) 2_554 1_555 1_555
O1 O1 O4 118.4(11) 2_554 1_555 4_675
O1 O1 Al2 45.0(7) 2_554 1_555 1_555
O1 O1 C1 134(2) 2_554 1_555 4_675
O2 O1 O1 90.0(7) 1_555 1_555 2_554
O2 O1 O3 63.1(5) 1_555 1_555 3_474
O2 O1 C2 126.4(10) 1_555 1_555 1_555
O2 O1 O4 65.0(6) 1_555 1_555 4_675
O2 O1 Al2 45.6(7) 1_555 1_555 1_555
O2 O1 C1 95.1(13) 1_555 1_555 4_675
O3 O1 O2 51.3(6) 4_675 1_555 1_555
O3 O1 O1 58.3(7) 4_675 1_555 2_554
O3 O1 O3 85.5(7) 4_675 1_555 3_474
O3 O1 C2 117.4(5) 4_675 1_555 1_555
O3 O1 O4 62.7(8) 4_675 1_555 4_675
O3 O1 Al2 41.5(4) 4_675 1_555 1_555
O3 O1 C1 90.9(16) 4_675 1_555 4_675
C3 O1 O3 120.5(6) 1_555 1_555 4_675
C3 O1 O2 151.5(8) 1_555 1_555 1_555
C3 O1 O1 108.4(6) 1_555 1_555 2_554
C3 O1 O3 144.7(7) 1_555 1_555 3_474
C3 O1 C2 26.7(7) 1_555 1_555 1_555
C3 O1 O4 86.8(7) 1_555 1_555 4_675
C3 O1 Al2 151.0(12) 1_555 1_555 1_555
C3 O1 C1 56.4(12) 1_555 1_555 4_675
Al2 O2 Al1 97.8(7) 1_555 1_555 1_555
O3 O2 Al2 49.9(5) 4_675 1_555 1_555
O3 O2 Al1 50.7(5) 4_675 1_555 1_555
Ow1 O2 O3 109(2) 4_665 1_555 4_675
Ow1 O2 Al2 111(2) 4_665 1_555 1_555
Ow1 O2 Al1 110.0(11) 4_665 1_555 1_555
O4 O2 Ow1 155.7(10) 4_675 1_555 4_665
O4 O2 O3 62.9(7) 4_675 1_555 4_675
O4 O2 Al2 81.5(7) 4_675 1_555 1_555
O4 O2 Al1 46.3(3) 4_675 1_555 1_555
O4 O2 O4 92.6(5) 1_555 1_555 4_675
O4 O2 Ow1 64.0(12) 1_555 1_555 4_665
O4 O2 O3 65.1(6) 1_555 1_555 4_675
O4 O2 Al2 109.5(10) 1_555 1_555 1_555
O4 O2 Al1 46.3(4) 1_555 1_555 1_555
O1 O2 O4 127.8(7) 1_555 1_555 1_555
O1 O2 O4 47.5(5) 1_555 1_555 4_675
O1 O2 Ow1 153.5(18) 1_555 1_555 4_665
O1 O2 O3 66.5(7) 1_555 1_555 4_675
O1 O2 Al2 44.6(7) 1_555 1_555 1_555
O1 O2 Al1 87.5(5) 1_555 1_555 1_555
O2 O2 O1 87.6(6) 2_554 1_555 1_555
O2 O2 O4 89.3(10) 2_554 1_555 1_555
O2 O2 O4 121.3(8) 2_554 1_555 4_675
O2 O2 Ow1 68(2) 2_554 1_555 4_665
O2 O2 O3 65.2(8) 2_554 1_555 4_675
O2 O2 Al2 43.6(6) 2_554 1_555 1_555
O2 O2 Al1 111.5(12) 2_554 1_555 1_555
O3 O2 O2 50.3(5) 3_474 1_555 2_554
O3 O2 O1 57.9(5) 3_474 1_555 1_555
O3 O2 O4 139.4(11) 3_474 1_555 1_555
O3 O2 O4 105.5(6) 3_474 1_555 4_675
O3 O2 Ow1 97.2(13) 3_474 1_555 4_665
O3 O2 O3 91.0(7) 3_474 1_555 4_675
O3 O2 Al2 41.3(4) 3_474 1_555 1_555
O3 O2 Al1 138.0(8) 3_474 1_555 1_555
O3 O2 O3 161.1(9) 1_555 1_555 3_474
O3 O2 O2 145.7(10) 1_555 1_555 2_554
O3 O2 O1 106.1(7) 1_555 1_555 1_555
O3 O2 O4 57.3(7) 1_555 1_555 1_555
O3 O2 O4 59.3(6) 1_555 1_555 4_675
O3 O2 Ow1 99.9(15) 1_555 1_555 4_665
O3 O2 O3 91.2(6) 1_555 1_555 4_675
O3 O2 Al2 135.7(6) 1_555 1_555 1_555
O3 O2 Al1 40.6(5) 1_555 1_555 1_555
O3 O2 O3 65.9(6) 2_654 1_555 1_555
O3 O2 O3 103.7(7) 2_654 1_555 3_474
O3 O2 O2 144.9(7) 2_654 1_555 2_554
O3 O2 O1 96.9(9) 2_654 1_555 1_555
O3 O2 O4 114.0(8) 2_654 1_555 1_555
O3 O2 O4 85.2(8) 2_654 1_555 4_675
O3 O2 Ow1 98(2) 2_654 1_555 4_665
O3 O2 O3 147.6(8) 2_654 1_555 4_675
O3 O2 Al2 134.9(8) 2_654 1_555 1_555
O3 O2 Al1 103.5(8) 2_654 1_555 1_555
Ow1 O2 O3 112.4(17) 3_464 1_555 2_654
Ow1 O2 O3 110.7(11) 3_464 1_555 1_555
Ow1 O2 O3 87.7(11) 3_464 1_555 3_474
Ow1 O2 O2 52.5(15) 3_464 1_555 2_554
Ow1 O2 O1 139.7(16) 3_464 1_555 1_555
Ow1 O2 O4 64.8(10) 3_464 1_555 1_555
Ow1 O2 O4 155.3(14) 3_464 1_555 4_675
Ow1 O2 Ow1 16(4) 3_464 1_555 4_665
Ow1 O2 O3 96.7(18) 3_464 1_555 4_675
Ow1 O2 Al2 96.0(17) 3_464 1_555 1_555
Ow1 O2 Al1 110.4(12) 3_464 1_555 1_555
C1 O2 Ow1 160(2) 4_675 1_555 3_464
C1 O2 O3 86.1(10) 4_675 1_555 2_654
C1 O2 O3 82.1(8) 4_675 1_555 1_555
C1 O2 O3 81.4(7) 4_675 1_555 3_474
C1 O2 O2 108.6(9) 4_675 1_555 2_554
C1 O2 O1 24.0(7) 4_675 1_555 1_555
C1 O2 O4 114.7(6) 4_675 1_555 1_555
C1 O2 O4 24.6(5) 4_675 1_555 4_675
C1 O2 Ow1 176(2) 4_675 1_555 4_665
C1 O2 O3 67.4(9) 4_675 1_555 4_675
C1 O2 Al2 65.1(9) 4_675 1_555 1_555
C1 O2 Al1 69.2(5) 4_675 1_555 1_555
Al1 O3 Al2 98.7(8) 1_555 1_555 3_675
O2 O3 Al1 49.2(5) 4_675 1_555 1_555
O2 O3 Al2 52.4(5) 4_675 1_555 3_675
O4 O3 O2 63.5(7) 1_555 1_555 4_675
O4 O3 Al1 46.6(5) 1_555 1_555 1_555
O4 O3 Al2 83.1(7) 1_555 1_555 3_675
O1 O3 O4 103.5(8) 3_675 1_555 1_555
O1 O3 O2 97.6(6) 3_675 1_555 4_675
O1 O3 Al1 140.3(9) 3_675 1_555 1_555
O1 O3 Al2 45.2(6) 3_675 1_555 3_675
O4 O3 O1 146.4(7) 4_675 1_555 3_675
O4 O3 O4 91.4(7) 4_675 1_555 1_555
O4 O3 O2 62.2(6) 4_675 1_555 4_675
O4 O3 Al1 44.8(6) 4_675 1_555 1_555
O4 O3 Al2 109.0(8) 4_675 1_555 3_675
O1 O3 O4 121.2(9) 4_675 1_555 4_675
O1 O3 O1 58.7(10) 4_675 1_555 3_675
O1 O3 O4 46.6(6) 4_675 1_555 1_555
O1 O3 O2 62.2(6) 4_675 1_555 4_675
O1 O3 Al1 83.8(8) 4_675 1_555 1_555
O1 O3 Al2 42.4(6) 4_675 1_555 3_675
O2 O3 O1 85.4(5) 3_675 1_555 4_675
O2 O3 O4 87.6(6) 3_675 1_555 4_675
O2 O3 O1 58.9(5) 3_675 1_555 3_675
O2 O3 O4 121.2(7) 3_675 1_555 1_555
O2 O3 O2 64.5(8) 3_675 1_555 4_675
O2 O3 Al1 109.5(7) 3_675 1_555 1_555
O2 O3 Al2 43.1(5) 3_675 1_555 3_675
O2 O3 O2 143.5(7) 1_555 1_555 3_675
O2 O3 O1 104.5(8) 1_555 1_555 4_675
O2 O3 O4 57.0(5) 1_555 1_555 4_675
O2 O3 O1 154.9(8) 1_555 1_555 3_675
O2 O3 O4 57.9(6) 1_555 1_555 1_555
O2 O3 O2 88.8(6) 1_555 1_555 4_675
O2 O3 Al1 39.6(4) 1_555 1_555 1_555
O2 O3 Al2 135.6(10) 1_555 1_555 3_675
O2 O3 O2 110.6(6) 2_654 1_555 1_555
O2 O3 O2 76.3(7) 2_654 1_555 3_675
O2 O3 O1 141.2(8) 2_654 1_555 4_675
O2 O3 O4 92.3(7) 2_654 1_555 4_675
O2 O3 O1 82.6(8) 2_654 1_555 3_675
O2 O3 O4 162.2(5) 2_654 1_555 1_555
O2 O3 O2 132.9(7) 2_654 1_555 4_675
O2 O3 Al1 134.4(7) 2_654 1_555 1_555
O2 O3 Al2 112.0(7) 2_654 1_555 3_675
C1 O3 O2 154.9(9) 1_555 1_555 2_654
C1 O3 O2 81.2(8) 1_555 1_555 1_555
C1 O3 O2 107.9(7) 1_555 1_555 3_675
C1 O3 O1 24.1(6) 1_555 1_555 4_675
C1 O3 O4 112.5(10) 1_555 1_555 4_675
C1 O3 O1 79.0(9) 1_555 1_555 3_675
C1 O3 O4 24.5(7) 1_555 1_555 1_555
C1 O3 O2 67.1(8) 1_555 1_555 4_675
C1 O3 Al1 68.7(9) 1_555 1_555 1_555
C1 O3 Al2 65.3(7) 1_555 1_555 3_675
O3 O3 C1 122.1(7) 2_654 1_555 1_555
O3 O3 O2 55.7(6) 2_654 1_555 2_654
O3 O3 O2 58.3(6) 2_654 1_555 1_555
O3 O3 O2 129.5(10) 2_654 1_555 3_675
O3 O3 O1 142.0(6) 2_654 1_555 4_675
O3 O3 O4 80.0(3) 2_654 1_555 4_675
O3 O3 O1 121.8(9) 2_654 1_555 3_675
O3 O3 O4 108.0(7) 2_654 1_555 1_555
O3 O3 O2 140.2(7) 2_654 1_555 4_675
O3 O3 Al1 95.3(5) 2_654 1_555 1_555
O3 O3 Al2 165.9(12) 2_654 1_555 3_675
Al1 O4 C1 135(2) 1_555 1_555 1_555
O1 O4 Al1 103.2(11) 4_675 1_555 1_555
O1 O4 C1 31.8(18) 4_675 1_555 1_555
C2 O4 O1 62.0(7) 4_675 1_555 4_675
C2 O4 Al1 164.6(13) 4_675 1_555 1_555
C2 O4 C1 30.3(17) 4_675 1_555 1_555
O3 O4 C2 121.0(10) 1_555 1_555 4_675
O3 O4 O1 70.7(10) 1_555 1_555 4_675
O3 O4 Al1 45.2(6) 1_555 1_555 1_555
O3 O4 C1 98(2) 1_555 1_555 1_555
O2 O4 O3 53.6(7) 4_675 1_555 1_555
O2 O4 C2 125.5(6) 4_675 1_555 4_675
O2 O4 O1 67.5(7) 4_675 1_555 4_675
O2 O4 Al1 43.7(4) 4_675 1_555 1_555
O2 O4 C1 96.7(14) 4_675 1_555 1_555
O2 O4 O2 87.4(5) 1_555 1_555 4_675
O2 O4 O3 64.8(6) 1_555 1_555 1_555
O2 O4 C2 144.4(6) 1_555 1_555 4_675
O2 O4 O1 135.4(14) 1_555 1_555 4_675
O2 O4 Al1 43.7(3) 1_555 1_555 1_555
O2 O4 C1 155(2) 1_555 1_555 1_555
O3 O4 O2 52.7(5) 4_675 1_555 1_555
O3 O4 O2 63.7(5) 4_675 1_555 4_675
O3 O4 O3 88.6(7) 4_675 1_555 1_555
O3 O4 C2 149.2(13) 4_675 1_555 4_675
O3 O4 O1 130.0(7) 4_675 1_555 4_675
O3 O4 Al1 43.4(5) 4_675 1_555 1_555
O3 O4 C1 149.8(14) 4_675 1_555 1_555
Ow1 O4 O3 94.4(10) 4_665 1_555 4_675
Ow1 O4 O2 56.5(11) 4_665 1_555 1_555
Ow1 O4 O2 143.3(15) 4_665 1_555 4_675
Ow1 O4 O3 100(2) 4_665 1_555 1_555
Ow1 O4 C2 88.8(10) 4_665 1_555 4_675
Ow1 O4 O1 133.0(15) 4_665 1_555 4_675
Ow1 O4 Al1 99.9(13) 4_665 1_555 1_555
Ow1 O4 C1 113.2(13) 4_665 1_555 1_555
C1 O4 Ow1 90(2) 2_655 1_555 4_665
C1 O4 O3 94.5(10) 2_655 1_555 4_675
C1 O4 O2 124.7(10) 2_655 1_555 1_555
C1 O4 O2 119.3(8) 2_655 1_555 4_675
C1 O4 O3 169.5(6) 2_655 1_555 1_555
C1 O4 C2 54.9(9) 2_655 1_555 4_675
C1 O4 O1 99.9(9) 2_655 1_555 4_675
C1 O4 Al1 137.0(11) 2_655 1_555 1_555
C1 O4 C1 75(3) 2_655 1_555 1_555
O4 O4 C1 25.8(6) 2_655 1_555 2_655
O4 O4 Ow1 114(2) 2_655 1_555 4_665
O4 O4 O3 83.8(8) 2_655 1_555 4_675
O4 O4 O2 130.5(11) 2_655 1_555 1_555
O4 O4 O2 93.5(6) 2_655 1_555 4_675
O4 O4 O3 145.7(6) 2_655 1_555 1_555
O4 O4 C2 67.1(6) 2_655 1_555 4_675
O4 O4 O1 88.9(7) 2_655 1_555 4_675
O4 O4 Al1 119.5(6) 2_655 1_555 1_555
O4 O4 C1 74(2) 2_655 1_555 1_555
C2 O4 O4 49.3(5) 3_575 1_555 2_655
C2 O4 C1 29.7(7) 3_575 1_555 2_655
C2 O4 Ow1 81.3(16) 3_575 1_555 4_665
C2 O4 O3 123.2(11) 3_575 1_555 4_675
C2 O4 O2 134.3(8) 3_575 1_555 1_555
C2 O4 O2 135.0(6) 3_575 1_555 4_675
C2 O4 O3 148.1(9) 3_575 1_555 1_555
C2 O4 C2 27.3(10) 3_575 1_555 4_675
C2 O4 O1 85.1(8) 3_575 1_555 4_675
C2 O4 Al1 166.6(12) 3_575 1_555 1_555
C2 O4 C1 54(2) 3_575 1_555 1_555
Al2 O4 C2 123.4(5) 3_675 1_555 3_575
Al2 O4 O4 111.4(5) 3_675 1_555 2_655
Al2 O4 C1 132.0(5) 3_675 1_555 2_655
Al2 O4 Ow1 133(2) 3_675 1_555 4_665
Al2 O4 O3 100.3(6) 3_675 1_555 4_675
Al2 O4 O2 99.9(8) 3_675 1_555 1_555
Al2 O4 O2 38.9(5) 3_675 1_555 4_675
Al2 O4 O3 37.5(4) 3_675 1_555 1_555
Al2 O4 C2 99.5(8) 3_675 1_555 4_675
Al2 O4 O1 38.3(7) 3_675 1_555 4_675
Al2 O4 Al1 65.2(7) 3_675 1_555 1_555
Al2 O4 C1 70(2) 3_675 1_555 1_555
Ow1 O4 Al2 150(2) 3_464 1_555 3_675
Ow1 O4 C2 71.7(14) 3_464 1_555 3_575
Ow1 O4 O4 98(2) 3_464 1_555 2_655
Ow1 O4 C1 75.0(19) 3_464 1_555 2_655
Ow1 O4 Ow1 16(4) 3_464 1_555 4_665
Ow1 O4 O3 88.8(10) 3_464 1_555 4_675
Ow1 O4 O2 63.1(12) 3_464 1_555 1_555
Ow1 O4 O2 148.8(9) 3_464 1_555 4_675
Ow1 O4 O3 115.1(19) 3_464 1_555 1_555
Ow1 O4 C2 85.7(10) 3_464 1_555 4_675
Ow1 O4 O1 141.2(11) 3_464 1_555 4_675
Ow1 O4 Al1 106.1(11) 3_464 1_555 1_555
Ow1 O4 C1 114.3(15) 3_464 1_555 1_555
O4 C1 O1 116(3) 1_555 1_555 4_675
C2 C1 O4 124(3) 4_675 1_555 1_555
C2 C1 O1 120.0(18) 4_675 1_555 4_675
C2 C1 C2 29.8(15) 3_575 1_555 4_675
C2 C1 O4 101(2) 3_575 1_555 1_555
C2 C1 O1 140.8(18) 3_575 1_555 4_675
C3 C1 C2 57.1(10) 4_675 1_555 3_575
C3 C1 C2 27.4(11) 4_675 1_555 4_675
C3 C1 O4 138.2(16) 4_675 1_555 1_555
C3 C1 O1 98.9(17) 4_675 1_555 4_675
C1 C1 C3 89.1(12) 2_655 1_555 4_675
C1 C1 C2 32.4(9) 2_655 1_555 3_575
C1 C1 C2 61.8(18) 2_655 1_555 4_675
C1 C1 O4 79(2) 2_655 1_555 1_555
C1 C1 O1 141(2) 2_655 1_555 4_675
O4 C1 C1 26.3(7) 2_655 1_555 2_655
O4 C1 C3 106.1(15) 2_655 1_555 4_675
O4 C1 C2 54.6(11) 2_655 1_555 3_575
O4 C1 C2 81(2) 2_655 1_555 4_675
O4 C1 O4 80(2) 2_655 1_555 1_555
O4 C1 O1 116.4(19) 2_655 1_555 4_675
Al2 C1 O4 118.8(8) 3_675 1_555 2_655
Al2 C1 C1 143.7(8) 3_675 1_555 2_655
Al2 C1 C3 123.1(16) 3_675 1_555 4_675
Al2 C1 C2 169.3(10) 3_675 1_555 3_575
Al2 C1 C2 149(2) 3_675 1_555 4_675
Al2 C1 O4 85.2(19) 3_675 1_555 1_555
Al2 C1 O1 31.0(13) 3_675 1_555 4_675
Al1 C1 Al2 58.1(6) 1_555 1_555 3_675
Al1 C1 O4 92.5(9) 1_555 1_555 2_655
Al1 C1 C1 100.9(9) 1_555 1_555 2_655
Al1 C1 C3 154.1(12) 1_555 1_555 4_675
Al1 C1 C2 127.2(13) 1_555 1_555 3_575
Al1 C1 C2 150.9(16) 1_555 1_555 4_675
Al1 C1 O4 27.1(14) 1_555 1_555 1_555
Al1 C1 O1 88.4(16) 1_555 1_555 4_675
O2 C1 Al1 35.2(3) 4_675 1_555 1_555
O2 C1 Al2 37.7(6) 4_675 1_555 3_675
O2 C1 O4 86.3(9) 4_675 1_555 2_655
O2 C1 C1 107.6(10) 4_675 1_555 2_655
O2 C1 C3 159.8(16) 4_675 1_555 4_675
O2 C1 C2 139.9(17) 4_675 1_555 3_575
O2 C1 C2 166(2) 4_675 1_555 4_675
O2 C1 O4 58.7(12) 4_675 1_555 1_555
O2 C1 O1 60.9(12) 4_675 1_555 4_675
O3 C1 O2 45.4(7) 1_555 1_555 4_675
O3 C1 Al1 35.9(5) 1_555 1_555 1_555
O3 C1 Al2 36.3(5) 1_555 1_555 3_675
O3 C1 O4 126.6(9) 1_555 1_555 2_655
O3 C1 C1 136.2(9) 1_555 1_555 2_655
O3 C1 C3 127.0(16) 1_555 1_555 4_675
O3 C1 C2 153.8(9) 1_555 1_555 3_575
O3 C1 C2 149.0(19) 1_555 1_555 4_675
O3 C1 O4 57.8(19) 1_555 1_555 1_555
O3 C1 O1 65.1(18) 1_555 1_555 4_675
C2 C2 C3 119.9(13) 2_654 1_555 1_555
C1 C2 C2 117.6(18) 4_675 1_555 2_654
C1 C2 C3 122(2) 4_675 1_555 1_555
C4 C2 C1 152(2) 1_555 1_555 4_675
C4 C2 C2 89.9(8) 1_555 1_555 2_654
C4 C2 C3 30.1(12) 1_555 1_555 1_555
C3 C2 C4 60.1(10) 2_654 1_555 1_555
C3 C2 C1 147(2) 2_654 1_555 4_675
C3 C2 C2 29.8(8) 2_654 1_555 2_654
C3 C2 C3 90.2(17) 2_654 1_555 1_555
O1 C2 C3 164.0(11) 1_555 1_555 2_654
O1 C2 C4 130.9(12) 1_555 1_555 1_555
O1 C2 C1 27.0(12) 1_555 1_555 4_675
O1 C2 C2 137.0(8) 1_555 1_555 2_654
O1 C2 C3 101.3(15) 1_555 1_555 1_555
O4 C2 O1 52.5(7) 4_675 1_555 1_555
O4 C2 C3 124.3(11) 4_675 1_555 2_654
O4 C2 C4 154.2(6) 4_675 1_555 1_555
O4 C2 C1 25.6(12) 4_675 1_555 4_675
O4 C2 C2 98.1(8) 4_675 1_555 2_654
O4 C2 C3 135.9(14) 4_675 1_555 1_555
C1 C2 O4 70.5(11) 3_574 1_555 4_675
C1 C2 O1 104.7(12) 3_574 1_555 1_555
C1 C2 C3 62.3(10) 3_574 1_555 2_654
C1 C2 C4 122.2(13) 3_574 1_555 1_555
C1 C2 C1 86(2) 3_574 1_555 4_675
C1 C2 C2 32.6(9) 3_574 1_555 2_654
C1 C2 C3 151.9(18) 3_574 1_555 1_555
C4 C2 C1 92.2(12) 2_654 1_555 3_574
C4 C2 O4 148.1(8) 2_654 1_555 4_675
C4 C2 O1 158.7(11) 2_654 1_555 1_555
C4 C2 C3 30.1(8) 2_654 1_555 2_654
C4 C2 C4 30.0(12) 2_654 1_555 1_555
C4 C2 C1 173.3(5) 2_654 1_555 4_675
C4 C2 C2 59.8(8) 2_654 1_555 2_654
C4 C2 C3 60.1(13) 2_654 1_555 1_555
O4 C2 C4 110.4(10) 3_574 1_555 2_654
O4 C2 C1 24.9(7) 3_574 1_555 3_574
O4 C2 O4 63.6(10) 3_574 1_555 4_675
O4 C2 O1 82.7(9) 3_574 1_555 1_555
O4 C2 C3 82.4(9) 3_574 1_555 2_654
O4 C2 C4 137.7(10) 3_574 1_555 1_555
O4 C2 C1 69.8(18) 3_574 1_555 4_675
O4 C2 C2 54.6(6) 3_574 1_555 2_654
O4 C2 C3 157.4(5) 3_574 1_555 1_555
C4 C3 C2 120(2) 1_555 1_555 1_555
C2 C3 C4 89.9(15) 2_654 1_555 1_555
C2 C3 C2 30.3(12) 2_654 1_555 1_555
C4 C3 C2 59.9(10) 2_654 1_555 2_654
C4 C3 C4 30.0(13) 2_654 1_555 1_555
C4 C3 C2 90.2(15) 2_654 1_555 1_555
C5 C3 C4 60.0(10) 1_555 1_555 2_654
C5 C3 C2 119.9(12) 1_555 1_555 2_654
C5 C3 C4 30.0(13) 1_555 1_555 1_555
C5 C3 C2 150.2(17) 1_555 1_555 1_555
C1 C3 C5 175.5(7) 4_675 1_555 1_555
C1 C3 C4 120.3(15) 4_675 1_555 2_654
C1 C3 C2 60.6(13) 4_675 1_555 2_654
C1 C3 C4 150.0(19) 4_675 1_555 1_555
C1 C3 C2 30.4(15) 4_675 1_555 1_555
C3 C3 C1 90.2(12) 2_654 1_555 4_675
C3 C3 C5 90.1(7) 2_654 1_555 1_555
C3 C3 C4 30.1(8) 2_654 1_555 2_654
C3 C3 C2 29.8(8) 2_654 1_555 2_654
C3 C3 C4 60.1(13) 2_654 1_555 1_555
C3 C3 C2 60.1(13) 2_654 1_555 1_555
O1 C3 C3 111.2(6) 1_555 1_555 2_654
O1 C3 C1 24.6(9) 1_555 1_555 4_675
O1 C3 C5 157.0(10) 1_555 1_555 1_555
O1 C3 C4 140.7(11) 1_555 1_555 2_654
O1 C3 C2 81.7(9) 1_555 1_555 2_654
O1 C3 C4 168.8(12) 1_555 1_555 1_555
O1 C3 C2 52.0(12) 1_555 1_555 1_555
C3 C4 C4 119.8(13) 1_555 1_555 2_654
C5 C4 C3 120(2) 1_555 1_555 1_555
C5 C4 C4 119.8(14) 1_555 1_555 2_654
C2 C4 C5 150(2) 1_555 1_555 1_555
C2 C4 C3 29.7(12) 1_555 1_555 1_555
C2 C4 C4 90.1(8) 1_555 1_555 2_654
C3 C4 C2 60.0(10) 2_654 1_555 1_555
C3 C4 C5 150(2) 2_654 1_555 1_555
C3 C4 C3 89.8(17) 2_654 1_555 1_555
C3 C4 C4 30.1(8) 2_654 1_555 2_654
C6 C4 C3 120.0(13) 1_555 1_555 2_654
C6 C4 C2 180.0(15) 1_555 1_555 1_555
C6 C4 C5 30.0(13) 1_555 1_555 1_555
C6 C4 C3 150.2(19) 1_555 1_555 1_555
C6 C4 C4 89.9(8) 1_555 1_555 2_654
C5 C4 C6 59.7(10) 2_654 1_555 1_555
C5 C4 C3 60.3(10) 2_654 1_555 2_654
C5 C4 C2 120.4(13) 2_654 1_555 1_555
C5 C4 C5 89.6(19) 2_654 1_555 1_555
C5 C4 C3 150.1(19) 2_654 1_555 1_555
C5 C4 C4 30.2(8) 2_654 1_555 2_654
C2 C4 C5 90.1(12) 2_654 1_555 2_654
C2 C4 C6 149.7(14) 2_654 1_555 1_555
C2 C4 C3 29.7(8) 2_654 1_555 2_654
C2 C4 C2 30.3(11) 2_654 1_555 1_555
C2 C4 C5 178.7(14) 2_654 1_555 1_555
C2 C4 C3 60.0(13) 2_654 1_555 1_555
C2 C4 C4 59.8(8) 2_654 1_555 2_654
C6 C4 C2 120.0(13) 2_654 1_555 2_654
C6 C4 C5 29.9(8) 2_654 1_555 2_654
C6 C4 C6 29.8(10) 2_654 1_555 1_555
C6 C4 C3 90.2(11) 2_654 1_555 2_654
C6 C4 C2 150.3(14) 2_654 1_555 1_555
C6 C4 C5 59.7(14) 2_654 1_555 1_555
C6 C4 C3 178.7(14) 2_654 1_555 1_555
C6 C4 C4 60.1(7) 2_654 1_555 2_654
C4 C5 C6 120(2) 1_555 1_555 1_555
C6 C5 C4 89.9(17) 2_654 1_555 1_555
C6 C5 C6 29.7(12) 2_654 1_555 1_555
C4 C5 C6 60.0(11) 2_654 1_555 2_654
C4 C5 C4 29.9(14) 2_654 1_555 1_555
C4 C5 C6 89.7(16) 2_654 1_555 1_555
C3 C5 C4 59.7(9) 1_555 1_555 2_654
C3 C5 C6 119.7(12) 1_555 1_555 2_654
C3 C5 C4 29.8(13) 1_555 1_555 1_555
C3 C5 C6 149.4(18) 1_555 1_555 1_555
C5 C5 C3 89.9(7) 2_654 1_555 1_555
C5 C5 C4 30.2(8) 2_654 1_555 2_654
C5 C5 C6 29.8(8) 2_654 1_555 2_654
C5 C5 C4 60.1(14) 2_654 1_555 1_555
C5 C5 C6 59.5(13) 2_654 1_555 1_555
C5 C6 C6 120.5(13) 1_555 1_555 2_654
C5 C6 C5 90.7(19) 2_654 1_555 1_555
C5 C6 C6 29.8(8) 2_654 1_555 2_654
C4 C6 C5 60.3(10) 1_555 1_555 2_654
C4 C6 C5 30.4(13) 1_555 1_555 1_555
C4 C6 C6 90.1(8) 1_555 1_555 2_654
C4 C6 C4 30.0(12) 2_654 1_555 1_555
C4 C6 C5 30.3(8) 2_654 1_555 2_654
C4 C6 C5 60.4(14) 2_654 1_555 1_555
C4 C6 C6 60.1(7) 2_654 1_555 2_654
Ow1 C6 C4 146.6(14) 4_675 1_555 2_654
Ow1 C6 C4 116.8(14) 4_675 1_555 1_555
Ow1 C6 C5 175.4(13) 4_675 1_555 2_654
Ow1 C6 C5 86.4(17) 4_675 1_555 1_555
Ow1 C6 C6 152.7(12) 4_675 1_555 2_654
O2 Ow1 Ow1 112(3) 4_665 1_555 2_755
O4 Ow1 O2 59.5(10) 4_665 1_555 4_665
O4 Ow1 Ow1 100(6) 4_665 1_555 2_755
C6 Ow1 O4 81.3(18) 4_675 1_555 4_665
C6 Ow1 O2 95(3) 4_675 1_555 4_665
C6 Ow1 Ow1 151(3) 4_675 1_555 2_755
O2 Ow1 C6 154(2) 3_665 1_555 4_675
O2 Ow1 O4 83.2(15) 3_665 1_555 4_665
O2 Ow1 O2 59.8(12) 3_665 1_555 4_665
O2 Ow1 Ow1 52.9(16) 3_665 1_555 2_755
O4 Ow1 O2 52.1(10) 3_665 1_555 3_665
O4 Ow1 C6 134(3) 3_665 1_555 4_675
O4 Ow1 O4 134.0(18) 3_665 1_555 4_665
O4 Ow1 O2 85.7(10) 3_665 1_555 4_665
O4 Ow1 Ow1 64(5) 3_665 1_555 2_755
loop_
_geom_bond_atom_site_label_1
_geom_bond_atom_site_label_2
_geom_bond_distance
_geom_bond_site_symmetry_1
_geom_bond_site_symmetry_2
Al1 O2 1.848(9) 1_555 4_675
Al1 O2 1.848(9) 1_555 1_555
Al1 O3 1.887(18) 1_555 1_555
Al1 O3 1.887(18) 1_555 4_675
Al1 O4 1.934(15) 1_555 4_675
Al1 O4 1.934(15) 1_555 1_555
Al1 Al2 2.860(5) 1_555 1_555
Al1 Al2 2.860(5) 1_555 3_675
Al1 C1 3.00(2) 1_555 4_675
Al1 C1 3.00(2) 1_555 1_555
Al2 O3 1.882(9) 1_555 4_675
Al2 O3 1.882(9) 1_555 3_474
Al2 O1 1.92(2) 1_555 1_555
Al2 O1 1.92(2) 1_555 2_554
Al2 O2 1.95(2) 1_555 1_555
Al2 O2 1.95(2) 1_555 2_554
Al2 Al1 2.860(5) 1_555 1_555
Al2 Al1 2.860(5) 1_555 2_554
Al2 C1 2.89(4) 1_555 3_474
Al2 C1 2.89(4) 1_555 4_675
Al2 O4 3.07(2) 1_555 3_474
Al2 O4 3.07(2) 1_555 4_675
O1 C1 1.27(4) 1_555 4_675
O1 Al2 1.92(2) 1_555 1_555
O1 O4 2.18(2) 1_555 4_675
O1 C2 2.42(3) 1_555 1_555
O1 O3 2.70(2) 1_555 3_474
O1 O1 2.71(5) 1_555 2_554
O1 O2 2.73(2) 1_555 1_555
O1 O3 2.83(2) 1_555 4_675
O1 C3 3.02(3) 1_555 1_555
O2 Al1 1.848(9) 1_555 1_555
O2 Al2 1.95(2) 1_555 1_555
O2 O3 2.40(2) 1_555 4_675
O2 Ow1 2.59(5) 1_555 4_665
O2 O4 2.674(19) 1_555 4_675
O2 O4 2.675(17) 1_555 1_555
O2 O1 2.73(2) 1_555 1_555
O2 O2 2.82(4) 1_555 2_554
O2 O3 2.839(16) 1_555 3_474
O2 O3 2.859(19) 1_555 1_555
O2 O3 2.94(3) 1_555 2_654
O2 Ow1 3.02(7) 1_555 3_464
O2 C1 3.11(3) 1_555 4_675
O3 Al2 1.882(9) 1_555 3_675
O3 Al1 1.887(18) 1_555 1_555
O3 O2 2.40(2) 1_555 4_675
O3 O4 2.66(3) 1_555 1_555
O3 O1 2.70(2) 1_555 3_675
O3 O4 2.74(2) 1_555 4_675
O3 O1 2.83(2) 1_555 4_675
O3 O2 2.839(16) 1_555 3_675
O3 O2 2.859(19) 1_555 1_555
O3 O2 2.94(3) 1_555 2_654
O3 C1 3.12(4) 1_555 1_555
O3 O3 3.16(2) 1_555 2_654
O4 C1 1.30(2) 1_555 1_555
O4 Al1 1.934(15) 1_555 1_555
O4 O1 2.18(2) 1_555 4_675
O4 C2 2.50(3) 1_555 4_675
O4 O3 2.66(3) 1_555 1_555
O4 O2 2.674(19) 1_555 4_675
O4 O2 2.675(17) 1_555 1_555
O4 O3 2.74(2) 1_555 4_675
O4 Ow1 2.79(5) 1_555 4_665
O4 C1 2.89(5) 1_555 2_655
O4 O4 2.95(4) 1_555 2_655
O4 C2 3.03(3) 1_555 3_575
O4 Al2 3.07(2) 1_555 3_675
O4 Ow1 3.07(5) 1_555 3_464
C1 O1 1.27(4) 1_555 4_675
C1 O4 1.30(2) 1_555 1_555
C1 C2 1.52(4) 1_555 4_675
C1 C2 2.50(5) 1_555 3_575
C1 C3 2.54(3) 1_555 4_675
C1 C1 2.83(10) 1_555 2_655
C1 O4 2.89(5) 1_555 2_655
C1 Al2 2.89(4) 1_555 3_675
C1 Al1 3.00(2) 1_555 1_555
C1 O2 3.11(3) 1_555 4_675
C1 O3 3.12(4) 1_555 1_555
C2 C3 1.38(3) 1_555 1_555
C2 C2 1.41(5) 1_555 2_654
C2 C1 1.52(4) 1_555 4_675
C2 C4 2.41(3) 1_555 1_555
C2 C3 2.41(3) 1_555 2_654
C2 O1 2.42(3) 1_555 1_555
C2 O4 2.50(3) 1_555 4_675
C2 C1 2.50(5) 1_555 3_574
C2 C4 2.79(4) 1_555 2_654
C2 O4 3.03(3) 1_555 3_574
C3 C2 1.38(3) 1_555 1_555
C3 C4 1.40(3) 1_555 1_555
C3 C2 2.41(3) 1_555 2_654
C3 C4 2.42(3) 1_555 2_654
C3 C5 2.43(3) 1_555 1_555
C3 C1 2.54(3) 1_555 4_675
C3 C3 2.79(4) 1_555 2_654
C3 O1 3.02(3) 1_555 1_555
C4 C4 1.39(5) 1_555 2_654
C4 C3 1.40(3) 1_555 1_555
C4 C5 1.41(3) 1_555 1_555
C4 C2 2.41(3) 1_555 1_555
C4 C3 2.42(3) 1_555 2_654
C4 C6 2.42(3) 1_555 1_555
C4 C5 2.42(4) 1_555 2_654
C4 C2 2.79(4) 1_555 2_654
C4 C6 2.79(3) 1_555 2_654
C5 C6 1.39(3) 1_555 1_555
C5 C4 1.41(3) 1_555 1_555
C5 C6 2.41(3) 1_555 2_654
C5 C4 2.42(4) 1_555 2_654
C5 C3 2.43(3) 1_555 1_555
C5 C5 2.80(5) 1_555 2_654
C6 C6 1.38(4) 1_555 2_654
C6 C5 1.39(3) 1_555 1_555
C6 C5 2.41(3) 1_555 2_654
C6 C4 2.42(3) 1_555 1_555
C6 C4 2.79(3) 1_555 2_654
C6 Ow1 3.00(9) 1_555 4_675
Ow1 Ow1 0.9(2) 1_555 2_755
Ow1 O2 2.59(5) 1_555 4_665
Ow1 O4 2.79(5) 1_555 4_665
Ow1 C6 3.00(9) 1_555 4_675
Ow1 O2 3.02(7) 1_555 3_665
Ow1 O4 3.07(5) 1_555 3_665
loop_
_pd_proc_point_id
_pd_meas_2theta_scan
_pd_proc_intensity_total
_pd_calc_intensity_total
_pd_proc_ls_weight
1 4.00500 4355.72344 4425.00000 0.00023
2 4.02000 4356.69301 4698.00000 0.00021
3 4.03500 4357.52455 4432.00000 0.00023
4 4.05000 4358.22046 4541.00000 0.00022
5 4.06500 4358.78313 4617.00000 0.00022
6 4.08000 4359.21492 4514.00000 0.00022
7 4.09500 4359.51819 4624.00000 0.00022
8 4.11000 4359.69527 4478.00000 0.00022
9 4.12500 4359.74848 4500.00000 0.00022
10 4.14000 4359.68012 4305.00000 0.00023
11 4.15500 4359.49249 4515.00000 0.00022
12 4.17000 4359.18788 4489.00000 0.00022
13 4.18500 4358.76856 4343.00000 0.00023
14 4.20000 4358.23679 4602.00000 0.00022
15 4.21500 4357.59483 4456.00000 0.00022
16 4.23000 4356.84492 4367.00000 0.00023
17 4.24500 4355.98930 4293.00000 0.00023
18 4.26000 4355.03023 4327.00000 0.00023
19 4.27500 4353.96993 4351.00000 0.00023
20 4.29000 4352.81066 4280.00000 0.00023
21 4.30500 4351.55468 4253.00000 0.00024
22 4.32000 4350.20425 4294.00000 0.00023
23 4.33500 4348.76168 4485.00000 0.00022
24 4.35000 4347.22931 4411.00000 0.00023
25 4.36500 4345.60955 4298.00000 0.00023
26 4.38000 4343.90491 4426.00000 0.00023
27 4.39500 4342.11811 4222.00000 0.00024
28 4.41000 4340.25221 4253.00000 0.00024
29 4.42500 4338.31121 4264.00000 0.00023
30 4.44000 4336.30370 4265.00000 0.00023
31 4.45500 4334.23351 4348.00000 0.00023
32 4.47000 4332.08133 4156.00000 0.00024
33 4.48500 4329.84954 4351.00000 0.00023
34 4.50000 4327.54111 4112.00000 0.00024
35 4.51500 4325.15886 4287.00000 0.00023
36 4.53000 4322.70555 4247.00000 0.00024
37 4.54500 4320.18382 4381.00000 0.00023
38 4.56000 4317.59623 4257.00000 0.00023
39 4.57500 4314.94529 4297.00000 0.00023
40 4.59000 4312.23346 4143.00000 0.00024
41 4.60500 4309.46314 4194.00000 0.00024
42 4.62000 4306.63669 4104.00000 0.00024
43 4.63500 4303.75646 4099.00000 0.00024
44 4.65000 4300.82475 4094.00000 0.00024
45 4.66500 4297.84386 4155.00000 0.00024
46 4.68000 4294.81606 4197.00000 0.00024
47 4.69500 4291.74363 4207.00000 0.00024
48 4.71000 4288.62883 4362.00000 0.00023
49 4.72500 4285.47392 4230.00000 0.00024
50 4.74000 4282.28118 4084.00000 0.00024
51 4.75500 4279.05288 4111.00000 0.00024
52 4.77000 4275.79130 4084.00000 0.00024
53 4.78500 4272.49875 4176.00000 0.00024
54 4.80000 4269.17753 4172.00000 0.00024
55 4.81500 4265.82999 4089.00000 0.00024
56 4.83000 4262.45849 4060.00000 0.00025
57 4.84500 4259.06541 4169.00000 0.00024
58 4.86000 4255.65318 4006.00000 0.00025
59 4.87500 4252.22424 4067.00000 0.00025
60 4.89000 4248.78108 4079.00000 0.00025
61 4.90500 4245.32624 4096.00000 0.00024
62 4.92000 4241.86228 4264.00000 0.00023
63 4.93500 4238.39183 4214.00000 0.00024
64 4.95000 4234.91756 4343.00000 0.00023
65 4.96500 4231.44221 3909.00000 0.00026
66 4.98000 4227.96857 4201.00000 0.00024
67 4.99500 4224.49950 3948.00000 0.00025
68 5.01000 4221.03792 4146.00000 0.00024
69 5.02500 4217.58686 4096.00000 0.00024
70 5.04000 4214.14941 4129.00000 0.00024
71 5.05500 4210.72873 4244.00000 0.00024
72 5.07000 4207.32812 4168.00000 0.00024
73 5.08500 4203.95096 4138.00000 0.00024
74 5.10000 4200.60073 3989.00000 0.00025
75 5.11500 4197.28106 4089.00000 0.00024
76 5.13000 4193.99568 4115.00000 0.00024
77 5.14500 4190.74848 4178.00000 0.00024
78 5.16000 4187.54349 4121.00000 0.00024
79 5.17500 4184.38491 4175.00000 0.00024
80 5.19000 4181.27709 4263.00000 0.00023
81 5.20500 4178.22463 4158.00000 0.00024
82 5.22000 4175.23229 4240.00000 0.00024
83 5.23500 4172.30504 4018.00000 0.00025
84 5.25000 4169.44812 4009.00000 0.00025
85 5.26500 4166.66701 4044.00000 0.00025
86 5.28000 4163.96748 4036.00000 0.00025
87 5.29500 4161.35559 4113.00000 0.00024
88 5.31000 4158.83775 4118.00000 0.00024
89 5.32500 4156.42073 4083.00000 0.00024
90 5.34000 4154.11170 4221.00000 0.00024
91 5.35500 4151.91824 4048.00000 0.00025
92 5.37000 4149.84844 4157.00000 0.00024
93 5.38500 4147.91086 4137.00000 0.00024
94 5.40000 4146.11469 4097.00000 0.00024
95 5.41500 4144.46969 4187.00000 0.00024
96 5.43000 4142.98635 4086.00000 0.00024
97 5.44500 4141.67592 4136.00000 0.00024
98 5.46000 4140.55048 4096.00000 0.00024
99 5.47500 4139.62306 4127.00000 0.00024
100 5.49000 4138.90777 4147.00000 0.00024
101 5.50500 4138.41984 4324.00000 0.00023
102 5.52000 4138.17586 4207.00000 0.00024
103 5.53500 4138.19388 4231.00000 0.00024
104 5.55000 4138.49361 4260.00000 0.00023
105 5.56500 4139.09669 4279.00000 0.00023
106 5.58000 4140.02688 4209.00000 0.00024
107 5.59500 4141.31046 4140.00000 0.00024
108 5.61000 4142.97656 4216.00000 0.00024
109 5.62500 4145.05764 4201.00000 0.00024
110 5.64000 4147.59011 4271.00000 0.00023
111 5.65500 4150.61500 4150.00000 0.00024
112 5.67000 4154.17890 4316.00000 0.00023
113 5.68500 4158.33508 4405.00000 0.00023
114 5.70000 4163.14486 4380.00000 0.00023
115 5.71500 4168.67939 4377.00000 0.00023
116 5.73000 4175.02170 4220.00000 0.00024
117 5.74500 4182.26923 4235.00000 0.00024
118 5.76000 4190.53680 4347.00000 0.00023
119 5.77500 4199.95998 4323.00000 0.00023
120 5.79000 4210.69881 4297.00000 0.00023
121 5.80500 4222.94179 4356.00000 0.00023
122 5.82000 4236.90971 4352.00000 0.00023
123 5.83500 4252.85880 4440.00000 0.00023
124 5.85000 4271.08204 4384.00000 0.00023
125 5.86500 4291.90713 4627.00000 0.00022
126 5.88000 4315.68874 4462.00000 0.00022
127 5.89500 4342.79308 4607.00000 0.00022
128 5.91000 4373.57420 4675.00000 0.00021
129 5.92500 4408.34548 4607.00000 0.00022
130 5.94000 4447.35212 4917.00000 0.00020
131 5.95500 4490.75344 4731.00000 0.00021
132 5.97000 4538.61943 4815.00000 0.00021
133 5.98500 4590.94045 4767.00000 0.00021
134 6.00000 4647.64544 4972.00000 0.00020
135 6.01500 4708.62294 4828.00000 0.00021
136 6.03000 4773.74079 5097.00000 0.00020
137 6.04500 4842.86228 5007.00000 0.00020
138 6.06000 4915.85817 5015.00000 0.00020
139 6.07500 4992.61489 5160.00000 0.00019
140 6.09000 5073.03962 5170.00000 0.00019
141 6.10500 5157.06300 5273.00000 0.00019
142 6.12000 5244.64015 5259.00000 0.00019
143 6.13500 5335.75055 5534.00000 0.00018
144 6.15000 5430.39725 5540.00000 0.00018
145 6.16500 5528.60578 5495.00000 0.00018
146 6.18000 5630.42282 5752.00000 0.00017
147 6.19500 5735.91507 5989.00000 0.00017
148 6.21000 5845.16817 5987.00000 0.00017
149 6.22500 5958.28596 5868.00000 0.00017
150 6.24000 6075.38992 5924.00000 0.00017
151 6.25500 6196.61893 6181.00000 0.00016
152 6.27000 6322.12939 6210.00000 0.00016
153 6.28500 6452.09575 6176.00000 0.00016
154 6.30000 6586.71174 6451.00000 0.00016
155 6.31500 6726.19412 6672.00000 0.00015
156 6.33000 6870.81146 6740.00000 0.00015
157 6.34500 7020.73354 7089.00000 0.00014
158 6.36000 7176.15381 7130.00000 0.00014
159 6.37500 7337.46534 7430.00000 0.00013
160 6.39000 7504.98826 7406.00000 0.00014
161 6.40500 7679.07057 7599.00000 0.00013
162 6.42000 7860.09080 8126.00000 0.00012
163 6.43500 8048.46096 8222.00000 0.00012
164 6.45000 8244.62999 8240.00000 0.00012
165 6.46500 8449.08765 8630.00000 0.00012
166 6.48000 8662.36897 8567.00000 0.00012
167 6.49500 8885.05935 9288.00000 0.00011
168 6.51000 9117.80049 9139.00000 0.00011
169 6.52500 9361.29717 9467.00000 0.00011
170 6.54000 9616.32512 10053.00000 0.00010
171 6.55500 9883.74033 10278.00000 0.00010
172 6.57000 10164.48983 10528.00000 0.00009
173 6.58500 10459.62456 10701.00000 0.00009
174 6.60000 10770.31443 10951.00000 0.00009
175 6.61500 11097.86605 11439.00000 0.00009
176 6.63000 11443.74308 11938.00000 0.00008
177 6.64500 11809.58906 12381.00000 0.00008
178 6.66000 12197.25131 12947.00000 0.00008
179 6.67500 12608.80365 13670.00000 0.00007
180 6.69000 13046.56331 14243.00000 0.00007
181 6.70500 13513.09472 14357.00000 0.00007
182 6.72000 14011.18952 14734.00000 0.00007
183 6.73500 14543.80794 14746.00000 0.00007
184 6.75000 15113.96251 15695.00000 0.00006
185 6.76500 15724.52080 16277.00000 0.00006
186 6.78000 16377.89973 16882.00000 0.00006
187 6.79500 17075.61922 17249.00000 0.00006
188 6.81000 17817.67608 18285.00000 0.00005
189 6.82500 18601.68844 18996.00000 0.00005
190 6.84000 19421.74527 19552.00000 0.00005
191 6.85500 20266.88114 20136.00000 0.00005
192 6.87000 21119.10672 20710.00000 0.00005
193 6.88500 21951.02161 21103.00000 0.00005
194 6.90000 22723.33453 21633.00000 0.00005
195 6.91500 23383.26039 22224.00000 0.00004
196 6.93000 23865.73872 23263.00000 0.00004
197 6.94500 24100.09973 22537.00000 0.00004
198 6.96000 24023.66710 22810.00000 0.00004
199 6.97500 23599.57870 21741.00000 0.00005
200 6.99000 22830.91312 22076.00000 0.00005
201 7.00500 21762.78566 20689.00000 0.00005
202 7.02000 20470.92005 19746.00000 0.00005
203 7.03500 19043.28172 18429.00000 0.00005
204 7.05000 17563.36477 16985.00000 0.00006
205 7.06500 16099.90122 15449.00000 0.00006
206 7.08000 14703.16175 14234.00000 0.00007
207 7.09500 13405.72215 13009.00000 0.00008
208 7.11000 12225.40344 11842.00000 0.00008
209 7.12500 11168.80704 11132.00000 0.00009
210 7.14000 10234.61646 9988.00000 0.00010
211 7.15500 9416.34058 9381.00000 0.00011
212 7.17000 8704.44139 9142.00000 0.00011
213 7.18500 8087.90385 8522.00000 0.00012
214 7.20000 7555.34113 7989.00000 0.00013
215 7.21500 7095.73006 7334.00000 0.00014
216 7.23000 6698.86050 6839.00000 0.00015
217 7.24500 6355.56939 6603.00000 0.00015
218 7.26000 6057.81880 6357.00000 0.00016
219 7.27500 5798.66925 5974.00000 0.00017
220 7.29000 5572.19365 5818.00000 0.00017
221 7.30500 5373.36759 5710.00000 0.00018
222 7.32000 5197.95801 5396.00000 0.00019
223 7.33500 5042.41810 5386.00000 0.00019
224 7.35000 4903.78940 5146.00000 0.00019
225 7.36500 4779.61114 5027.00000 0.00020
226 7.38000 4667.83815 4771.00000 0.00021
227 7.39500 4566.76863 4758.00000 0.00021
228 7.41000 4474.98256 4611.00000 0.00022
229 7.42500 4391.29035 4596.00000 0.00022
230 7.44000 4314.69076 4369.00000 0.00023
231 7.45500 4244.33674 4253.00000 0.00024
232 7.47000 4179.50786 4145.00000 0.00024
233 7.48500 4119.58801 4150.00000 0.00024
234 7.50000 4064.04754 4045.00000 0.00025
235 7.51500 4012.42868 4097.00000 0.00024
236 7.53000 3964.33392 3972.00000 0.00025
237 7.54500 3919.41635 3974.00000 0.00025
238 7.56000 3877.37196 3946.00000 0.00025
239 7.57500 3837.93323 3800.00000 0.00026
240 7.59000 3800.86386 3756.00000 0.00027
241 7.60500 3765.95439 3776.00000 0.00026
242 7.62000 3733.01862 3765.00000 0.00027
243 7.63500 3701.89053 3606.00000 0.00028
244 7.65000 3672.42177 3627.00000 0.00028
245 7.66500 3644.47961 3679.00000 0.00027
246 7.68000 3617.94552 3625.00000 0.00028
247 7.69500 3592.71679 3624.00000 0.00028
248 7.71000 3568.69676 3425.00000 0.00029
249 7.72500 3545.77106 3345.00000 0.00030
250 7.74000 3523.86641 3319.00000 0.00030
251 7.75500 3502.91440 3345.00000 0.00030
252 7.77000 3482.85105 3360.00000 0.00030
253 7.78500 3463.61714 3337.00000 0.00030
254 7.80000 3445.15830 3257.00000 0.00031
255 7.81500 3427.42531 3308.00000 0.00030
256 7.83000 3410.37370 3345.00000 0.00030
257 7.84500 3393.95333 3297.00000 0.00030
258 7.86000 3378.12595 3279.00000 0.00030
259 7.87500 3362.85675 3125.00000 0.00032
260 7.89000 3348.11315 3200.00000 0.00031
261 7.90500 3333.86481 3330.00000 0.00030
262 7.92000 3320.08353 3220.00000 0.00031
263 7.93500 3306.74312 3215.00000 0.00031
264 7.95000 3293.81926 3172.00000 0.00032
265 7.96500 3281.28936 3106.00000 0.00032
266 7.98000 3269.13242 3180.00000 0.00031
267 7.99500 3257.32890 3198.00000 0.00031
268 8.01000 3245.86062 3171.00000 0.00032
269 8.02500 3234.71067 3335.00000 0.00030
270 8.04000 3223.86334 3201.00000 0.00031
271 8.05500 3213.30441 3067.00000 0.00033
272 8.07000 3203.02010 3063.00000 0.00033
273 8.08500 3192.99457 3045.00000 0.00033
274 8.10000 3183.21657 2945.00000 0.00034
275 8.11500 3173.67521 2979.00000 0.00034
276 8.13000 3164.36005 3179.00000 0.00031
277 8.14500 3155.26114 3080.00000 0.00032
278 8.16000 3146.36911 3199.00000 0.00031
279 8.17500 3137.67511 3078.00000 0.00032
280 8.19000 3129.17078 3189.00000 0.00031
281 8.20500 3120.84824 3048.00000 0.00033
282 8.22000 3112.70009 2922.00000 0.00034
283 8.23500 3104.71930 2998.00000 0.00033
284 8.25000 3096.89925 3020.00000 0.00033
285 8.26500 3089.23369 2871.00000 0.00035
286 8.28000 3081.71669 3017.00000 0.00033
287 8.29500 3074.34268 2969.00000 0.00034
288 8.31000 3067.10635 2984.00000 0.00034
289 8.32500 3060.00273 2871.00000 0.00035
290 8.34000 3053.02705 2960.00000 0.00034
291 8.35500 3046.17482 2993.00000 0.00033
292 8.37000 3039.44178 2891.00000 0.00035
293 8.38500 3032.82385 2995.00000 0.00033
294 8.40000 3026.31720 2946.00000 0.00034
295 8.41500 3019.91816 3088.00000 0.00032
296 8.43000 3013.62323 2913.00000 0.00034
297 8.44500 3007.42912 2892.00000 0.00035
298 8.46000 3001.33267 2850.00000 0.00035
299 8.47500 2995.33088 2917.00000 0.00034
300 8.49000 2989.42090 3003.00000 0.00033
301 8.50500 2983.60001 2957.00000 0.00034
302 8.52000 2977.86563 2928.00000 0.00034
303 8.53500 2972.21532 2946.00000 0.00034
304 8.55000 2966.64675 2963.00000 0.00034
305 8.56500 2961.15775 2896.00000 0.00035
306 8.58000 2955.74626 2795.00000 0.00036
307 8.59500 2950.41041 2934.00000 0.00034
308 8.61000 2945.14851 2940.00000 0.00034
309 8.62500 2939.95928 2965.00000 0.00034
310 8.64000 2934.84258 2977.00000 0.00034
311 8.65500 2929.79966 2900.00000 0.00034
312 8.67000 2924.82071 2885.00000 0.00035
313 8.68500 2919.90331 3010.00000 0.00033
314 8.70000 2915.04606 2850.00000 0.00035
315 8.71500 2910.24760 2821.00000 0.00035
316 8.73000 2905.50659 2803.00000 0.00036
317 8.74500 2900.82176 2853.00000 0.00035
318 8.76000 2896.19188 2874.00000 0.00035
319 8.77500 2891.61574 2872.00000 0.00035
320 8.79000 2887.09220 2810.00000 0.00036
321 8.80500 2882.62012 2820.00000 0.00035
322 8.82000 2878.19842 2802.00000 0.00036
323 8.83500 2873.82606 2779.00000 0.00036
324 8.85000 2869.50202 2810.00000 0.00036
325 8.86500 2865.22530 2844.00000 0.00035
326 8.88000 2860.99497 2762.00000 0.00036
327 8.89500 2856.81008 2836.00000 0.00035
328 8.91000 2852.66975 2950.00000 0.00034
329 8.92500 2848.57311 2730.00000 0.00037
330 8.94000 2844.51931 2861.00000 0.00035
331 8.95500 2840.50762 2699.00000 0.00037
332 8.97000 2836.53762 2744.00000 0.00036
333 8.98500 2832.60892 2838.00000 0.00035
334 9.00000 2828.72106 2798.00000 0.00036
335 9.01500 2824.87354 2897.00000 0.00035
336 9.03000 2821.06585 2808.00000 0.00036
337 9.04500 2817.29749 2805.00000 0.00036
338 9.06000 2813.56800 2810.00000 0.00036
339 9.07500 2809.87691 2757.00000 0.00036
340 9.09000 2806.22382 2786.00000 0.00036
341 9.10500 2802.60835 2785.00000 0.00036
342 9.12000 2799.03020 2791.00000 0.00036
343 9.13500 2795.48911 2759.00000 0.00036
344 9.15000 2791.98493 2837.00000 0.00035
345 9.16500 2788.51758 2810.00000 0.00036
346 9.18000 2785.08714 2849.00000 0.00035
347 9.19500 2781.69385 2775.00000 0.00036
348 9.21000 2778.33822 2654.00000 0.00038
349 9.22500 2775.02113 2730.00000 0.00037
350 9.24000 2771.74408 2814.00000 0.00036
351 9.25500 2768.50965 2740.00000 0.00036
352 9.27000 2765.32266 2801.00000 0.00036
353 9.28500 2762.19395 2722.00000 0.00037
354 9.30000 2759.17171 2751.00000 0.00036
355 9.31500 2756.21789 2739.00000 0.00037
356 9.33000 2753.20795 2754.00000 0.00036
357 9.34500 2750.17086 2736.00000 0.00037
358 9.36000 2747.12547 2722.00000 0.00037
359 9.37500 2744.08383 2752.00000 0.00036
360 9.39000 2741.05362 2711.00000 0.00037
361 9.40500 2738.03966 2845.00000 0.00035
362 9.42000 2735.04495 2785.00000 0.00036
363 9.43500 2732.07131 2722.00000 0.00037
364 9.45000 2729.11982 2647.00000 0.00038
365 9.46500 2726.19104 2816.00000 0.00036
366 9.48000 2723.28522 2757.00000 0.00036
367 9.49500 2720.40243 2707.00000 0.00037
368 9.51000 2717.54260 2790.00000 0.00036
369 9.52500 2714.70557 2731.00000 0.00037
370 9.54000 2711.89112 2673.00000 0.00037
371 9.55500 2709.09900 2622.00000 0.00038
372 9.57000 2706.32910 2683.00000 0.00037
373 9.58500 2703.58115 2638.00000 0.00038
374 9.60000 2700.85487 2770.00000 0.00036
375 9.61500 2698.15000 2774.00000 0.00036
376 9.63000 2695.46627 2638.00000 0.00038
377 9.64500 2692.80342 2777.00000 0.00036
378 9.66000 2690.16120 2727.00000 0.00037
379 9.67500 2687.53935 2700.00000 0.00037
380 9.69000 2684.93763 2646.00000 0.00038
381 9.70500 2682.35580 2730.00000 0.00037
382 9.72000 2679.79363 2597.00000 0.00039
383 9.73500 2677.25088 2596.00000 0.00039
384 9.75000 2674.72731 2741.00000 0.00036
385 9.76500 2672.22272 2665.00000 0.00038
386 9.78000 2669.73688 2696.00000 0.00037
387 9.79500 2667.26957 2659.00000 0.00038
388 9.81000 2664.82060 2712.00000 0.00037
389 9.82500 2662.38974 2673.00000 0.00037
390 9.84000 2659.97680 2674.00000 0.00037
391 9.85500 2657.58157 2666.00000 0.00038
392 9.87000 2655.20386 2547.00000 0.00039
393 9.88500 2652.84346 2699.00000 0.00037
394 9.90000 2650.50020 2626.00000 0.00038
395 9.91500 2648.17388 2652.00000 0.00038
396 9.93000 2645.86431 2663.00000 0.00038
397 9.94500 2643.57132 2566.00000 0.00039
398 9.96000 2641.29473 2715.00000 0.00037
399 9.97500 2639.03435 2613.00000 0.00038
400 9.99000 2636.79002 2593.00000 0.00039
401 10.00500 2634.56157 2703.00000 0.00037
402 10.02000 2632.34883 2714.00000 0.00037
403 10.03500 2630.15162 2795.00000 0.00036
404 10.05000 2627.96980 2589.00000 0.00039
405 10.06500 2625.80320 2634.00000 0.00038
406 10.08000 2623.65166 2577.00000 0.00039
407 10.09500 2621.51503 2704.00000 0.00037
408 10.11000 2619.39316 2690.00000 0.00037
409 10.12500 2617.28589 2629.00000 0.00038
410 10.14000 2615.19308 2568.00000 0.00039
411 10.15500 2613.11459 2705.00000 0.00037
412 10.17000 2611.05027 2662.00000 0.00038
413 10.18500 2608.99997 2577.00000 0.00039
414 10.20000 2606.96357 2578.00000 0.00039
415 10.21500 2604.94092 2521.00000 0.00040
416 10.23000 2602.93188 2581.00000 0.00039
417 10.24500 2600.93634 2612.00000 0.00038
418 10.26000 2598.95415 2639.00000 0.00038
419 10.27500 2596.98519 2516.00000 0.00040
420 10.29000 2595.02934 2597.00000 0.00039
421 10.30500 2593.08646 2607.00000 0.00038
422 10.32000 2591.15645 2582.00000 0.00039
423 10.33500 2589.23918 2519.00000 0.00040
424 10.35000 2587.33456 2548.00000 0.00039
425 10.36500 2585.44249 2562.00000 0.00039
426 10.38000 2583.56296 2680.00000 0.00037
427 10.39500 2581.69568 2620.00000 0.00038
428 10.41000 2579.84047 2543.00000 0.00039
429 10.42500 2577.99722 2611.00000 0.00038
430 10.44000 2576.16582 2602.00000 0.00038
431 10.45500 2574.34617 2490.00000 0.00040
432 10.47000 2572.53816 2512.00000 0.00040
433 10.48500 2570.74170 2669.00000 0.00037
434 10.50000 2568.95668 2668.00000 0.00037
435 10.51500 2567.18300 2650.00000 0.00038
436 10.53000 2565.42056 2567.00000 0.00039
437 10.54500 2563.66926 2632.00000 0.00038
438 10.56000 2561.92902 2516.00000 0.00040
439 10.57500 2560.19973 2556.00000 0.00039
440 10.59000 2558.48130 2555.00000 0.00039
441 10.60500 2556.77363 2626.00000 0.00038
442 10.62000 2555.07664 2507.00000 0.00040
443 10.63500 2553.39024 2560.00000 0.00039
444 10.65000 2551.71433 2543.00000 0.00039
445 10.66500 2550.04883 2532.00000 0.00039
446 10.68000 2548.39365 2497.00000 0.00040
447 10.69500 2546.74871 2454.00000 0.00041
448 10.71000 2545.11392 2478.00000 0.00040
449 10.72500 2543.48920 2530.00000 0.00040
450 10.74000 2541.87446 2515.00000 0.00040
451 10.75500 2540.26964 2581.00000 0.00039
452 10.77000 2538.67464 2527.00000 0.00040
453 10.78500 2537.08940 2595.00000 0.00039
454 10.80000 2535.51383 2559.00000 0.00039
455 10.81500 2533.94786 2533.00000 0.00039
456 10.83000 2532.39142 2535.00000 0.00039
457 10.84500 2530.84443 2584.00000 0.00039
458 10.86000 2529.30682 2455.00000 0.00041
459 10.87500 2527.77854 2581.00000 0.00039
460 10.89000 2526.25949 2547.00000 0.00039
461 10.90500 2524.74964 2447.00000 0.00041
462 10.92000 2523.24890 2546.00000 0.00039
463 10.93500 2521.75722 2517.00000 0.00040
464 10.95000 2520.27456 2534.00000 0.00039
465 10.96500 2518.80085 2482.00000 0.00040
466 10.98000 2517.33604 2428.00000 0.00041
467 10.99500 2515.88009 2574.00000 0.00039
468 11.01000 2514.43294 2574.00000 0.00039
469 11.02500 2512.99453 2504.00000 0.00040
470 11.04000 2511.56482 2569.00000 0.00039
471 11.05500 2510.14378 2496.00000 0.00040
472 11.07000 2508.73134 2457.00000 0.00041
473 11.08500 2507.32748 2518.00000 0.00040
474 11.10000 2505.93217 2477.00000 0.00040
475 11.11500 2504.54537 2441.00000 0.00041
476 11.13000 2503.16706 2494.00000 0.00040
477 11.14500 2501.79724 2526.00000 0.00040
478 11.16000 2500.43590 2468.00000 0.00041
479 11.17500 2499.08306 2458.00000 0.00041
480 11.19000 2497.73874 2501.00000 0.00040
481 11.20500 2496.40296 2434.00000 0.00041
482 11.22000 2495.07578 2434.00000 0.00041
483 11.23500 2493.75720 2405.00000 0.00042
484 11.25000 2492.44713 2397.00000 0.00042
485 11.26500 2491.14508 2461.00000 0.00041
486 11.28000 2489.84848 2431.00000 0.00041
487 11.29500 2488.55798 2377.00000 0.00042
488 11.31000 2487.27535 2440.00000 0.00041
489 11.32500 2486.00056 2491.00000 0.00040
490 11.34000 2484.73358 2410.00000 0.00041
491 11.35500 2483.47438 2487.00000 0.00040
492 11.37000 2482.22295 2495.00000 0.00040
493 11.38500 2480.97927 2549.00000 0.00039
494 11.40000 2479.74330 2465.00000 0.00041
495 11.41500 2478.51504 2540.00000 0.00039
496 11.43000 2477.29447 2400.00000 0.00042
497 11.44500 2476.08158 2460.00000 0.00041
498 11.46000 2474.87635 2525.00000 0.00040
499 11.47500 2473.67877 2485.00000 0.00040
500 11.49000 2472.48883 2514.00000 0.00040
501 11.50500 2471.30653 2536.00000 0.00039
502 11.52000 2470.13187 2407.00000 0.00042
503 11.53500 2468.96483 2508.00000 0.00040
504 11.55000 2467.80543 2362.00000 0.00042
505 11.56500 2466.65366 2562.00000 0.00039
506 11.58000 2465.50952 2470.00000 0.00040
507 11.59500 2464.37303 2596.00000 0.00039
508 11.61000 2463.24420 2520.00000 0.00040
509 11.62500 2462.12303 2571.00000 0.00039
510 11.64000 2461.00953 2621.00000 0.00038
511 11.65500 2459.90374 2590.00000 0.00039
512 11.67000 2458.80565 2495.00000 0.00040
513 11.68500 2457.71531 2379.00000 0.00042
514 11.70000 2456.63273 2516.00000 0.00040
515 11.71500 2455.55794 2493.00000 0.00040
516 11.73000 2454.49096 2487.00000 0.00040
517 11.74500 2453.43185 2579.00000 0.00039
518 11.76000 2452.38062 2499.00000 0.00040
519 11.77500 2451.33733 2633.00000 0.00038
520 11.79000 2450.30202 2521.00000 0.00040
521 11.80500 2449.27473 2644.00000 0.00038
522 11.82000 2448.25552 2614.00000 0.00038
523 11.83500 2447.24444 2480.00000 0.00040
524 11.85000 2446.24155 2583.00000 0.00039
525 11.86500 2445.24691 2573.00000 0.00039
526 11.88000 2444.26059 2648.00000 0.00038
527 11.89500 2443.28267 2533.00000 0.00039
528 11.91000 2442.31321 2489.00000 0.00040
529 11.92500 2441.35230 2497.00000 0.00040
530 11.94000 2440.40004 2652.00000 0.00038
531 11.95500 2439.45650 2516.00000 0.00040
532 11.97000 2438.52178 2483.00000 0.00040
533 11.98500 2437.59599 2562.00000 0.00039
534 12.00000 2436.67924 2587.00000 0.00039
535 12.01500 2435.77164 2460.00000 0.00041
536 12.03000 2434.87331 2475.00000 0.00040
537 12.04500 2433.98437 2409.00000 0.00042
538 12.06000 2433.10497 2477.00000 0.00040
539 12.07500 2432.23525 2593.00000 0.00039
540 12.09000 2431.37535 2407.00000 0.00042
541 12.10500 2430.52544 2433.00000 0.00041
542 12.12000 2429.68567 2547.00000 0.00039
543 12.13500 2428.85623 2503.00000 0.00040
544 12.15000 2428.03730 2535.00000 0.00039
545 12.16500 2427.22907 2409.00000 0.00042
546 12.18000 2426.43176 2473.00000 0.00040
547 12.19500 2425.64556 2486.00000 0.00040
548 12.21000 2424.87072 2444.00000 0.00041
549 12.22500 2424.10747 2428.00000 0.00041
550 12.24000 2423.35606 2546.00000 0.00039
551 12.25500 2422.61675 2531.00000 0.00040
552 12.27000 2421.88983 2443.00000 0.00041
553 12.28500 2421.17559 2495.00000 0.00040
554 12.30000 2420.47434 2426.00000 0.00041
555 12.31500 2419.78641 2417.00000 0.00041
556 12.33000 2419.11214 2413.00000 0.00041
557 12.34500 2418.45189 2394.00000 0.00042
558 12.36000 2417.80606 2410.00000 0.00041
559 12.37500 2417.17508 2454.00000 0.00041
560 12.39000 2416.55938 2482.00000 0.00040
561 12.40500 2415.95942 2498.00000 0.00040
562 12.42000 2415.37569 2349.00000 0.00043
563 12.43500 2414.80872 2458.00000 0.00041
564 12.45000 2414.25906 2377.00000 0.00042
565 12.46500 2413.72728 2504.00000 0.00040
566 12.48000 2413.21401 2482.00000 0.00040
567 12.49500 2412.71989 2447.00000 0.00041
568 12.51000 2412.24563 2567.00000 0.00039
569 12.52500 2411.79197 2410.00000 0.00041
570 12.54000 2411.35970 2468.00000 0.00041
571 12.55500 2410.94966 2368.00000 0.00042
572 12.57000 2410.56278 2498.00000 0.00040
573 12.58500 2410.20006 2470.00000 0.00040
574 12.60000 2409.86259 2405.00000 0.00042
575 12.61500 2409.55174 2474.00000 0.00040
576 12.63000 2409.26982 2401.00000 0.00042
577 12.64500 2409.01701 2548.00000 0.00039
578 12.66000 2408.79259 2472.00000 0.00040
579 12.67500 2408.59791 2379.00000 0.00042
580 12.69000 2408.43438 2470.00000 0.00040
581 12.70500 2408.30353 2358.00000 0.00042
582 12.72000 2408.20699 2462.00000 0.00041
583 12.73500 2408.14650 2365.00000 0.00042
584 12.75000 2408.12392 2437.00000 0.00041
585 12.76500 2408.14125 2455.00000 0.00041
586 12.78000 2408.20065 2535.00000 0.00039
587 12.79500 2408.30441 2422.00000 0.00041
588 12.81000 2408.45501 2396.00000 0.00042
589 12.82500 2408.65514 2360.00000 0.00042
590 12.84000 2408.90766 2454.00000 0.00041
591 12.85500 2409.21569 2506.00000 0.00040
592 12.87000 2409.58261 2587.00000 0.00039
593 12.88500 2410.01207 2492.00000 0.00040
594 12.90000 2410.50804 2534.00000 0.00039
595 12.91500 2411.07483 2525.00000 0.00040
596 12.93000 2411.71716 2548.00000 0.00039
597 12.94500 2412.44016 2381.00000 0.00042
598 12.96000 2413.24946 2452.00000 0.00041
599 12.97500 2414.15122 2557.00000 0.00039
600 12.99000 2415.15221 2501.00000 0.00040
601 13.00500 2416.25990 2557.00000 0.00039
602 13.02000 2417.48253 2564.00000 0.00039
603 13.03500 2418.82925 2471.00000 0.00040
604 13.05000 2420.31019 2494.00000 0.00040
605 13.06500 2421.93670 2704.00000 0.00037
606 13.08000 2423.72149 2460.00000 0.00041
607 13.09500 2425.67887 2594.00000 0.00039
608 13.11000 2427.82508 2583.00000 0.00039
609 13.12500 2430.17861 2622.00000 0.00038
610 13.14000 2432.76069 2616.00000 0.00038
611 13.15500 2435.59581 2555.00000 0.00039
612 13.17000 2438.71269 2472.00000 0.00040
613 13.18500 2442.14478 2620.00000 0.00038
614 13.20000 2445.93133 2494.00000 0.00040
615 13.21500 2450.11851 2614.00000 0.00038
616 13.23000 2454.76068 2512.00000 0.00040
617 13.24500 2459.92170 2584.00000 0.00039
618 13.26000 2465.67631 2663.00000 0.00038
619 13.27500 2472.11129 2694.00000 0.00037
620 13.29000 2479.32615 2572.00000 0.00039
621 13.30500 2487.43292 2589.00000 0.00039
622 13.32000 2496.55453 2603.00000 0.00038
623 13.33500 2506.82130 2668.00000 0.00037
624 13.35000 2518.36578 2712.00000 0.00037
625 13.36500 2531.31678 2643.00000 0.00038
626 13.38000 2545.79404 2644.00000 0.00038
627 13.39500 2561.90497 2779.00000 0.00036
628 13.41000 2579.74404 2640.00000 0.00038
629 13.42500 2599.39444 2671.00000 0.00037
630 13.44000 2620.93165 2546.00000 0.00039
631 13.45500 2644.42894 2689.00000 0.00037
632 13.47000 2669.95546 2723.00000 0.00037
633 13.48500 2697.58204 2800.00000 0.00036
634 13.50000 2727.39263 2645.00000 0.00038
635 13.51500 2759.48328 2708.00000 0.00037
636 13.53000 2793.96576 2653.00000 0.00038
637 13.54500 2830.97116 2802.00000 0.00036
638 13.56000 2870.65333 2893.00000 0.00035
639 13.57500 2913.19227 2792.00000 0.00036
640 13.59000 2958.79696 2898.00000 0.00035
641 13.60500 3007.70733 2939.00000 0.00034
642 13.62000 3060.19446 3022.00000 0.00033
643 13.63500 3116.55757 3098.00000 0.00032
644 13.65000 3177.11604 3039.00000 0.00033
645 13.66500 3242.19389 2986.00000 0.00033
646 13.68000 3312.09400 3181.00000 0.00031
647 13.69500 3387.05918 3245.00000 0.00031
648 13.71000 3467.21764 3315.00000 0.00030
649 13.72500 3552.50907 3368.00000 0.00030
650 13.74000 3642.58563 3375.00000 0.00030
651 13.75500 3736.68004 3584.00000 0.00028
652 13.77000 3833.43450 3587.00000 0.00028
653 13.78500 3930.69428 3736.00000 0.00027
654 13.80000 4025.29812 3909.00000 0.00026
655 13.81500 4112.95219 3917.00000 0.00026
656 13.83000 4188.34510 3954.00000 0.00025
657 13.84500 4245.68683 4150.00000 0.00024
658 13.86000 4279.72418 4323.00000 0.00023
659 13.87500 4286.96867 4267.00000 0.00023
660 13.89000 4266.59082 4389.00000 0.00023
661 13.90500 4220.53239 4423.00000 0.00023
662 13.92000 4152.85140 4528.00000 0.00022
663 13.93500 4068.71055 4460.00000 0.00022
664 13.95000 3973.44738 4359.00000 0.00023
665 13.96500 3871.94616 4293.00000 0.00023
666 13.98000 3768.32157 4197.00000 0.00024
667 13.99500 3665.82816 4051.00000 0.00025
668 14.01000 3566.90100 3890.00000 0.00026
669 14.02500 3473.25858 3705.00000 0.00027
670 14.04000 3386.02649 3587.00000 0.00028
671 14.05500 3305.86035 3531.00000 0.00028
672 14.07000 3233.05770 3443.00000 0.00029
673 14.08500 3167.65493 3340.00000 0.00030
674 14.10000 3109.50833 3262.00000 0.00031
675 14.11500 3058.35993 3250.00000 0.00031
676 14.13000 3013.88949 3083.00000 0.00032
677 14.14500 2975.75471 3064.00000 0.00033
678 14.16000 2943.62140 2937.00000 0.00034
679 14.17500 2917.18579 2833.00000 0.00035
680 14.19000 2896.19066 2760.00000 0.00036
681 14.20500 2880.43673 2851.00000 0.00035
682 14.22000 2869.79023 2821.00000 0.00035
683 14.23500 2864.18700 2944.00000 0.00034
684 14.25000 2863.63287 2856.00000 0.00035
685 14.26500 2868.19947 3006.00000 0.00033
686 14.28000 2878.01461 2873.00000 0.00035
687 14.29500 2893.24774 2944.00000 0.00034
688 14.31000 2914.09232 2869.00000 0.00035
689 14.32500 2940.74903 2899.00000 0.00034
690 14.34000 2973.41373 2827.00000 0.00035
691 14.35500 3012.27206 3128.00000 0.00032
692 14.37000 3057.50076 2933.00000 0.00034
693 14.38500 3109.27386 3075.00000 0.00033
694 14.40000 3167.77186 2987.00000 0.00033
695 14.41500 3233.19206 3252.00000 0.00031
696 14.43000 3305.75907 3076.00000 0.00033
697 14.44500 3385.73477 3157.00000 0.00032
698 14.46000 3473.42765 3343.00000 0.00030
699 14.47500 3569.20156 3545.00000 0.00028
700 14.49000 3673.48416 3390.00000 0.00029
701 14.50500 3786.77436 3448.00000 0.00029
702 14.52000 3909.64731 3650.00000 0.00027
703 14.53500 4042.75432 3785.00000 0.00026
704 14.55000 4186.81463 3960.00000 0.00025
705 14.56500 4342.59499 3959.00000 0.00025
706 14.58000 4510.87239 4287.00000 0.00023
707 14.59500 4692.37395 4467.00000 0.00022
708 14.61000 4887.68659 4729.00000 0.00021
709 14.62500 5097.12722 4787.00000 0.00021
710 14.64000 5320.56081 4977.00000 0.00020
711 14.65500 5557.15045 5136.00000 0.00019
712 14.67000 5805.02072 5494.00000 0.00018
713 14.68500 6060.82094 5665.00000 0.00018
714 14.70000 6319.20129 5884.00000 0.00017
715 14.71500 6572.28609 6317.00000 0.00016
716 14.73000 6809.36423 6550.00000 0.00015
717 14.74500 7017.18543 6860.00000 0.00015
718 14.76000 7181.29321 7071.00000 0.00014
719 14.77500 7288.48484 7276.00000 0.00014
720 14.79000 7329.72567 7354.00000 0.00014
721 14.80500 7302.22957 7415.00000 0.00013
722 14.82000 7209.71213 7553.00000 0.00013
723 14.83500 7060.90760 7568.00000 0.00013
724 14.85000 6867.29799 7592.00000 0.00013
725 14.86500 6641.02288 7186.00000 0.00014
726 14.88000 6393.44461 6868.00000 0.00015
727 14.89500 6134.38900 6450.00000 0.00016
728 14.91000 5871.87949 6290.00000 0.00016
729 14.92500 5612.16491 5986.00000 0.00017
730 14.94000 5359.89459 5716.00000 0.00017
731 14.95500 5118.35159 5405.00000 0.00019
732 14.97000 4889.69590 4995.00000 0.00020
733 14.98500 4675.19357 4800.00000 0.00021
734 15.00000 4475.42062 4473.00000 0.00022
735 15.01500 4290.43765 4084.00000 0.00024
736 15.03000 4119.93467 3905.00000 0.00026
737 15.04500 3963.34767 3852.00000 0.00026
738 15.06000 3819.94971 3606.00000 0.00028
739 15.07500 3688.92003 3483.00000 0.00029
740 15.09000 3569.39488 3347.00000 0.00030
741 15.10500 3460.50361 3215.00000 0.00031
742 15.12000 3361.39344 3161.00000 0.00032
743 15.13500 3271.24558 2888.00000 0.00035
744 15.15000 3189.28511 2835.00000 0.00035
745 15.16500 3114.78636 2923.00000 0.00034
746 15.18000 3047.07518 2724.00000 0.00037
747 15.19500 2985.52916 2705.00000 0.00037
748 15.21000 2929.57637 2799.00000 0.00036
749 15.22500 2878.69331 2780.00000 0.00036
750 15.24000 2832.40227 2638.00000 0.00038
751 15.25500 2790.26844 2491.00000 0.00040
752 15.27000 2751.89690 2565.00000 0.00039
753 15.28500 2716.92958 2581.00000 0.00039
754 15.30000 2685.04236 2525.00000 0.00040
755 15.31500 2655.94223 2570.00000 0.00039
756 15.33000 2629.36466 2375.00000 0.00042
757 15.34500 2605.07118 2591.00000 0.00039
758 15.36000 2582.84714 2563.00000 0.00039
759 15.37500 2562.49970 2502.00000 0.00040
760 15.39000 2543.85616 2472.00000 0.00040
761 15.40500 2526.76242 2644.00000 0.00038
762 15.42000 2511.08170 2377.00000 0.00042
763 15.43500 2496.69347 2447.00000 0.00041
764 15.45000 2483.49259 2416.00000 0.00041
765 15.46500 2471.38821 2451.00000 0.00041
766 15.48000 2460.30216 2397.00000 0.00042
767 15.49500 2450.16636 2440.00000 0.00041
768 15.51000 2440.91944 2429.00000 0.00041
769 15.52500 2432.50319 2374.00000 0.00042
770 15.54000 2424.86028 2376.00000 0.00042
771 15.55500 2417.93388 2399.00000 0.00042
772 15.57000 2411.66870 2515.00000 0.00040
773 15.58500 2406.01284 2405.00000 0.00042
774 15.60000 2400.91930 2451.00000 0.00041
775 15.61500 2396.34758 2548.00000 0.00039
776 15.63000 2392.26939 2354.00000 0.00042
777 15.64500 2388.64479 2269.00000 0.00044
778 15.66000 2385.43268 2312.00000 0.00043
779 15.67500 2382.61121 2415.00000 0.00041
780 15.69000 2380.16253 2367.00000 0.00042
781 15.70500 2378.07243 2451.00000 0.00041
782 15.72000 2376.33001 2427.00000 0.00041
783 15.73500 2374.92737 2414.00000 0.00041
784 15.75000 2373.85941 2430.00000 0.00041
785 15.76500 2373.12361 2428.00000 0.00041
786 15.78000 2372.71996 2320.00000 0.00043
787 15.79500 2372.65086 2326.00000 0.00043
788 15.81000 2372.92114 2367.00000 0.00042
789 15.82500 2373.53802 2401.00000 0.00042
790 15.84000 2374.51129 2299.00000 0.00043
791 15.85500 2375.85335 2324.00000 0.00043
792 15.87000 2377.57944 2439.00000 0.00041
793 15.88500 2379.70789 2345.00000 0.00043
794 15.90000 2382.26038 2449.00000 0.00041
795 15.91500 2385.26235 2277.00000 0.00044
796 15.93000 2388.74348 2336.00000 0.00043
797 15.94500 2392.73826 2443.00000 0.00041
798 15.96000 2397.28669 2387.00000 0.00042
799 15.97500 2402.43526 2370.00000 0.00042
800 15.99000 2408.23798 2398.00000 0.00042
801 16.00500 2414.75792 2331.00000 0.00043
802 16.02000 2422.06888 2292.00000 0.00044
803 16.03500 2430.25768 2435.00000 0.00041
804 16.05000 2439.42683 2419.00000 0.00041
805 16.06500 2449.69789 2342.00000 0.00043
806 16.08000 2461.21549 2465.00000 0.00041
807 16.09500 2474.15200 2480.00000 0.00040
808 16.11000 2488.71308 2420.00000 0.00041
809 16.12500 2505.14383 2487.00000 0.00040
810 16.14000 2523.73552 2301.00000 0.00043
811 16.15500 2544.83246 2388.00000 0.00042
812 16.17000 2568.83834 2410.00000 0.00041
813 16.18500 2596.22031 2327.00000 0.00043
814 16.20000 2627.50814 2396.00000 0.00042
815 16.21500 2663.29201 2439.00000 0.00041
816 16.23000 2704.19830 2380.00000 0.00042
817 16.24500 2750.85703 2414.00000 0.00041
818 16.26000 2803.85987 2424.00000 0.00041
819 16.27500 2863.71955 2475.00000 0.00040
820 16.29000 2930.84821 2564.00000 0.00039
821 16.30500 3005.56552 2527.00000 0.00040
822 16.32000 3088.13353 2654.00000 0.00038
823 16.33500 3178.80412 2766.00000 0.00036
824 16.35000 3277.86465 2686.00000 0.00037
825 16.36500 3385.67396 2908.00000 0.00034
826 16.38000 3502.68716 2803.00000 0.00036
827 16.39500 3629.47042 3014.00000 0.00033
828 16.41000 3766.70627 2991.00000 0.00033
829 16.42500 3915.18854 3232.00000 0.00031
830 16.44000 4075.80349 3363.00000 0.00030
831 16.45500 4249.49173 3544.00000 0.00028
832 16.47000 4437.18415 3764.00000 0.00027
833 16.48500 4639.70293 4018.00000 0.00025
834 16.50000 4857.61779 4456.00000 0.00022
835 16.51500 5091.04519 4647.00000 0.00022
836 16.53000 5339.37505 5327.00000 0.00019
837 16.54500 5600.89370 5786.00000 0.00017
838 16.56000 5872.29141 6326.00000 0.00016
839 16.57500 6148.00375 7007.00000 0.00014
840 16.59000 6419.36871 7962.00000 0.00013
841 16.60500 6673.66554 8568.00000 0.00012
842 16.62000 6893.29949 8540.00000 0.00012
843 16.63500 7055.79142 8614.00000 0.00012
844 16.65000 7135.71200 8764.00000 0.00011
845 16.66500 7109.73218 8468.00000 0.00012
846 16.68000 6964.55594 7973.00000 0.00013
847 16.69500 6704.44609 7243.00000 0.00014
848 16.71000 6352.96540 6662.00000 0.00015
849 16.72500 5946.35087 6177.00000 0.00016
850 16.74000 5522.30992 5447.00000 0.00018
851 16.75500 5110.96707 4871.00000 0.00021
852 16.77000 4731.44981 4499.00000 0.00022
853 16.78500 4393.02280 3992.00000 0.00025
854 16.80000 4098.03348 3781.00000 0.00026
855 16.81500 3844.74587 3489.00000 0.00029
856 16.83000 3629.37343 3355.00000 0.00030
857 16.84500 3447.32955 3125.00000 0.00032
858 16.86000 3293.92714 3043.00000 0.00033
859 16.87500 3164.74373 2792.00000 0.00036
860 16.89000 3055.79678 2884.00000 0.00035
861 16.90500 2963.61298 2736.00000 0.00037
862 16.92000 2885.23643 2700.00000 0.00037
863 16.93500 2818.20117 2686.00000 0.00037
864 16.95000 2760.48311 2677.00000 0.00037
865 16.96500 2710.44165 2546.00000 0.00039
866 16.98000 2666.75863 2491.00000 0.00040
867 16.99500 2628.37993 2484.00000 0.00040
868 17.01000 2594.46303 2435.00000 0.00041
869 17.02500 2564.33236 2531.00000 0.00040
870 17.04000 2537.44271 2498.00000 0.00040
871 17.05500 2513.35024 2413.00000 0.00041
872 17.07000 2491.69008 2533.00000 0.00039
873 17.08500 2472.15927 2492.00000 0.00040
874 17.10000 2454.50381 2524.00000 0.00040
875 17.11500 2438.50893 2411.00000 0.00041
876 17.13000 2423.99164 2350.00000 0.00043
877 17.14500 2410.79493 2445.00000 0.00041
878 17.16000 2398.78307 2406.00000 0.00042
879 17.17500 2387.83761 2505.00000 0.00040
880 17.19000 2377.85323 2299.00000 0.00043
881 17.20500 2368.73099 2398.00000 0.00042
882 17.22000 2360.35479 2391.00000 0.00042
883 17.23500 2352.69831 2389.00000 0.00042
884 17.25000 2345.82559 2393.00000 0.00042
885 17.26500 2339.67072 2406.00000 0.00042
886 17.28000 2334.17401 2343.00000 0.00043
887 17.29500 2329.28765 2332.00000 0.00043
888 17.31000 2324.97342 2412.00000 0.00041
889 17.32500 2321.20110 2475.00000 0.00040
890 17.34000 2317.94726 2414.00000 0.00041
891 17.35500 2315.19445 2467.00000 0.00041
892 17.37000 2312.93068 2396.00000 0.00042
893 17.38500 2311.14905 2464.00000 0.00041
894 17.40000 2309.84760 2372.00000 0.00042
895 17.41500 2309.02939 2336.00000 0.00043
896 17.43000 2308.70261 2461.00000 0.00041
897 17.44500 2308.88101 2500.00000 0.00040
898 17.46000 2309.58446 2377.00000 0.00042
899 17.47500 2310.83971 2344.00000 0.00043
900 17.49000 2312.68142 2385.00000 0.00042
901 17.50500 2315.15344 2344.00000 0.00043
902 17.52000 2318.31046 2400.00000 0.00042
903 17.53500 2322.21979 2391.00000 0.00042
904 17.55000 2326.96363 2394.00000 0.00042
905 17.56500 2332.64178 2633.00000 0.00038
906 17.58000 2339.37435 2517.00000 0.00040
907 17.59500 2347.30460 2466.00000 0.00041
908 17.61000 2356.60158 2448.00000 0.00041
909 17.62500 2367.46189 2381.00000 0.00042
910 17.64000 2380.10968 2376.00000 0.00042
911 17.65500 2394.79363 2509.00000 0.00040
912 17.67000 2411.77993 2486.00000 0.00040
913 17.68500 2431.34126 2503.00000 0.00040
914 17.70000 2453.74405 2502.00000 0.00040
915 17.71500 2479.23804 2644.00000 0.00038
916 17.73000 2508.05252 2599.00000 0.00038
917 17.74500 2540.40093 2635.00000 0.00038
918 17.76000 2576.49196 2624.00000 0.00038
919 17.77500 2616.54311 2661.00000 0.00038
920 17.79000 2660.79275 2651.00000 0.00038
921 17.80500 2709.50782 2688.00000 0.00037
922 17.82000 2762.98594 2844.00000 0.00035
923 17.83500 2821.55197 2857.00000 0.00035
924 17.85000 2885.54905 2898.00000 0.00035
925 17.86500 2955.32347 2924.00000 0.00034
926 17.88000 3031.20116 3011.00000 0.00033
927 17.89500 3113.45215 3091.00000 0.00032
928 17.91000 3202.23823 3198.00000 0.00031
929 17.92500 3297.53814 3332.00000 0.00030
930 17.94000 3399.04264 3607.00000 0.00028
931 17.95500 3506.01087 3516.00000 0.00028
932 17.97000 3617.07686 3488.00000 0.00029
933 17.98500 3729.99959 3614.00000 0.00028
934 18.00000 3841.36997 3645.00000 0.00027
935 18.01500 3946.33928 4046.00000 0.00025
936 18.03000 4038.53181 3967.00000 0.00025
937 18.04500 4110.42386 4069.00000 0.00025
938 18.06000 4154.48913 4171.00000 0.00024
939 18.07500 4165.11077 4265.00000 0.00023
940 18.09000 4140.59994 4225.00000 0.00024
941 18.10500 4084.14893 4018.00000 0.00025
942 18.12000 4002.94164 4002.00000 0.00025
943 18.13500 3905.83525 4038.00000 0.00025
944 18.15000 3800.88189 3817.00000 0.00026
945 18.16500 3693.78038 3770.00000 0.00027
946 18.18000 3587.59927 3748.00000 0.00027
947 18.19500 3483.49851 3609.00000 0.00028
948 18.21000 3381.88563 3529.00000 0.00028
949 18.22500 3283.39424 3337.00000 0.00030
950 18.24000 3189.27500 3208.00000 0.00031
951 18.25500 3101.19474 3180.00000 0.00031
952 18.27000 3020.76582 3029.00000 0.00033
953 18.28500 2949.14938 2965.00000 0.00034
954 18.30000 2886.88385 3071.00000 0.00033
955 18.31500 2833.90852 3137.00000 0.00032
956 18.33000 2789.68430 2984.00000 0.00034
957 18.34500 2753.32842 3010.00000 0.00033
958 18.36000 2723.71996 2958.00000 0.00034
959 18.37500 2699.56808 2787.00000 0.00036
960 18.39000 2679.46023 2792.00000 0.00036
961 18.40500 2661.92583 2931.00000 0.00034
962 18.42000 2645.55723 2866.00000 0.00035
963 18.43500 2629.20318 2717.00000 0.00037
964 18.45000 2612.19913 2840.00000 0.00035
965 18.46500 2594.49042 2663.00000 0.00038
966 18.48000 2576.57056 2708.00000 0.00037
967 18.49500 2559.25446 2664.00000 0.00038
968 18.51000 2543.40484 2782.00000 0.00036
969 18.52500 2529.73706 2592.00000 0.00039
970 18.54000 2518.74301 2720.00000 0.00037
971 18.55500 2510.70577 2752.00000 0.00036
972 18.57000 2505.75644 2731.00000 0.00037
973 18.58500 2503.93762 2723.00000 0.00037
974 18.60000 2505.25601 2645.00000 0.00038
975 18.61500 2509.72017 2586.00000 0.00039
976 18.63000 2517.36461 2721.00000 0.00037
977 18.64500 2528.26299 2542.00000 0.00039
978 18.66000 2542.53267 2629.00000 0.00038
979 18.67500 2560.33262 2672.00000 0.00037
980 18.69000 2581.85696 2666.00000 0.00038
981 18.70500 2607.32690 2807.00000 0.00036
982 18.72000 2636.98391 2769.00000 0.00036
983 18.73500 2671.08568 2847.00000 0.00035
984 18.75000 2709.90549 2874.00000 0.00035
985 18.76500 2753.73404 2762.00000 0.00036
986 18.78000 2802.88258 2831.00000 0.00035
987 18.79500 2857.68577 2956.00000 0.00034
988 18.81000 2918.50287 3075.00000 0.00033
989 18.82500 2985.71632 2945.00000 0.00034
990 18.84000 3059.72293 3087.00000 0.00032
991 18.85500 3140.91925 3088.00000 0.00032
992 18.87000 3229.67625 3308.00000 0.00030
993 18.88500 3326.30019 3265.00000 0.00031
994 18.90000 3430.97537 3290.00000 0.00030
995 18.91500 3543.68270 3357.00000 0.00030
996 18.93000 3664.08680 3515.00000 0.00028
997 18.94500 3791.38409 3567.00000 0.00028
998 18.96000 3924.10954 3637.00000 0.00027
999 18.97500 4059.91675 3771.00000 0.00027
1000 18.99000 4195.38497 3989.00000 0.00025
1001 19.00500 4325.96717 4038.00000 0.00025
1002 19.02000 4446.24388 4196.00000 0.00024
1003 19.03500 4550.60491 4317.00000 0.00023
1004 19.05000 4634.27298 4766.00000 0.00021
1005 19.06500 4694.29985 4785.00000 0.00021
1006 19.08000 4730.08129 4866.00000 0.00021
1007 19.09500 4743.20999 4785.00000 0.00021
1008 19.11000 4736.85455 4740.00000 0.00021
1009 19.12500 4715.01624 5022.00000 0.00020
1010 19.14000 4681.92111 5055.00000 0.00020
1011 19.15500 4641.63220 5034.00000 0.00020
1012 19.17000 4597.85582 4864.00000 0.00021
1013 19.18500 4553.88110 5124.00000 0.00020
1014 19.20000 4512.59837 4949.00000 0.00020
1015 19.21500 4476.55908 4834.00000 0.00021
1016 19.23000 4448.05536 4907.00000 0.00020
1017 19.24500 4429.20639 4790.00000 0.00021
1018 19.26000 4422.04417 4767.00000 0.00021
1019 19.27500 4428.59254 4474.00000 0.00022
1020 19.29000 4450.93322 4506.00000 0.00022
1021 19.30500 4491.25026 4731.00000 0.00021
1022 19.32000 4551.84299 4456.00000 0.00022
1023 19.33500 4635.09859 4848.00000 0.00021
1024 19.35000 4743.42446 4578.00000 0.00022
1025 19.36500 4879.15640 4920.00000 0.00020
1026 19.38000 5044.47519 4884.00000 0.00020
1027 19.39500 5241.36591 5040.00000 0.00020
1028 19.41000 5471.63741 5108.00000 0.00020
1029 19.42500 5736.99283 5467.00000 0.00018
1030 19.44000 6039.12390 5687.00000 0.00018
1031 19.45500 6379.79667 5948.00000 0.00017
1032 19.47000 6760.90086 6225.00000 0.00016
1033 19.48500 7184.44063 6607.00000 0.00015
1034 19.50000 7652.44806 7455.00000 0.00013
1035 19.51500 8166.80009 7829.00000 0.00013
1036 19.53000 8728.91650 8350.00000 0.00012
1037 19.54500 9339.30981 9344.00000 0.00011
1038 19.56000 9996.94725 9952.00000 0.00010
1039 19.57500 10698.36939 11026.00000 0.00009
1040 19.59000 11436.49306 11324.00000 0.00009
1041 19.60500 12199.02355 11997.00000 0.00008
1042 19.62000 12966.45513 13053.00000 0.00008
1043 19.63500 13709.83696 13672.00000 0.00007
1044 19.65000 14388.94270 14866.00000 0.00007
1045 19.66500 14952.27093 15242.00000 0.00007
1046 19.68000 15341.06030 15768.00000 0.00006
1047 19.69500 15499.10473 16100.00000 0.00006
1048 19.71000 15387.32370 15712.00000 0.00006
1049 19.72500 14997.41372 15441.00000 0.00006
1050 19.74000 14356.88132 14634.00000 0.00007
1051 19.75500 13522.06218 13696.00000 0.00007
1052 19.77000 12563.20041 12866.00000 0.00008
1053 19.78500 11549.23765 11850.00000 0.00008
1054 19.80000 10537.65868 11140.00000 0.00009
1055 19.81500 9570.42667 9886.00000 0.00010
1056 19.83000 8674.34537 8722.00000 0.00011
1057 19.84500 7863.65467 7646.00000 0.00013
1058 19.86000 7143.24557 7219.00000 0.00014
1059 19.87500 6511.63105 6340.00000 0.00016
1060 19.89000 5963.34589 5823.00000 0.00017
1061 19.90500 5490.73648 5446.00000 0.00018
1062 19.92000 5085.21969 4855.00000 0.00021
1063 19.93500 4738.12007 4606.00000 0.00022
1064 19.95000 4441.18906 4262.00000 0.00023
1065 19.96500 4186.89529 4045.00000 0.00025
1066 19.98000 3968.55940 3851.00000 0.00026
1067 19.99500 3780.38930 3574.00000 0.00028
1068 20.01000 3617.45316 3503.00000 0.00029
1069 20.02500 3475.61378 3301.00000 0.00030
1070 20.04000 3351.44013 3326.00000 0.00030
1071 20.05500 3242.10928 3258.00000 0.00031
1072 20.07000 3145.30898 3078.00000 0.00032
1073 20.08500 3059.14778 2911.00000 0.00034
1074 20.10000 2982.07655 2838.00000 0.00035
1075 20.11500 2912.82238 2858.00000 0.00035
1076 20.13000 2850.33406 2733.00000 0.00037
1077 20.14500 2793.73803 2759.00000 0.00036
1078 20.16000 2742.30191 2596.00000 0.00039
1079 20.17500 2695.40662 2610.00000 0.00038
1080 20.19000 2652.52525 2606.00000 0.00038
1081 20.20500 2613.20583 2582.00000 0.00039
1082 20.22000 2577.05859 2609.00000 0.00038
1083 20.23500 2543.74590 2446.00000 0.00041
1084 20.25000 2512.97422 2541.00000 0.00039
1085 20.26500 2484.48759 2429.00000 0.00041
1086 20.28000 2458.06207 2371.00000 0.00042
1087 20.29500 2433.50126 2521.00000 0.00040
1088 20.31000 2410.63245 2341.00000 0.00043
1089 20.32500 2389.30349 2462.00000 0.00041
1090 20.34000 2369.38009 2288.00000 0.00044
1091 20.35500 2350.74364 2432.00000 0.00041
1092 20.37000 2333.28914 2317.00000 0.00043
1093 20.38500 2316.92385 2357.00000 0.00042
1094 20.40000 2301.56586 2337.00000 0.00043
1095 20.41500 2287.14295 2362.00000 0.00042
1096 20.43000 2273.59159 2240.00000 0.00045
1097 20.44500 2260.85596 2295.00000 0.00044
1098 20.46000 2248.88716 2249.00000 0.00044
1099 20.47500 2237.64227 2254.00000 0.00044
1100 20.49000 2227.08359 2309.00000 0.00043
1101 20.50500 2217.17791 2269.00000 0.00044
1102 20.52000 2207.89589 2186.00000 0.00046
1103 20.53500 2199.21160 2329.00000 0.00043
1104 20.55000 2191.10223 2367.00000 0.00042
1105 20.56500 2183.54780 2355.00000 0.00042
1106 20.58000 2176.53096 2197.00000 0.00046
1107 20.59500 2170.03661 2243.00000 0.00045
1108 20.61000 2164.05152 2178.00000 0.00046
1109 20.62500 2158.56366 2202.00000 0.00045
1110 20.64000 2153.56124 2168.00000 0.00046
1111 20.65500 2149.03139 2150.00000 0.00047
1112 20.67000 2144.95828 2200.00000 0.00045
1113 20.68500 2141.32053 2200.00000 0.00045
1114 20.70000 2138.08774 2201.00000 0.00045
1115 20.71500 2135.21595 2276.00000 0.00044
1116 20.73000 2132.64204 2117.00000 0.00047
1117 20.74500 2130.27811 2185.00000 0.00046
1118 20.76000 2128.00765 2163.00000 0.00046
1119 20.77500 2125.68752 2144.00000 0.00047
1120 20.79000 2123.15993 2258.00000 0.00044
1121 20.80500 2120.27551 2193.00000 0.00046
1122 20.82000 2116.92141 2270.00000 0.00044
1123 20.83500 2113.04468 2186.00000 0.00046
1124 20.85000 2108.65532 2195.00000 0.00046
1125 20.86500 2103.81451 2241.00000 0.00045
1126 20.88000 2098.61469 2185.00000 0.00046
1127 20.89500 2093.15995 2201.00000 0.00045
1128 20.91000 2087.55190 2214.00000 0.00045
1129 20.92500 2081.88160 2257.00000 0.00044
1130 20.94000 2076.22614 2230.00000 0.00045
1131 20.95500 2070.64806 2185.00000 0.00046
1132 20.97000 2065.19634 2172.00000 0.00046
1133 20.98500 2059.90806 2218.00000 0.00045
1134 21.00000 2054.81032 2194.00000 0.00046
1135 21.01500 2049.92216 2205.00000 0.00045
1136 21.03000 2045.25628 2237.00000 0.00045
1137 21.04500 2040.82062 2121.00000 0.00047
1138 21.06000 2036.61977 2216.00000 0.00045
1139 21.07500 2032.65611 2105.00000 0.00048
1140 21.09000 2028.93081 2086.00000 0.00048
1141 21.10500 2025.44469 2105.00000 0.00048
1142 21.12000 2022.19896 2114.00000 0.00047
1143 21.13500 2019.19582 2107.00000 0.00047
1144 21.15000 2016.43911 2176.00000 0.00046
1145 21.16500 2013.93482 1982.00000 0.00050
1146 21.18000 2011.69171 2129.00000 0.00047
1147 21.19500 2009.72184 2120.00000 0.00047
1148 21.21000 2008.04122 2130.00000 0.00047
1149 21.22500 2006.67039 2048.00000 0.00049
1150 21.24000 2005.63505 2012.00000 0.00050
1151 21.25500 2004.96668 2110.00000 0.00047
1152 21.27000 2004.70298 2163.00000 0.00046
1153 21.28500 2004.88822 2150.00000 0.00047
1154 21.30000 2005.57314 1983.00000 0.00050
1155 21.31500 2006.81455 2088.00000 0.00048
1156 21.33000 2008.67413 2031.00000 0.00049
1157 21.34500 2011.21666 2050.00000 0.00049
1158 21.36000 2014.50751 1977.00000 0.00051
1159 21.37500 2018.60987 2122.00000 0.00047
1160 21.39000 2023.58225 2175.00000 0.00046
1161 21.40500 2029.47675 2124.00000 0.00047
1162 21.42000 2036.33842 2046.00000 0.00049
1163 21.43500 2044.20506 2055.00000 0.00049
1164 21.45000 2053.10645 2094.00000 0.00048
1165 21.46500 2063.06179 2060.00000 0.00049
1166 21.48000 2074.07442 2217.00000 0.00045
1167 21.49500 2086.12343 2097.00000 0.00048
1168 21.51000 2099.15172 2069.00000 0.00048
1169 21.52500 2113.05027 2120.00000 0.00047
1170 21.54000 2127.63835 2089.00000 0.00048
1171 21.55500 2142.64011 2162.00000 0.00046
1172 21.57000 2157.65879 2130.00000 0.00047
1173 21.58500 2172.15136 2114.00000 0.00047
1174 21.60000 2185.40947 2105.00000 0.00048
1175 21.61500 2196.55672 2036.00000 0.00049
1176 21.63000 2204.57857 2097.00000 0.00048
1177 21.64500 2208.40522 2095.00000 0.00048
1178 21.66000 2207.06611 2126.00000 0.00047
1179 21.67500 2199.91391 2100.00000 0.00048
1180 21.69000 2186.87037 2054.00000 0.00049
1181 21.70500 2168.58880 2118.00000 0.00047
1182 21.72000 2146.41147 2189.00000 0.00046
1183 21.73500 2122.08385 2087.00000 0.00048
1184 21.75000 2097.34128 2179.00000 0.00046
1185 21.76500 2073.56740 2132.00000 0.00047
1186 21.78000 2051.65011 2098.00000 0.00048
1187 21.79500 2032.01888 2118.00000 0.00047
1188 21.81000 2014.76960 2152.00000 0.00046
1189 21.82500 1999.79538 2070.00000 0.00048
1190 21.84000 1986.88601 2084.00000 0.00048
1191 21.85500 1975.79160 2090.00000 0.00048
1192 21.87000 1966.25893 2131.00000 0.00047
1193 21.88500 1958.05073 2132.00000 0.00047
1194 21.90000 1950.95438 2095.00000 0.00048
1195 21.91500 1944.78510 2144.00000 0.00047
1196 21.93000 1939.38596 1937.00000 0.00052
1197 21.94500 1934.62607 1990.00000 0.00050
1198 21.96000 1930.39783 1999.00000 0.00050
1199 21.97500 1926.61379 2028.00000 0.00049
1200 21.99000 1923.20346 2042.00000 0.00049
1201 22.00500 1920.11021 1953.00000 0.00051
1202 22.02000 1917.28862 2036.00000 0.00049
1203 22.03500 1914.70217 1992.00000 0.00050
1204 22.05000 1912.32136 2035.00000 0.00049
1205 22.06500 1910.12216 1901.00000 0.00053
1206 22.08000 1908.08491 1892.00000 0.00053
1207 22.09500 1906.19336 1961.00000 0.00051
1208 22.11000 1904.43403 1884.00000 0.00053
1209 22.12500 1902.79564 1921.00000 0.00052
1210 22.14000 1901.26877 1997.00000 0.00050
1211 22.15500 1899.84553 1946.00000 0.00051
1212 22.17000 1898.51929 1974.00000 0.00051
1213 22.18500 1897.28455 1955.00000 0.00051
1214 22.20000 1896.13677 1891.00000 0.00053
1215 22.21500 1895.07221 1962.00000 0.00051
1216 22.23000 1894.08793 1862.00000 0.00054
1217 22.24500 1893.18160 1891.00000 0.00053
1218 22.26000 1892.35154 1945.00000 0.00051
1219 22.27500 1891.59667 2070.00000 0.00048
1220 22.29000 1890.91629 1917.00000 0.00052
1221 22.30500 1890.31021 1950.00000 0.00051
1222 22.32000 1889.77879 1867.00000 0.00054
1223 22.33500 1889.32283 1875.00000 0.00053
1224 22.35000 1888.94364 1940.00000 0.00052
1225 22.36500 1888.64298 1876.00000 0.00053
1226 22.38000 1888.42312 1919.00000 0.00052
1227 22.39500 1888.28682 1904.00000 0.00053
1228 22.41000 1888.23742 2008.00000 0.00050
1229 22.42500 1888.27883 1913.00000 0.00052
1230 22.44000 1888.41563 1883.00000 0.00053
1231 22.45500 1888.65307 1881.00000 0.00053
1232 22.47000 1888.99719 1929.00000 0.00052
1233 22.48500 1889.45489 1928.00000 0.00052
1234 22.50000 1890.03405 1900.00000 0.00053
1235 22.51500 1890.74369 1990.00000 0.00050
1236 22.53000 1891.59414 1939.00000 0.00052
1237 22.54500 1892.59723 1998.00000 0.00050
1238 22.56000 1893.76658 1881.00000 0.00053
1239 22.57500 1895.11787 1792.00000 0.00056
1240 22.59000 1896.66926 1906.00000 0.00052
1241 22.60500 1898.44179 1926.00000 0.00052
1242 22.62000 1900.45985 1933.00000 0.00052
1243 22.63500 1902.75082 1917.00000 0.00052
1244 22.65000 1905.34867 1873.00000 0.00053
1245 22.66500 1908.29785 2025.00000 0.00049
1246 22.68000 1911.64723 1897.00000 0.00053
1247 22.69500 1915.45490 1968.00000 0.00051
1248 22.71000 1919.78995 1914.00000 0.00052
1249 22.72500 1924.73428 1850.00000 0.00054
1250 22.74000 1930.38440 1861.00000 0.00054
1251 22.75500 1936.85319 1962.00000 0.00051
1252 22.77000 1944.27091 2101.00000 0.00048
1253 22.78500 1952.78533 1939.00000 0.00052
1254 22.80000 1962.56050 2055.00000 0.00049
1255 22.81500 1973.77401 1952.00000 0.00051
1256 22.83000 1986.61355 2092.00000 0.00048
1257 22.84500 2001.27350 2064.00000 0.00048
1258 22.86000 2017.95195 2049.00000 0.00049
1259 22.87500 2036.84868 2124.00000 0.00047
1260 22.89000 2058.16437 2149.00000 0.00047
1261 22.90500 2082.08819 2212.00000 0.00045
1262 22.92000 2108.80328 2166.00000 0.00046
1263 22.93500 2138.48080 2104.00000 0.00048
1264 22.95000 2171.25555 2252.00000 0.00044
1265 22.96500 2207.20877 2190.00000 0.00046
1266 22.98000 2246.33726 2345.00000 0.00043
1267 22.99500 2288.51008 2400.00000 0.00042
1268 23.01000 2333.40983 2452.00000 0.00041
1269 23.02500 2380.45855 2494.00000 0.00040
1270 23.04000 2428.73518 2540.00000 0.00039
1271 23.05500 2476.90771 2529.00000 0.00040
1272 23.07000 2523.22516 2460.00000 0.00041
1273 23.08500 2565.62919 2673.00000 0.00037
1274 23.10000 2602.01976 2625.00000 0.00038
1275 23.11500 2630.62683 2599.00000 0.00038
1276 23.13000 2650.34600 2720.00000 0.00037
1277 23.14500 2660.88883 2714.00000 0.00037
1278 23.16000 2662.70564 2681.00000 0.00037
1279 23.17500 2656.76158 2539.00000 0.00039
1280 23.19000 2644.28486 2562.00000 0.00039
1281 23.20500 2626.56564 2545.00000 0.00039
1282 23.22000 2604.82782 2530.00000 0.00040
1283 23.23500 2580.16245 2483.00000 0.00040
1284 23.25000 2553.50266 2523.00000 0.00040
1285 23.26500 2525.62250 2489.00000 0.00040
1286 23.28000 2497.14809 2374.00000 0.00042
1287 23.29500 2468.57436 2361.00000 0.00042
1288 23.31000 2440.28337 2280.00000 0.00044
1289 23.32500 2412.56253 2416.00000 0.00041
1290 23.34000 2385.62153 2326.00000 0.00043
1291 23.35500 2359.60754 2296.00000 0.00044
1292 23.37000 2334.61846 2346.00000 0.00043
1293 23.38500 2310.71420 2382.00000 0.00042
1294 23.40000 2287.92604 2382.00000 0.00042
1295 23.41500 2266.26440 2363.00000 0.00042
1296 23.43000 2245.72520 2126.00000 0.00047
1297 23.44500 2226.29532 2195.00000 0.00046
1298 23.46000 2207.95744 2243.00000 0.00045
1299 23.47500 2190.69466 2310.00000 0.00043
1300 23.49000 2174.49526 2185.00000 0.00046
1301 23.50500 2159.35801 2197.00000 0.00046
1302 23.52000 2145.29840 2099.00000 0.00048
1303 23.53500 2132.35614 2090.00000 0.00048
1304 23.55000 2120.60429 2024.00000 0.00049
1305 23.56500 2110.15970 2019.00000 0.00050
1306 23.58000 2101.19379 2052.00000 0.00049
1307 23.59500 2093.94090 2017.00000 0.00050
1308 23.61000 2088.70000 1994.00000 0.00050
1309 23.62500 2085.82352 2085.00000 0.00048
1310 23.64000 2085.69446 2089.00000 0.00048
1311 23.65500 2088.70305 2019.00000 0.00050
1312 23.67000 2095.22095 2069.00000 0.00048
1313 23.68500 2105.58895 2058.00000 0.00049
1314 23.70000 2120.11577 2091.00000 0.00048
1315 23.71500 2139.08284 2131.00000 0.00047
1316 23.73000 2162.74968 2041.00000 0.00049
1317 23.74500 2191.35585 2200.00000 0.00045
1318 23.76000 2225.11694 2147.00000 0.00047
1319 23.77500 2264.21235 2214.00000 0.00045
1320 23.79000 2308.76258 2254.00000 0.00044
1321 23.80500 2358.79290 2277.00000 0.00044
1322 23.82000 2414.17951 2497.00000 0.00040
1323 23.83500 2474.57285 2344.00000 0.00043
1324 23.85000 2539.29303 2434.00000 0.00041
1325 23.86500 2607.19578 2489.00000 0.00040
1326 23.88000 2676.51950 2588.00000 0.00039
1327 23.89500 2744.75169 2556.00000 0.00039
1328 23.91000 2808.59633 2651.00000 0.00038
1329 23.92500 2864.16038 2704.00000 0.00037
1330 23.94000 2907.44978 2751.00000 0.00036
1331 23.95500 2935.11636 2823.00000 0.00035
1332 23.97000 2945.18801 2885.00000 0.00035
1333 23.98500 2937.44267 2817.00000 0.00035
1334 24.00000 2913.27574 2900.00000 0.00034
1335 24.01500 2875.19930 2806.00000 0.00036
1336 24.03000 2826.24574 2761.00000 0.00036
1337 24.04500 2769.48124 2648.00000 0.00038
1338 24.06000 2707.69997 2633.00000 0.00038
1339 24.07500 2643.27741 2534.00000 0.00039
1340 24.09000 2578.13124 2613.00000 0.00038
1341 24.10500 2513.74291 2399.00000 0.00042
1342 24.12000 2451.20769 2345.00000 0.00043
1343 24.13500 2391.29482 2257.00000 0.00044
1344 24.15000 2334.50745 2264.00000 0.00044
1345 24.16500 2281.13785 2194.00000 0.00046
1346 24.18000 2231.31403 2157.00000 0.00046
1347 24.19500 2185.05076 2058.00000 0.00049
1348 24.21000 2142.27831 2039.00000 0.00049
1349 24.22500 2102.86116 1961.00000 0.00051
1350 24.24000 2066.62576 1954.00000 0.00051
1351 24.25500 2033.37659 1949.00000 0.00051
1352 24.27000 2002.90803 1856.00000 0.00054
1353 24.28500 1975.01271 1846.00000 0.00054
1354 24.30000 1949.48728 1805.00000 0.00055
1355 24.31500 1926.13629 1871.00000 0.00053
1356 24.33000 1904.77464 1767.00000 0.00057
1357 24.34500 1885.22889 1719.00000 0.00058
1358 24.36000 1867.33800 1867.00000 0.00054
1359 24.37500 1850.95341 1760.00000 0.00057
1360 24.39000 1835.93880 1818.00000 0.00055
1361 24.40500 1822.16961 1727.00000 0.00058
1362 24.42000 1809.53293 1742.00000 0.00057
1363 24.43500 1797.92910 1694.00000 0.00059
1364 24.45000 1787.24116 1720.00000 0.00058
1365 24.46500 1777.38659 1785.00000 0.00056
1366 24.48000 1768.28942 1684.00000 0.00059
1367 24.49500 1759.87514 1653.00000 0.00060
1368 24.51000 1752.07565 1719.00000 0.00058
1369 24.52500 1744.82881 1740.00000 0.00057
1370 24.54000 1738.07795 1673.00000 0.00060
1371 24.55500 1731.77159 1595.00000 0.00063
1372 24.57000 1725.86344 1634.00000 0.00061
1373 24.58500 1720.31279 1666.00000 0.00060
1374 24.60000 1715.08516 1681.00000 0.00059
1375 24.61500 1710.15302 1669.00000 0.00060
1376 24.63000 1705.49579 1617.00000 0.00062
1377 24.64500 1701.09869 1601.00000 0.00062
1378 24.66000 1696.95075 1613.00000 0.00062
1379 24.67500 1693.04240 1653.00000 0.00060
1380 24.69000 1689.36356 1584.00000 0.00063
1381 24.70500 1685.90262 1611.00000 0.00062
1382 24.72000 1682.64636 1633.00000 0.00061
1383 24.73500 1679.58050 1641.00000 0.00061
1384 24.75000 1676.69055 1591.00000 0.00063
1385 24.76500 1673.96248 1601.00000 0.00062
1386 24.78000 1671.38330 1650.00000 0.00061
1387 24.79500 1668.94124 1574.00000 0.00064
1388 24.81000 1666.62587 1668.00000 0.00060
1389 24.82500 1664.42808 1611.00000 0.00062
1390 24.84000 1662.33997 1560.00000 0.00064
1391 24.85500 1660.35471 1608.00000 0.00062
1392 24.87000 1658.46651 1695.00000 0.00059
1393 24.88500 1656.67039 1536.00000 0.00065
1394 24.90000 1654.96218 1548.00000 0.00065
1395 24.91500 1653.33837 1555.00000 0.00064
1396 24.93000 1651.79601 1615.00000 0.00062
1397 24.94500 1650.33271 1557.00000 0.00064
1398 24.96000 1648.94651 1486.00000 0.00067
1399 24.97500 1647.63585 1586.00000 0.00063
1400 24.99000 1646.39956 1527.00000 0.00065
1401 25.00500 1645.23674 1634.00000 0.00061
1402 25.02000 1644.14681 1573.00000 0.00064
1403 25.03500 1643.12938 1576.00000 0.00063
1404 25.05000 1642.18421 1482.00000 0.00067
1405 25.06500 1641.31107 1611.00000 0.00062
1406 25.08000 1640.50929 1661.00000 0.00060
1407 25.09500 1639.77583 1565.00000 0.00064
1408 25.11000 1639.10648 1542.00000 0.00065
1409 25.12500 1638.51997 1523.00000 0.00066
1410 25.14000 1638.02403 1512.00000 0.00066
1411 25.15500 1637.62013 1548.00000 0.00065
1412 25.17000 1637.31018 1584.00000 0.00063
1413 25.18500 1637.09658 1495.00000 0.00067
1414 25.20000 1636.98219 1520.00000 0.00066
1415 25.21500 1636.97034 1514.00000 0.00066
1416 25.23000 1637.06485 1499.00000 0.00067
1417 25.24500 1637.27004 1566.00000 0.00064
1418 25.26000 1637.59078 1578.00000 0.00063
1419 25.27500 1638.03251 1524.00000 0.00066
1420 25.29000 1638.60125 1470.00000 0.00068
1421 25.30500 1639.30372 1536.00000 0.00065
1422 25.32000 1640.14731 1522.00000 0.00066
1423 25.33500 1641.14019 1516.00000 0.00066
1424 25.35000 1642.29136 1588.00000 0.00063
1425 25.36500 1643.61075 1588.00000 0.00063
1426 25.38000 1645.10929 1599.00000 0.00063
1427 25.39500 1646.79904 1553.00000 0.00064
1428 25.41000 1648.69334 1573.00000 0.00064
1429 25.42500 1650.80688 1610.00000 0.00062
1430 25.44000 1653.15594 1621.00000 0.00062
1431 25.45500 1655.75851 1645.00000 0.00061
1432 25.47000 1658.63451 1661.00000 0.00060
1433 25.48500 1661.80605 1728.00000 0.00058
1434 25.50000 1665.29772 1679.00000 0.00060
1435 25.51500 1669.13688 1775.00000 0.00056
1436 25.53000 1673.35408 1651.00000 0.00061
1437 25.54500 1677.98349 1649.00000 0.00061
1438 25.56000 1683.06341 1624.00000 0.00062
1439 25.57500 1688.63689 1628.00000 0.00061
1440 25.59000 1694.75261 1637.00000 0.00061
1441 25.60500 1701.46568 1536.00000 0.00065
1442 25.62000 1708.83865 1575.00000 0.00063
1443 25.63500 1716.94289 1644.00000 0.00061
1444 25.65000 1725.86020 1608.00000 0.00062
1445 25.66500 1735.68493 1646.00000 0.00061
1446 25.68000 1746.52624 1582.00000 0.00063
1447 25.69500 1758.51037 1689.00000 0.00059
1448 25.71000 1771.78604 1665.00000 0.00060
1449 25.72500 1786.52838 1624.00000 0.00062
1450 25.74000 1802.94462 1727.00000 0.00058
1451 25.75500 1821.28115 1719.00000 0.00058
1452 25.77000 1841.83203 1733.00000 0.00058
1453 25.78500 1864.94882 1778.00000 0.00056
1454 25.80000 1891.05290 1877.00000 0.00053
1455 25.81500 1920.64887 1867.00000 0.00054
1456 25.83000 1954.33954 1905.00000 0.00052
1457 25.84500 1992.84132 1956.00000 0.00051
1458 25.86000 2036.99828 2082.00000 0.00048
1459 25.87500 2087.79194 2069.00000 0.00048
1460 25.89000 2146.34257 2163.00000 0.00046
1461 25.90500 2213.89827 2206.00000 0.00045
1462 25.92000 2291.80944 2215.00000 0.00045
1463 25.93500 2381.48997 2406.00000 0.00042
1464 25.95000 2484.37221 2572.00000 0.00039
1465 25.96500 2601.85919 2615.00000 0.00038
1466 25.98000 2735.27535 2891.00000 0.00035
1467 25.99500 2885.81097 3045.00000 0.00033
1468 26.01000 3054.44953 3394.00000 0.00029
1469 26.02500 3241.86362 3285.00000 0.00030
1470 26.04000 3448.26249 3420.00000 0.00029
1471 26.05500 3673.17225 3860.00000 0.00026
1472 26.07000 3915.12719 4030.00000 0.00025
1473 26.08500 4171.25733 4377.00000 0.00023
1474 26.10000 4436.78288 4483.00000 0.00022
1475 26.11500 4704.49472 4806.00000 0.00021
1476 26.13000 4964.42475 5011.00000 0.00020
1477 26.14500 5204.06177 5360.00000 0.00019
1478 26.16000 5409.50775 5636.00000 0.00018
1479 26.17500 5567.66141 5818.00000 0.00017
1480 26.19000 5668.85689 5713.00000 0.00018
1481 26.20500 5708.83991 5929.00000 0.00017
1482 26.22000 5689.18904 6055.00000 0.00017
1483 26.23500 5616.19640 6114.00000 0.00016
1484 26.25000 5498.97740 5707.00000 0.00018
1485 26.26500 5347.64554 5624.00000 0.00018
1486 26.28000 5171.99835 5294.00000 0.00019
1487 26.29500 4980.77141 5108.00000 0.00020
1488 26.31000 4781.32679 4719.00000 0.00021
1489 26.32500 4579.61165 4432.00000 0.00023
1490 26.34000 4380.26013 4303.00000 0.00023
1491 26.35500 4186.75815 3970.00000 0.00025
1492 26.37000 4001.62590 3791.00000 0.00026
1493 26.38500 3826.59485 3766.00000 0.00027
1494 26.40000 3662.76888 3438.00000 0.00029
1495 26.41500 3510.75729 3280.00000 0.00030
1496 26.43000 3370.79115 3311.00000 0.00030
1497 26.44500 3242.82229 3228.00000 0.00031
1498 26.46000 3126.58983 2967.00000 0.00034
1499 26.47500 3021.67338 3197.00000 0.00031
1500 26.49000 2927.53142 3007.00000 0.00033
1501 26.50500 2843.52773 2938.00000 0.00034
1502 26.52000 2768.94859 2815.00000 0.00036
1503 26.53500 2703.01226 2772.00000 0.00036
1504 26.55000 2644.87198 2920.00000 0.00034
1505 26.56500 2593.61290 2812.00000 0.00036
1506 26.58000 2548.24727 2770.00000 0.00036
1507 26.59500 2507.70849 2704.00000 0.00037
1508 26.61000 2470.84920 2584.00000 0.00039
1509 26.62500 2436.44940 2611.00000 0.00038
1510 26.64000 2403.24241 2623.00000 0.00038
1511 26.65500 2369.96947 2559.00000 0.00039
1512 26.67000 2335.47303 2513.00000 0.00040
1513 26.68500 2298.83478 2330.00000 0.00043
1514 26.70000 2259.54973 2253.00000 0.00044
1515 26.71500 2217.69691 2329.00000 0.00043
1516 26.73000 2174.03199 2262.00000 0.00044
1517 26.74500 2129.91890 2135.00000 0.00047
1518 26.76000 2087.07535 2132.00000 0.00047
1519 26.77500 2047.21761 2049.00000 0.00049
1520 26.79000 2011.76024 2056.00000 0.00049
1521 26.80500 1981.68134 2021.00000 0.00049
1522 26.82000 1957.55015 2033.00000 0.00049
1523 26.83500 1939.64019 1986.00000 0.00050
1524 26.85000 1928.05165 1910.00000 0.00052
1525 26.86500 1922.80426 1964.00000 0.00051
1526 26.88000 1923.89359 1964.00000 0.00051
1527 26.89500 1931.31803 1960.00000 0.00051
1528 26.91000 1945.08587 1937.00000 0.00052
1529 26.92500 1965.20858 1963.00000 0.00051
1530 26.94000 1991.68256 1973.00000 0.00051
1531 26.95500 2024.45830 2084.00000 0.00048
1532 26.97000 2063.39410 2078.00000 0.00048
1533 26.98500 2108.18995 2208.00000 0.00045
1534 27.00000 2158.29800 2134.00000 0.00047
1535 27.01500 2212.80933 2159.00000 0.00046
1536 27.03000 2270.32462 2162.00000 0.00046
1537 27.04500 2328.82460 2316.00000 0.00043
1538 27.06000 2385.84519 2328.00000 0.00043
1539 27.07500 2438.31916 2517.00000 0.00040
1540 27.09000 2483.01623 2501.00000 0.00040
1541 27.10500 2517.20406 2529.00000 0.00040
1542 27.12000 2539.09140 2619.00000 0.00038
1543 27.13500 2548.08304 2551.00000 0.00039
1544 27.15000 2544.69852 2688.00000 0.00037
1545 27.16500 2530.25741 2587.00000 0.00039
1546 27.18000 2506.50531 2636.00000 0.00038
1547 27.19500 2475.30556 2586.00000 0.00039
1548 27.21000 2438.43776 2568.00000 0.00039
1549 27.22500 2397.49083 2641.00000 0.00038
1550 27.24000 2353.82113 2392.00000 0.00042
1551 27.25500 2308.54879 2390.00000 0.00042
1552 27.27000 2262.57395 2330.00000 0.00043
1553 27.28500 2216.60187 2289.00000 0.00044
1554 27.30000 2171.17092 2119.00000 0.00047
1555 27.31500 2126.68016 2070.00000 0.00048
1556 27.33000 2083.41517 2185.00000 0.00046
1557 27.34500 2041.57122 2161.00000 0.00046
1558 27.36000 2001.27372 2057.00000 0.00049
1559 27.37500 1962.59591 1935.00000 0.00052
1560 27.39000 1925.57387 1894.00000 0.00053
1561 27.40500 1890.21917 1947.00000 0.00051
1562 27.42000 1856.53286 1848.00000 0.00054
1563 27.43500 1824.50763 1839.00000 0.00054
1564 27.45000 1794.13204 1826.00000 0.00055
1565 27.46500 1765.38936 1883.00000 0.00053
1566 27.48000 1738.25363 1726.00000 0.00058
1567 27.49500 1712.68637 1844.00000 0.00054
1568 27.51000 1688.63596 1632.00000 0.00061
1569 27.52500 1666.03997 1644.00000 0.00061
1570 27.54000 1644.82912 1620.00000 0.00062
1571 27.55500 1624.93209 1726.00000 0.00058
1572 27.57000 1606.27743 1576.00000 0.00063
1573 27.58500 1588.79592 1639.00000 0.00061
1574 27.60000 1572.42169 1586.00000 0.00063
1575 27.61500 1557.09275 1588.00000 0.00063
1576 27.63000 1542.75108 1496.00000 0.00067
1577 27.64500 1529.34250 1576.00000 0.00063
1578 27.66000 1516.81638 1587.00000 0.00063
1579 27.67500 1505.12517 1462.00000 0.00068
1580 27.69000 1494.22378 1517.00000 0.00066
1581 27.70500 1484.06879 1479.00000 0.00068
1582 27.72000 1474.61735 1590.00000 0.00063
1583 27.73500 1465.82590 1426.00000 0.00070
1584 27.75000 1457.64853 1430.00000 0.00070
1585 27.76500 1450.03517 1352.00000 0.00074
1586 27.78000 1442.93014 1373.00000 0.00073
1587 27.79500 1436.27173 1327.00000 0.00075
1588 27.81000 1429.99380 1396.00000 0.00072
1589 27.82500 1424.02995 1396.00000 0.00072
1590 27.84000 1418.31927 1416.00000 0.00071
1591 27.85500 1412.81113 1334.00000 0.00075
1592 27.87000 1407.46736 1360.00000 0.00074
1593 27.88500 1402.26155 1300.00000 0.00077
1594 27.90000 1397.17726 1367.00000 0.00073
1595 27.91500 1392.20646 1385.00000 0.00072
1596 27.93000 1387.34832 1379.00000 0.00073
1597 27.94500 1382.60770 1386.00000 0.00072
1598 27.96000 1377.99326 1345.00000 0.00074
1599 27.97500 1373.51539 1390.00000 0.00072
1600 27.99000 1369.18472 1339.00000 0.00075
1601 28.00500 1365.01082 1281.00000 0.00078
1602 28.02000 1361.00054 1343.00000 0.00074
1603 28.03500 1357.16020 1328.00000 0.00075
1604 28.05000 1353.49475 1346.00000 0.00074
1605 28.06500 1350.00804 1318.00000 0.00076
1606 28.08000 1346.70314 1326.00000 0.00075
1607 28.09500 1343.58276 1271.00000 0.00079
1608 28.11000 1340.64962 1282.00000 0.00078
1609 28.12500 1337.90685 1324.00000 0.00076
1610 28.14000 1335.35835 1294.00000 0.00077
1611 28.15500 1333.00918 1321.00000 0.00076
1612 28.17000 1330.86593 1311.00000 0.00076
1613 28.18500 1328.93718 1257.00000 0.00080
1614 28.20000 1327.23397 1348.00000 0.00074
1615 28.21500 1325.77024 1327.00000 0.00075
1616 28.23000 1324.56340 1271.00000 0.00079
1617 28.24500 1323.63471 1266.00000 0.00079
1618 28.26000 1323.00953 1314.00000 0.00076
1619 28.27500 1322.71722 1348.00000 0.00074
1620 28.29000 1322.79068 1213.00000 0.00082
1621 28.30500 1323.26560 1308.00000 0.00076
1622 28.32000 1324.17959 1339.00000 0.00075
1623 28.33500 1325.57158 1323.00000 0.00076
1624 28.35000 1327.48119 1275.00000 0.00078
1625 28.36500 1329.94826 1239.00000 0.00081
1626 28.38000 1333.01187 1350.00000 0.00074
1627 28.39500 1336.70897 1343.00000 0.00074
1628 28.41000 1341.07218 1339.00000 0.00075
1629 28.42500 1346.12672 1314.00000 0.00076
1630 28.44000 1351.88597 1383.00000 0.00072
1631 28.45500 1358.34356 1377.00000 0.00073
1632 28.47000 1365.48661 1379.00000 0.00073
1633 28.48500 1373.29024 1367.00000 0.00073
1634 28.50000 1381.68495 1395.00000 0.00072
1635 28.51500 1390.59366 1341.00000 0.00075
1636 28.53000 1399.95286 1425.00000 0.00070
1637 28.54500 1409.73792 1393.00000 0.00072
1638 28.56000 1419.98343 1370.00000 0.00073
1639 28.57500 1430.78919 1397.00000 0.00072
1640 28.59000 1442.31573 1363.00000 0.00073
1641 28.60500 1454.77197 1462.00000 0.00068
1642 28.62000 1468.38751 1443.00000 0.00069
1643 28.63500 1483.40565 1462.00000 0.00068
1644 28.65000 1500.07477 1382.00000 0.00072
1645 28.66500 1518.64124 1459.00000 0.00069
1646 28.68000 1539.34295 1474.00000 0.00068
1647 28.69500 1562.40228 1502.00000 0.00067
1648 28.71000 1588.01723 1653.00000 0.00060
1649 28.72500 1616.34973 1526.00000 0.00066
1650 28.74000 1647.51066 1596.00000 0.00063
1651 28.75500 1681.54115 1626.00000 0.00062
1652 28.77000 1718.39059 1703.00000 0.00059
1653 28.78500 1757.89244 1780.00000 0.00056
1654 28.80000 1799.73969 1884.00000 0.00053
1655 28.81500 1843.46065 1945.00000 0.00051
1656 28.83000 1888.40123 2082.00000 0.00048
1657 28.84500 1933.71290 2134.00000 0.00047
1658 28.86000 1978.33656 2164.00000 0.00046
1659 28.87500 2020.99848 2206.00000 0.00045
1660 28.89000 2060.20819 2275.00000 0.00044
1661 28.90500 2094.27616 2416.00000 0.00041
1662 28.92000 2121.35350 2306.00000 0.00043
1663 28.93500 2139.50165 2366.00000 0.00042
1664 28.95000 2146.82410 2412.00000 0.00041
1665 28.96500 2141.66858 2323.00000 0.00043
1666 28.98000 2122.91048 2263.00000 0.00044
1667 28.99500 2090.29460 1979.00000 0.00051
1668 29.01000 2044.75205 2007.00000 0.00050
1669 29.02500 1988.55835 1931.00000 0.00052
1670 29.04000 1925.16411 1894.00000 0.00053
1671 29.05500 1858.63868 1741.00000 0.00057
1672 29.07000 1792.89961 1691.00000 0.00059
1673 29.08500 1731.04922 1597.00000 0.00063
1674 29.10000 1675.06662 1555.00000 0.00064
1675 29.11500 1625.86496 1563.00000 0.00064
1676 29.13000 1583.55682 1537.00000 0.00065
1677 29.14500 1547.75346 1499.00000 0.00067
1678 29.16000 1517.80376 1505.00000 0.00066
1679 29.17500 1492.95207 1445.00000 0.00069
1680 29.19000 1472.42960 1404.00000 0.00071
1681 29.20500 1455.50166 1464.00000 0.00068
1682 29.22000 1441.48899 1459.00000 0.00069
1683 29.23500 1429.77474 1495.00000 0.00067
1684 29.25000 1419.80418 1337.00000 0.00075
1685 29.26500 1411.08102 1474.00000 0.00068
1686 29.28000 1403.16308 1434.00000 0.00070
1687 29.29500 1395.65945 1463.00000 0.00068
1688 29.31000 1388.23001 1451.00000 0.00069
1689 29.32500 1380.59117 1402.00000 0.00071
1690 29.34000 1372.52768 1422.00000 0.00070
1691 29.35500 1363.91120 1406.00000 0.00071
1692 29.37000 1354.72417 1390.00000 0.00072
1693 29.38500 1345.08265 1382.00000 0.00072
1694 29.40000 1335.24589 1378.00000 0.00073
1695 29.41500 1325.59828 1366.00000 0.00073
1696 29.43000 1316.59630 1248.00000 0.00080
1697 29.44500 1308.69801 1354.00000 0.00074
1698 29.46000 1302.30064 1389.00000 0.00072
1699 29.47500 1297.69256 1319.00000 0.00076
1700 29.49000 1295.05847 1238.00000 0.00081
1701 29.50500 1294.50227 1281.00000 0.00078
1702 29.52000 1296.07326 1297.00000 0.00077
1703 29.53500 1299.78576 1280.00000 0.00078
1704 29.55000 1305.62886 1325.00000 0.00075
1705 29.56500 1313.56627 1312.00000 0.00076
1706 29.58000 1323.52764 1276.00000 0.00078
1707 29.59500 1335.39149 1314.00000 0.00076
1708 29.61000 1348.96031 1313.00000 0.00076
1709 29.62500 1363.92900 1307.00000 0.00077
1710 29.64000 1379.85203 1325.00000 0.00075
1711 29.65500 1396.12155 1389.00000 0.00072
1712 29.67000 1411.97703 1389.00000 0.00072
1713 29.68500 1426.56788 1384.00000 0.00072
1714 29.70000 1439.07236 1425.00000 0.00070
1715 29.71500 1448.84020 1382.00000 0.00072
1716 29.73000 1455.49992 1419.00000 0.00070
1717 29.74500 1458.98658 1450.00000 0.00069
1718 29.76000 1459.49235 1469.00000 0.00068
1719 29.77500 1457.37773 1473.00000 0.00068
1720 29.79000 1453.08436 1504.00000 0.00066
1721 29.80500 1447.07013 1506.00000 0.00066
1722 29.82000 1439.76968 1470.00000 0.00068
1723 29.83500 1431.57506 1499.00000 0.00067
1724 29.85000 1422.82937 1476.00000 0.00068
1725 29.86500 1413.82788 1535.00000 0.00065
1726 29.88000 1404.82306 1502.00000 0.00067
1727 29.89500 1396.03209 1508.00000 0.00066
1728 29.91000 1387.64317 1544.00000 0.00065
1729 29.92500 1379.81907 1513.00000 0.00066
1730 29.94000 1372.71263 1568.00000 0.00064
1731 29.95500 1366.47082 1570.00000 0.00064
1732 29.97000 1361.24166 1520.00000 0.00066
1733 29.98500 1357.18085 1531.00000 0.00065
1734 30.00000 1354.45781 1593.00000 0.00063
1735 30.01500 1353.26069 1568.00000 0.00064
1736 30.03000 1353.79981 1662.00000 0.00060
1737 30.04500 1356.30842 1614.00000 0.00062
1738 30.06000 1361.03992 1560.00000 0.00064
1739 30.07500 1368.26056 1599.00000 0.00063
1740 30.09000 1378.23648 1637.00000 0.00061
1741 30.10500 1391.20368 1565.00000 0.00064
1742 30.12000 1407.38788 1684.00000 0.00059
1743 30.13500 1427.11477 1538.00000 0.00065
1744 30.15000 1450.51403 1677.00000 0.00060
1745 30.16500 1477.58845 1635.00000 0.00061
1746 30.18000 1508.20310 1649.00000 0.00061
1747 30.19500 1542.02324 1606.00000 0.00062
1748 30.21000 1578.43788 1641.00000 0.00061
1749 30.22500 1616.47777 1711.00000 0.00058
1750 30.24000 1654.75297 1644.00000 0.00061
1751 30.25500 1691.45806 1743.00000 0.00057
1752 30.27000 1724.50367 1709.00000 0.00059
1753 30.28500 1751.80101 1715.00000 0.00058
1754 30.30000 1771.63956 1795.00000 0.00056
1755 30.31500 1783.01017 1878.00000 0.00053
1756 30.33000 1785.73184 1789.00000 0.00056
1757 30.34500 1780.35302 1763.00000 0.00057
1758 30.36000 1767.91549 1763.00000 0.00057
1759 30.37500 1749.69892 1790.00000 0.00056
1760 30.39000 1727.02143 1720.00000 0.00058
1761 30.40500 1701.11502 1692.00000 0.00059
1762 30.42000 1673.06360 1602.00000 0.00062
1763 30.43500 1643.78264 1768.00000 0.00057
1764 30.45000 1614.02272 1673.00000 0.00060
1765 30.46500 1584.38491 1672.00000 0.00060
1766 30.48000 1555.34116 1582.00000 0.00063
1767 30.49500 1527.25577 1543.00000 0.00065
1768 30.51000 1500.40611 1571.00000 0.00064
1769 30.52500 1475.00154 1527.00000 0.00065
1770 30.54000 1451.20002 1489.00000 0.00067
1771 30.55500 1429.12217 1490.00000 0.00067
1772 30.57000 1408.86261 1477.00000 0.00068
1773 30.58500 1390.49849 1402.00000 0.00071
1774 30.60000 1374.09509 1399.00000 0.00071
1775 30.61500 1359.70878 1483.00000 0.00067
1776 30.63000 1347.38968 1379.00000 0.00073
1777 30.64500 1337.17813 1343.00000 0.00074
1778 30.66000 1329.10272 1267.00000 0.00079
1779 30.67500 1323.17568 1349.00000 0.00074
1780 30.69000 1319.38547 1364.00000 0.00073
1781 30.70500 1317.68588 1264.00000 0.00079
1782 30.72000 1317.98051 1336.00000 0.00075
1783 30.73500 1320.10277 1297.00000 0.00077
1784 30.75000 1323.79301 1320.00000 0.00076
1785 30.76500 1328.67896 1229.00000 0.00081
1786 30.78000 1334.27124 1280.00000 0.00078
1787 30.79500 1339.98938 1311.00000 0.00076
1788 30.81000 1345.22737 1300.00000 0.00077
1789 30.82500 1349.44750 1330.00000 0.00075
1790 30.84000 1352.26794 1337.00000 0.00075
1791 30.85500 1353.50695 1339.00000 0.00075
1792 30.87000 1353.17151 1270.00000 0.00079
1793 30.88500 1351.40781 1427.00000 0.00070
1794 30.90000 1348.44156 1372.00000 0.00073
1795 30.91500 1344.52716 1358.00000 0.00074
1796 30.93000 1339.91257 1407.00000 0.00071
1797 30.94500 1334.81817 1444.00000 0.00069
1798 30.96000 1329.42545 1467.00000 0.00068
1799 30.97500 1323.87239 1357.00000 0.00074
1800 30.99000 1318.25464 1417.00000 0.00071
1801 31.00500 1312.63249 1410.00000 0.00071
1802 31.02000 1307.04367 1433.00000 0.00070
1803 31.03500 1301.51923 1462.00000 0.00068
1804 31.05000 1296.09718 1402.00000 0.00071
1805 31.06500 1290.82944 1399.00000 0.00071
1806 31.08000 1285.78114 1403.00000 0.00071
1807 31.09500 1281.02512 1425.00000 0.00070
1808 31.11000 1276.63534 1347.00000 0.00074
1809 31.12500 1272.68135 1359.00000 0.00074
1810 31.14000 1269.22450 1338.00000 0.00075
1811 31.15500 1266.31542 1263.00000 0.00079
1812 31.17000 1263.99183 1344.00000 0.00074
1813 31.18500 1262.27672 1326.00000 0.00075
1814 31.20000 1261.17629 1263.00000 0.00079
1815 31.21500 1260.67707 1275.00000 0.00078
1816 31.23000 1260.74278 1287.00000 0.00078
1817 31.24500 1261.31097 1218.00000 0.00082
1818 31.26000 1262.28957 1237.00000 0.00081
1819 31.27500 1263.55346 1205.00000 0.00083
1820 31.29000 1264.94228 1184.00000 0.00084
1821 31.30500 1266.25951 1181.00000 0.00085
1822 31.32000 1267.27293 1228.00000 0.00081
1823 31.33500 1267.71688 1218.00000 0.00082
1824 31.35000 1267.29650 1181.00000 0.00085
1825 31.36500 1265.69519 1229.00000 0.00081
1826 31.38000 1262.58684 1264.00000 0.00079
1827 31.39500 1257.65505 1245.00000 0.00080
1828 31.41000 1250.62186 1209.00000 0.00083
1829 31.42500 1241.28776 1163.00000 0.00086
1830 31.44000 1229.58201 1177.00000 0.00085
1831 31.45500 1215.61546 1216.00000 0.00082
1832 31.47000 1199.71834 1138.00000 0.00088
1833 31.48500 1182.43733 1156.00000 0.00087
1834 31.50000 1164.47301 1099.00000 0.00091
1835 31.51500 1146.55236 1071.00000 0.00093
1836 31.53000 1129.30507 1070.00000 0.00093
1837 31.54500 1113.18078 1108.00000 0.00090
1838 31.56000 1098.42493 1071.00000 0.00093
1839 31.57500 1085.11174 1039.00000 0.00096
1840 31.59000 1073.19859 1061.00000 0.00094
1841 31.60500 1062.57690 1041.00000 0.00096
1842 31.62000 1053.10930 1095.00000 0.00091
1843 31.63500 1044.65263 1024.00000 0.00098
1844 31.65000 1037.07060 1062.00000 0.00094
1845 31.66500 1030.23970 1018.00000 0.00098
1846 31.68000 1024.05149 1042.00000 0.00096
1847 31.69500 1018.41215 1051.00000 0.00095
1848 31.71000 1013.24228 983.00000 0.00102
1849 31.72500 1008.47526 936.00000 0.00107
1850 31.74000 1004.05566 955.00000 0.00105
1851 31.75500 999.93758 961.00000 0.00104
1852 31.77000 996.08309 1053.00000 0.00095
1853 31.78500 992.46083 1004.00000 0.00100
1854 31.80000 989.04477 938.00000 0.00107
1855 31.81500 985.81322 1046.00000 0.00096
1856 31.83000 982.74795 949.00000 0.00105
1857 31.84500 979.83350 921.00000 0.00109
1858 31.86000 977.05667 960.00000 0.00104
1859 31.87500 974.40611 989.00000 0.00101
1860 31.89000 971.87196 973.00000 0.00103
1861 31.90500 969.44567 930.00000 0.00108
1862 31.92000 967.11997 1003.00000 0.00100
1863 31.93500 964.88803 932.00000 0.00107
1864 31.95000 962.74321 941.00000 0.00106
1865 31.96500 960.68016 970.00000 0.00103
1866 31.98000 958.69406 936.00000 0.00107
1867 31.99500 956.78051 922.00000 0.00108
1868 32.01000 954.93588 943.00000 0.00106
1869 32.02500 953.15673 928.00000 0.00108
1870 32.04000 951.43997 981.00000 0.00102
1871 32.05500 949.78282 964.00000 0.00104
1872 32.07000 948.18278 915.00000 0.00109
1873 32.08500 946.63762 964.00000 0.00104
1874 32.10000 945.14536 934.00000 0.00107
1875 32.11500 943.70430 909.00000 0.00110
1876 32.13000 942.31306 968.00000 0.00103
1877 32.14500 940.97090 954.00000 0.00105
1878 32.16000 939.67883 981.00000 0.00102
1879 32.17500 938.43645 1012.00000 0.00099
1880 32.19000 937.24054 939.00000 0.00106
1881 32.20500 936.09051 915.00000 0.00109
1882 32.22000 934.98624 894.00000 0.00112
1883 32.23500 933.92789 951.00000 0.00105
1884 32.25000 932.91589 905.00000 0.00110
1885 32.26500 931.95099 924.00000 0.00108
1886 32.28000 931.03423 980.00000 0.00102
1887 32.29500 930.16702 1001.00000 0.00100
1888 32.31000 929.35107 939.00000 0.00106
1889 32.32500 928.58838 955.00000 0.00105
1890 32.34000 927.88116 934.00000 0.00107
1891 32.35500 927.23172 930.00000 0.00108
1892 32.37000 926.64227 898.00000 0.00111
1893 32.38500 926.11479 963.00000 0.00104
1894 32.40000 925.65078 938.00000 0.00107
1895 32.41500 925.25113 960.00000 0.00104
1896 32.43000 924.91585 943.00000 0.00106
1897 32.44500 924.64379 884.00000 0.00113
1898 32.46000 924.43216 918.00000 0.00109
1899 32.47500 924.27598 992.00000 0.00101
1900 32.49000 924.16738 944.00000 0.00106
1901 32.50500 924.09533 919.00000 0.00109
1902 32.52000 924.04603 915.00000 0.00109
1903 32.53500 924.00502 920.00000 0.00109
1904 32.55000 923.96121 999.00000 0.00100
1905 32.56500 923.91230 926.00000 0.00108
1906 32.58000 923.86914 907.00000 0.00110
1907 32.59500 923.85608 945.00000 0.00106
1908 32.61000 923.90645 861.00000 0.00116
1909 32.62500 924.05564 918.00000 0.00109
1910 32.64000 924.33570 904.00000 0.00111
1911 32.65500 924.77330 981.00000 0.00102
1912 32.67000 925.39048 969.00000 0.00103
1913 32.68500 926.20671 880.00000 0.00114
1914 32.70000 927.24091 949.00000 0.00105
1915 32.71500 928.51300 914.00000 0.00109
1916 32.73000 930.04501 935.00000 0.00107
1917 32.74500 931.86173 937.00000 0.00107
1918 32.76000 933.99115 899.00000 0.00111
1919 32.77500 936.46493 942.00000 0.00106
1920 32.79000 939.31880 951.00000 0.00105
1921 32.80500 942.59303 1012.00000 0.00099
1922 32.82000 946.33317 950.00000 0.00105
1923 32.83500 950.58995 1039.00000 0.00096
1924 32.85000 955.41885 964.00000 0.00104
1925 32.86500 960.87989 934.00000 0.00107
1926 32.88000 967.03650 950.00000 0.00105
1927 32.89500 973.95414 938.00000 0.00107
1928 32.91000 981.69835 1012.00000 0.00099
1929 32.92500 990.33217 1080.00000 0.00093
1930 32.94000 999.91310 998.00000 0.00100
1931 32.95500 1010.49031 995.00000 0.00101
1932 32.97000 1022.10362 993.00000 0.00101
1933 32.98500 1034.78648 998.00000 0.00100
1934 33.00000 1048.57380 945.00000 0.00106
1935 33.01500 1063.51387 1027.00000 0.00097
1936 33.03000 1079.67874 1021.00000 0.00098
1937 33.04500 1097.16723 1106.00000 0.00090
1938 33.06000 1116.09772 1080.00000 0.00093
1939 33.07500 1136.59263 1111.00000 0.00090
1940 33.09000 1158.75816 1088.00000 0.00092
1941 33.10500 1182.66226 1136.00000 0.00088
1942 33.12000 1208.31185 1144.00000 0.00087
1943 33.13500 1235.62941 1154.00000 0.00087
1944 33.15000 1264.42933 1166.00000 0.00086
1945 33.16500 1294.39503 1216.00000 0.00082
1946 33.18000 1325.05906 1179.00000 0.00085
1947 33.19500 1355.78846 1244.00000 0.00080
1948 33.21000 1385.77755 1198.00000 0.00083
1949 33.22500 1414.05004 1328.00000 0.00075
1950 33.24000 1439.47247 1353.00000 0.00074
1951 33.25500 1460.78347 1333.00000 0.00075
1952 33.27000 1476.64708 1458.00000 0.00069
1953 33.28500 1485.74154 1464.00000 0.00068
1954 33.30000 1486.89617 1403.00000 0.00071
1955 33.31500 1479.28285 1401.00000 0.00071
1956 33.33000 1462.64931 1395.00000 0.00072
1957 33.34500 1437.54470 1390.00000 0.00072
1958 33.36000 1405.44246 1448.00000 0.00069
1959 33.37500 1368.65005 1371.00000 0.00073
1960 33.39000 1329.96027 1347.00000 0.00074
1961 33.40500 1292.14146 1365.00000 0.00073
1962 33.42000 1257.47505 1363.00000 0.00073
1963 33.43500 1227.51311 1286.00000 0.00078
1964 33.45000 1203.07868 1240.00000 0.00081
1965 33.46500 1184.41180 1187.00000 0.00084
1966 33.48000 1171.34746 1232.00000 0.00081
1967 33.49500 1163.45870 1217.00000 0.00082
1968 33.51000 1160.14578 1282.00000 0.00078
1969 33.52500 1160.67737 1180.00000 0.00085
1970 33.54000 1164.19614 1249.00000 0.00080
1971 33.55500 1169.70075 1224.00000 0.00082
1972 33.57000 1176.01701 1129.00000 0.00089
1973 33.58500 1181.78365 1157.00000 0.00086
1974 33.60000 1185.49704 1198.00000 0.00083
1975 33.61500 1185.66665 1143.00000 0.00087
1976 33.63000 1181.12055 1134.00000 0.00088
1977 33.64500 1171.37149 1157.00000 0.00086
1978 33.66000 1156.83762 1058.00000 0.00095
1979 33.67500 1138.72993 1022.00000 0.00098
1980 33.69000 1118.63838 1098.00000 0.00091
1981 33.70500 1098.06482 1012.00000 0.00099
1982 33.72000 1078.13288 1078.00000 0.00093
1983 33.73500 1059.52545 1076.00000 0.00093
1984 33.75000 1042.56331 1073.00000 0.00093
1985 33.76500 1027.32467 1035.00000 0.00097
1986 33.78000 1013.74711 1059.00000 0.00094
1987 33.79500 1001.69843 1011.00000 0.00099
1988 33.81000 991.01951 971.00000 0.00103
1989 33.82500 981.54815 949.00000 0.00105
1990 33.84000 973.13108 926.00000 0.00108
1991 33.85500 965.63020 1008.00000 0.00099
1992 33.87000 958.92484 978.00000 0.00102
1993 33.88500 952.91199 916.00000 0.00109
1994 33.90000 947.50553 969.00000 0.00103
1995 33.91500 942.63429 949.00000 0.00105
1996 33.93000 938.24103 959.00000 0.00104
1997 33.94500 934.28050 893.00000 0.00112
1998 33.96000 930.71776 967.00000 0.00103
1999 33.97500 927.52683 926.00000 0.00108
2000 33.99000 924.68957 948.00000 0.00105
2001 34.00500 922.19495 890.00000 0.00112
2002 34.02000 920.03861 885.00000 0.00113
2003 34.03500 918.22280 924.00000 0.00108
2004 34.05000 916.75654 901.00000 0.00111
2005 34.06500 915.65618 902.00000 0.00111
2006 34.08000 914.94613 950.00000 0.00105
2007 34.09500 914.65975 953.00000 0.00105
2008 34.11000 914.84045 915.00000 0.00109
2009 34.12500 915.54257 986.00000 0.00101
2010 34.14000 916.83178 951.00000 0.00105
2011 34.15500 918.78507 976.00000 0.00102
2012 34.17000 921.48905 952.00000 0.00105
2013 34.18500 925.03621 992.00000 0.00101
2014 34.20000 929.51864 1005.00000 0.00100
2015 34.21500 935.01919 1007.00000 0.00099
2016 34.23000 941.60063 1092.00000 0.00092
2017 34.24500 949.29110 1057.00000 0.00095
2018 34.26000 958.07090 1048.00000 0.00095
2019 34.27500 967.85468 1030.00000 0.00097
2020 34.29000 978.46847 1133.00000 0.00088
2021 34.30500 989.62154 1168.00000 0.00086
2022 34.32000 1000.87547 1024.00000 0.00098
2023 34.33500 1011.62076 1029.00000 0.00097
2024 34.35000 1021.08250 1084.00000 0.00092
2025 34.36500 1028.38462 1076.00000 0.00093
2026 34.38000 1032.69249 1060.00000 0.00094
2027 34.39500 1033.41170 1063.00000 0.00094
2028 34.41000 1030.36451 1043.00000 0.00096
2029 34.42500 1023.84991 1043.00000 0.00096
2030 34.44000 1014.55297 976.00000 0.00102
2031 34.45500 1003.36430 974.00000 0.00103
2032 34.47000 991.18378 957.00000 0.00104
2033 34.48500 978.78523 1011.00000 0.00099
2034 34.50000 966.75964 957.00000 0.00104
2035 34.51500 955.51092 943.00000 0.00106
2036 34.53000 945.28185 948.00000 0.00105
2037 34.54500 936.19081 952.00000 0.00105
2038 34.56000 928.26781 952.00000 0.00105
2039 34.57500 921.48489 962.00000 0.00104
2040 34.59000 915.77933 878.00000 0.00114
2041 34.60500 911.07253 957.00000 0.00104
2042 34.62000 907.28203 902.00000 0.00111
2043 34.63500 904.32763 884.00000 0.00113
2044 34.65000 902.13755 952.00000 0.00105
2045 34.66500 900.65124 943.00000 0.00106
2046 34.68000 899.82088 861.00000 0.00116
2047 34.69500 899.61178 876.00000 0.00114
2048 34.71000 900.00235 931.00000 0.00107
2049 34.72500 900.98353 929.00000 0.00108
2050 34.74000 902.55780 879.00000 0.00114
2051 34.75500 904.73768 882.00000 0.00113
2052 34.77000 907.54394 884.00000 0.00113
2053 34.78500 911.00355 903.00000 0.00111
2054 34.80000 915.14799 903.00000 0.00111
2055 34.81500 920.01183 853.00000 0.00117
2056 34.83000 925.63126 873.00000 0.00115
2057 34.84500 932.04147 894.00000 0.00112
2058 34.86000 939.27199 923.00000 0.00108
2059 34.87500 947.33965 900.00000 0.00111
2060 34.89000 956.24028 935.00000 0.00107
2061 34.90500 965.94200 1001.00000 0.00100
2062 34.92000 976.38466 986.00000 0.00101
2063 34.93500 987.49180 971.00000 0.00103
2064 34.95000 999.19893 936.00000 0.00107
2065 34.96500 1011.49450 926.00000 0.00108
2066 34.98000 1024.45940 970.00000 0.00103
2067 34.99500 1038.28754 980.00000 0.00102
2068 35.01000 1053.27805 1006.00000 0.00099
2069 35.02500 1069.80212 1000.00000 0.00100
2070 35.04000 1088.25365 1043.00000 0.00096
2071 35.05500 1108.99267 1092.00000 0.00092
2072 35.07000 1132.28729 1085.00000 0.00092
2073 35.08500 1158.25763 1148.00000 0.00087
2074 35.10000 1186.82084 1160.00000 0.00086
2075 35.11500 1217.63091 1144.00000 0.00087
2076 35.13000 1250.00359 1265.00000 0.00079
2077 35.14500 1282.82100 1223.00000 0.00082
2078 35.16000 1314.42793 1224.00000 0.00082
2079 35.17500 1342.56523 1227.00000 0.00081
2080 35.19000 1364.43423 1240.00000 0.00081
2081 35.20500 1377.02180 1248.00000 0.00080
2082 35.22000 1377.76639 1209.00000 0.00083
2083 35.23500 1365.43468 1292.00000 0.00077
2084 35.25000 1340.78289 1265.00000 0.00079
2085 35.26500 1306.51401 1266.00000 0.00079
2086 35.28000 1266.45343 1232.00000 0.00081
2087 35.29500 1224.42500 1178.00000 0.00085
2088 35.31000 1183.43098 1129.00000 0.00089
2089 35.32500 1145.37972 1140.00000 0.00088
2090 35.34000 1111.21751 1184.00000 0.00084
2091 35.35500 1081.21529 1200.00000 0.00083
2092 35.37000 1055.24127 1074.00000 0.00093
2093 35.38500 1032.95830 1172.00000 0.00085
2094 35.40000 1013.94674 1065.00000 0.00094
2095 35.41500 997.77379 1021.00000 0.00098
2096 35.43000 984.02937 965.00000 0.00104
2097 35.44500 972.34291 987.00000 0.00101
2098 35.46000 962.38983 1046.00000 0.00096
2099 35.47500 953.89133 1008.00000 0.00099
2100 35.49000 946.61219 1047.00000 0.00096
2101 35.50500 940.35705 884.00000 0.00113
2102 35.52000 934.96496 978.00000 0.00102
2103 35.53500 930.30424 958.00000 0.00104
2104 35.55000 926.26759 959.00000 0.00104
2105 35.56500 922.76760 950.00000 0.00105
2106 35.58000 919.73292 957.00000 0.00104
2107 35.59500 917.10505 940.00000 0.00106
2108 35.61000 914.83564 916.00000 0.00109
2109 35.62500 912.88447 947.00000 0.00106
2110 35.64000 911.21775 912.00000 0.00110
2111 35.65500 909.80691 936.00000 0.00107
2112 35.67000 908.62756 935.00000 0.00107
2113 35.68500 907.65876 868.00000 0.00115
2114 35.70000 906.88242 853.00000 0.00117
2115 35.71500 906.28282 860.00000 0.00116
2116 35.73000 905.84625 899.00000 0.00111
2117 35.74500 905.56069 898.00000 0.00111
2118 35.76000 905.41559 941.00000 0.00106
2119 35.77500 905.40165 853.00000 0.00117
2120 35.79000 905.51064 875.00000 0.00114
2121 35.80500 905.73539 869.00000 0.00115
2122 35.82000 906.06941 890.00000 0.00112
2123 35.83500 906.50665 844.00000 0.00118
2124 35.85000 907.04193 808.00000 0.00124
2125 35.86500 907.67063 883.00000 0.00113
2126 35.88000 908.38859 901.00000 0.00111
2127 35.89500 909.19208 954.00000 0.00105
2128 35.91000 910.07772 892.00000 0.00112
2129 35.92500 911.04248 885.00000 0.00113
2130 35.94000 912.08357 833.00000 0.00120
2131 35.95500 913.19845 892.00000 0.00112
2132 35.97000 914.38478 892.00000 0.00112
2133 35.98500 915.64039 914.00000 0.00109
2134 36.00000 916.96321 881.00000 0.00114
2135 36.01500 918.35127 936.00000 0.00107
2136 36.03000 919.80262 946.00000 0.00106
2137 36.04500 921.31530 981.00000 0.00102
2138 36.06000 922.88731 928.00000 0.00108
2139 36.07500 924.51648 910.00000 0.00110
2140 36.09000 926.20048 991.00000 0.00101
2141 36.10500 927.93668 1004.00000 0.00100
2142 36.12000 929.72209 947.00000 0.00106
2143 36.13500 931.55326 1008.00000 0.00099
2144 36.15000 933.42622 989.00000 0.00101
2145 36.16500 935.33636 944.00000 0.00106
2146 36.18000 937.27848 908.00000 0.00110
2147 36.19500 939.24682 949.00000 0.00105
2148 36.21000 941.23533 995.00000 0.00101
2149 36.22500 943.23810 939.00000 0.00106
2150 36.24000 945.25015 937.00000 0.00107
2151 36.25500 947.26857 925.00000 0.00108
2152 36.27000 949.29402 963.00000 0.00104
2153 36.28500 951.33261 922.00000 0.00108
2154 36.30000 953.39792 925.00000 0.00108
2155 36.31500 955.51324 920.00000 0.00109
2156 36.33000 957.71376 879.00000 0.00114
2157 36.34500 960.04862 947.00000 0.00106
2158 36.36000 962.58239 924.00000 0.00108
2159 36.37500 965.39511 916.00000 0.00109
2160 36.39000 968.57867 944.00000 0.00106
2161 36.40500 972.22689 900.00000 0.00111
2162 36.42000 976.41732 879.00000 0.00114
2163 36.43500 981.18580 936.00000 0.00107
2164 36.45000 986.50014 982.00000 0.00102
2165 36.46500 992.24131 959.00000 0.00104
2166 36.48000 998.20069 967.00000 0.00103
2167 36.49500 1004.10051 1022.00000 0.00098
2168 36.51000 1009.64080 1046.00000 0.00096
2169 36.52500 1014.56597 1069.00000 0.00094
2170 36.54000 1018.72780 1112.00000 0.00090
2171 36.55500 1022.11521 1077.00000 0.00093
2172 36.57000 1024.83554 1087.00000 0.00092
2173 36.58500 1027.06260 1064.00000 0.00094
2174 36.60000 1028.97995 1130.00000 0.00088
2175 36.61500 1030.74358 1043.00000 0.00096
2176 36.63000 1032.46962 1121.00000 0.00089
2177 36.64500 1034.23790 1063.00000 0.00094
2178 36.66000 1036.09806 1088.00000 0.00092
2179 36.67500 1038.07054 1020.00000 0.00098
2180 36.69000 1040.14182 1022.00000 0.00098
2181 36.70500 1042.25641 1025.00000 0.00098
2182 36.72000 1044.30935 987.00000 0.00101
2183 36.73500 1046.17170 983.00000 0.00102
2184 36.75000 1047.68678 1017.00000 0.00098
2185 36.76500 1048.69265 977.00000 0.00102
2186 36.78000 1049.08134 912.00000 0.00110
2187 36.79500 1048.84741 944.00000 0.00106
2188 36.81000 1048.11627 927.00000 0.00108
2189 36.82500 1047.13842 949.00000 0.00105
2190 36.84000 1046.25223 929.00000 0.00108
2191 36.85500 1045.82900 1010.00000 0.00099
2192 36.87000 1046.21621 1020.00000 0.00098
2193 36.88500 1047.69121 907.00000 0.00110
2194 36.90000 1050.43183 961.00000 0.00104
2195 36.91500 1054.50408 972.00000 0.00103
2196 36.93000 1059.86215 914.00000 0.00109
2197 36.94500 1066.35769 901.00000 0.00111
2198 36.96000 1073.76034 943.00000 0.00106
2199 36.97500 1081.79570 1021.00000 0.00098
2200 36.99000 1090.20224 1002.00000 0.00100
2201 37.00500 1098.79653 1037.00000 0.00096
2202 37.02000 1107.52483 1055.00000 0.00095
2203 37.03500 1116.48300 980.00000 0.00102
2204 37.05000 1125.90294 1138.00000 0.00088
2205 37.06500 1136.11784 1072.00000 0.00093
2206 37.08000 1147.52077 1158.00000 0.00086
2207 37.09500 1160.52406 1192.00000 0.00084
2208 37.11000 1175.52027 1214.00000 0.00082
2209 37.12500 1192.84266 1306.00000 0.00077
2210 37.14000 1212.72298 1275.00000 0.00078
2211 37.15500 1235.24488 1421.00000 0.00070
2212 37.17000 1260.29059 1354.00000 0.00074
2213 37.18500 1287.47784 1460.00000 0.00068
2214 37.20000 1316.08723 1377.00000 0.00073
2215 37.21500 1344.99156 1544.00000 0.00065
2216 37.23000 1372.62011 1508.00000 0.00066
2217 37.24500 1397.01782 1565.00000 0.00064
2218 37.26000 1416.06742 1503.00000 0.00067
2219 37.27500 1427.89217 1532.00000 0.00065
2220 37.29000 1431.33669 1464.00000 0.00068
2221 37.30500 1426.31092 1415.00000 0.00071
2222 37.32000 1413.80525 1399.00000 0.00071
2223 37.33500 1395.58029 1392.00000 0.00072
2224 37.35000 1373.69917 1349.00000 0.00074
2225 37.36500 1350.10140 1315.00000 0.00076
2226 37.38000 1326.33292 1313.00000 0.00076
2227 37.39500 1303.44196 1171.00000 0.00085
2228 37.41000 1281.99952 1221.00000 0.00082
2229 37.42500 1262.19649 1208.00000 0.00083
2230 37.44000 1243.97459 1154.00000 0.00087
2231 37.45500 1227.15561 1150.00000 0.00087
2232 37.47000 1211.54096 1145.00000 0.00087
2233 37.48500 1196.96958 1121.00000 0.00089
2234 37.50000 1183.33932 1081.00000 0.00093
2235 37.51500 1170.60820 1133.00000 0.00088
2236 37.53000 1158.77853 1117.00000 0.00090
2237 37.54500 1147.87430 1084.00000 0.00092
2238 37.56000 1137.92183 1095.00000 0.00091
2239 37.57500 1128.93394 1105.00000 0.00090
2240 37.59000 1120.90301 1074.00000 0.00093
2241 37.60500 1113.80328 1132.00000 0.00088
2242 37.62000 1107.59831 1140.00000 0.00088
2243 37.63500 1102.24911 1113.00000 0.00090
2244 37.65000 1097.72049 1095.00000 0.00091
2245 37.66500 1093.98516 1089.00000 0.00092
2246 37.68000 1091.03151 1094.00000 0.00091
2247 37.69500 1088.85901 1111.00000 0.00090
2248 37.71000 1087.47818 1166.00000 0.00086
2249 37.72500 1086.91147 1115.00000 0.00090
2250 37.74000 1087.19154 1148.00000 0.00087
2251 37.75500 1088.35795 1076.00000 0.00093
2252 37.77000 1090.45210 1090.00000 0.00092
2253 37.78500 1093.50996 1075.00000 0.00093
2254 37.80000 1097.55289 1105.00000 0.00090
2255 37.81500 1102.57678 1146.00000 0.00087
2256 37.83000 1108.53984 1167.00000 0.00086
2257 37.84500 1115.34859 1128.00000 0.00089
2258 37.86000 1122.84148 1227.00000 0.00081
2259 37.87500 1130.77298 1168.00000 0.00086
2260 37.89000 1138.79993 1106.00000 0.00090
2261 37.90500 1146.48961 1175.00000 0.00085
2262 37.92000 1153.36752 1186.00000 0.00084
2263 37.93500 1159.02043 1184.00000 0.00084
2264 37.95000 1163.23809 1111.00000 0.00090
2265 37.96500 1166.12881 1178.00000 0.00085
2266 37.98000 1168.13014 1221.00000 0.00082
2267 37.99500 1169.89116 1191.00000 0.00084
2268 38.01000 1172.09144 1143.00000 0.00087
2269 38.02500 1175.29171 1258.00000 0.00079
2270 38.04000 1179.86496 1234.00000 0.00081
2271 38.05500 1185.99586 1280.00000 0.00078
2272 38.07000 1193.71197 1195.00000 0.00084
2273 38.08500 1202.91679 1304.00000 0.00077
2274 38.10000 1213.41035 1319.00000 0.00076
2275 38.11500 1224.89915 1342.00000 0.00075
2276 38.13000 1236.99722 1292.00000 0.00077
2277 38.14500 1249.22359 1306.00000 0.00077
2278 38.16000 1261.00226 1313.00000 0.00076
2279 38.17500 1271.66855 1331.00000 0.00075
2280 38.19000 1280.48577 1363.00000 0.00073
2281 38.20500 1286.67653 1239.00000 0.00081
2282 38.22000 1289.47426 1360.00000 0.00074
2283 38.23500 1288.20006 1323.00000 0.00076
2284 38.25000 1282.36501 1328.00000 0.00075
2285 38.26500 1271.78567 1285.00000 0.00078
2286 38.28000 1256.67978 1236.00000 0.00081
2287 38.29500 1237.69173 1176.00000 0.00085
2288 38.31000 1215.80472 1260.00000 0.00079
2289 38.32500 1192.14573 1149.00000 0.00087
2290 38.34000 1167.75681 1205.00000 0.00083
2291 38.35500 1143.43086 1199.00000 0.00083
2292 38.37000 1119.66554 1162.00000 0.00086
2293 38.38500 1096.71867 1126.00000 0.00089
2294 38.40000 1074.71073 1089.00000 0.00092
2295 38.41500 1053.72405 1113.00000 0.00090
2296 38.43000 1033.86842 1041.00000 0.00096
2297 38.44500 1015.30051 990.00000 0.00101
2298 38.46000 998.20063 1023.00000 0.00098
2299 38.47500 982.72534 1025.00000 0.00098
2300 38.49000 968.96385 965.00000 0.00104
2301 38.50500 956.91933 998.00000 0.00100
2302 38.52000 946.51791 917.00000 0.00109
2303 38.53500 937.63424 987.00000 0.00101
2304 38.55000 930.11924 979.00000 0.00102
2305 38.56500 923.82202 904.00000 0.00111
2306 38.58000 918.60336 915.00000 0.00109
2307 38.59500 914.34245 951.00000 0.00105
2308 38.61000 910.93926 990.00000 0.00101
2309 38.62500 908.31462 896.00000 0.00112
2310 38.64000 906.40932 908.00000 0.00110
2311 38.65500 905.18296 899.00000 0.00111
2312 38.67000 904.61288 896.00000 0.00112
2313 38.68500 904.69284 874.00000 0.00114
2314 38.70000 905.43262 888.00000 0.00113
2315 38.71500 906.85889 874.00000 0.00114
2316 38.73000 909.01113 1001.00000 0.00100
2317 38.74500 911.94036 919.00000 0.00109
2318 38.76000 915.70540 888.00000 0.00113
2319 38.77500 920.36688 860.00000 0.00116
2320 38.79000 925.97893 837.00000 0.00119
2321 38.80500 932.57808 842.00000 0.00119
2322 38.82000 940.16940 894.00000 0.00112
2323 38.83500 948.70980 903.00000 0.00111
2324 38.85000 958.08826 899.00000 0.00111
2325 38.86500 968.10411 849.00000 0.00118
2326 38.88000 978.44758 922.00000 0.00108
2327 38.89500 988.69226 895.00000 0.00112
2328 38.91000 998.31440 858.00000 0.00117
2329 38.92500 1006.75236 914.00000 0.00109
2330 38.94000 1013.50341 863.00000 0.00116
2331 38.95500 1018.22852 936.00000 0.00107
2332 38.97000 1020.81952 931.00000 0.00107
2333 38.98500 1021.40001 977.00000 0.00102
2334 39.00000 1020.26853 946.00000 0.00106
2335 39.01500 1017.81714 957.00000 0.00104
2336 39.03000 1014.45780 996.00000 0.00100
2337 39.04500 1010.57199 949.00000 0.00105
2338 39.06000 1006.48411 1041.00000 0.00096
2339 39.07500 1002.45264 1014.00000 0.00099
2340 39.09000 998.67168 1008.00000 0.00099
2341 39.10500 995.27765 1056.00000 0.00095
2342 39.12000 992.35764 967.00000 0.00103
2343 39.13500 989.95781 994.00000 0.00101
2344 39.15000 988.09098 1039.00000 0.00096
2345 39.16500 986.74257 1106.00000 0.00090
2346 39.18000 985.87544 1087.00000 0.00092
2347 39.19500 985.43372 1038.00000 0.00096
2348 39.21000 985.34572 1066.00000 0.00094
2349 39.22500 985.52635 1088.00000 0.00092
2350 39.24000 985.87955 976.00000 0.00102
2351 39.25500 986.30118 1023.00000 0.00098
2352 39.27000 986.68285 1031.00000 0.00097
2353 39.28500 986.91710 960.00000 0.00104
2354 39.30000 986.90417 977.00000 0.00102
2355 39.31500 986.56154 964.00000 0.00104
2356 39.33000 985.83735 958.00000 0.00104
2357 39.34500 984.72194 917.00000 0.00109
2358 39.36000 983.26354 988.00000 0.00101
2359 39.37500 981.57958 1000.00000 0.00100
2360 39.39000 979.85770 917.00000 0.00109
2361 39.40500 978.34028 934.00000 0.00107
2362 39.42000 977.29214 937.00000 0.00107
2363 39.43500 976.96138 881.00000 0.00114
2364 39.45000 977.54875 958.00000 0.00104
2365 39.46500 979.19619 941.00000 0.00106
2366 39.48000 981.99321 978.00000 0.00102
2367 39.49500 985.99260 991.00000 0.00101
2368 39.51000 991.22607 982.00000 0.00102
2369 39.52500 997.71513 980.00000 0.00102
2370 39.54000 1005.47751 973.00000 0.00103
2371 39.55500 1014.53195 988.00000 0.00101
2372 39.57000 1024.90529 1045.00000 0.00096
2373 39.58500 1036.64333 998.00000 0.00100
2374 39.60000 1049.82307 1069.00000 0.00094
2375 39.61500 1064.56100 1017.00000 0.00098
2376 39.63000 1081.01185 1018.00000 0.00098
2377 39.64500 1099.35632 1026.00000 0.00097
2378 39.66000 1119.78045 1084.00000 0.00092
2379 39.67500 1142.44336 1139.00000 0.00088
2380 39.69000 1167.44329 1191.00000 0.00084
2381 39.70500 1194.79236 1161.00000 0.00086
2382 39.72000 1224.38560 1239.00000 0.00081
2383 39.73500 1255.98722 1296.00000 0.00077
2384 39.75000 1289.24294 1324.00000 0.00076
2385 39.76500 1323.72189 1321.00000 0.00076
2386 39.78000 1358.97711 1336.00000 0.00075
2387 39.79500 1394.60332 1418.00000 0.00071
2388 39.81000 1430.28030 1413.00000 0.00071
2389 39.82500 1465.81391 1428.00000 0.00070
2390 39.84000 1501.18999 1554.00000 0.00064
2391 39.85500 1536.61827 1469.00000 0.00068
2392 39.87000 1572.49677 1655.00000 0.00060
2393 39.88500 1609.24302 1514.00000 0.00066
2394 39.90000 1647.02738 1549.00000 0.00065
2395 39.91500 1685.51864 1633.00000 0.00061
2396 39.93000 1723.74154 1627.00000 0.00061
2397 39.94500 1760.09238 1729.00000 0.00058
2398 39.96000 1792.52281 1818.00000 0.00055
2399 39.97500 1818.87903 1723.00000 0.00058
2400 39.99000 1837.32907 1862.00000 0.00054
2401 40.00500 1846.74290 1749.00000 0.00057
2402 40.02000 1846.88337 1770.00000 0.00056
2403 40.03500 1838.36079 1746.00000 0.00057
2404 40.05000 1822.40764 1753.00000 0.00057
2405 40.06500 1800.58212 1796.00000 0.00056
2406 40.08000 1774.49726 1673.00000 0.00060
2407 40.09500 1745.63240 1793.00000 0.00056
2408 40.11000 1715.23857 1666.00000 0.00060
2409 40.12500 1684.31920 1668.00000 0.00060
2410 40.14000 1653.65247 1608.00000 0.00062
2411 40.15500 1623.82717 1644.00000 0.00061
2412 40.17000 1595.27593 1483.00000 0.00067
2413 40.18500 1568.29900 1542.00000 0.00065
2414 40.20000 1543.07852 1554.00000 0.00064
2415 40.21500 1519.68490 1502.00000 0.00067
2416 40.23000 1498.07876 1432.00000 0.00070
2417 40.24500 1478.11387 1410.00000 0.00071
2418 40.26000 1459.54948 1501.00000 0.00067
2419 40.27500 1442.07998 1496.00000 0.00067
2420 40.29000 1425.38337 1386.00000 0.00072
2421 40.30500 1409.17784 1404.00000 0.00071
2422 40.32000 1393.26635 1440.00000 0.00069
2423 40.33500 1377.55374 1402.00000 0.00071
2424 40.35000 1362.03727 1347.00000 0.00074
2425 40.36500 1346.77843 1381.00000 0.00072
2426 40.38000 1331.87458 1261.00000 0.00079
2427 40.39500 1317.43519 1236.00000 0.00081
2428 40.41000 1303.56562 1293.00000 0.00077
2429 40.42500 1290.36483 1362.00000 0.00073
2430 40.44000 1277.91944 1263.00000 0.00079
2431 40.45500 1266.30395 1208.00000 0.00083
2432 40.47000 1255.58216 1247.00000 0.00080
2433 40.48500 1245.80942 1241.00000 0.00081
2434 40.50000 1237.03526 1225.00000 0.00082
2435 40.51500 1229.30607 1263.00000 0.00079
2436 40.53000 1222.66793 1311.00000 0.00076
2437 40.54500 1217.16952 1329.00000 0.00075
2438 40.56000 1212.86517 1257.00000 0.00080
2439 40.57500 1209.81811 1238.00000 0.00081
2440 40.59000 1208.10408 1329.00000 0.00075
2441 40.60500 1207.81537 1263.00000 0.00079
2442 40.62000 1209.06528 1316.00000 0.00076
2443 40.63500 1211.99327 1304.00000 0.00077
2444 40.65000 1216.77057 1372.00000 0.00073
2445 40.66500 1223.60637 1380.00000 0.00072
2446 40.68000 1232.75405 1404.00000 0.00071
2447 40.69500 1244.51708 1441.00000 0.00069
2448 40.71000 1259.25341 1522.00000 0.00066
2449 40.72500 1277.37660 1391.00000 0.00072
2450 40.74000 1299.35121 1421.00000 0.00070
2451 40.75500 1325.67927 1426.00000 0.00070
2452 40.77000 1356.87397 1584.00000 0.00063
2453 40.78500 1393.41772 1669.00000 0.00060
2454 40.80000 1435.70198 1737.00000 0.00058
2455 40.81500 1483.94749 1648.00000 0.00061
2456 40.83000 1538.10418 1861.00000 0.00054
2457 40.84500 1597.73352 1936.00000 0.00052
2458 40.86000 1661.88643 1956.00000 0.00051
2459 40.87500 1729.01032 1882.00000 0.00053
2460 40.89000 1796.94459 1945.00000 0.00051
2461 40.90500 1863.07217 2043.00000 0.00049
2462 40.92000 1924.65277 2043.00000 0.00049
2463 40.93500 1979.26439 1982.00000 0.00050
2464 40.95000 2025.19209 2077.00000 0.00048
2465 40.96500 2061.60894 2151.00000 0.00046
2466 40.98000 2088.51259 2094.00000 0.00048
2467 40.99500 2106.51154 2092.00000 0.00048
2468 41.01000 2116.57231 2089.00000 0.00048
2469 41.02500 2119.80896 2063.00000 0.00048
2470 41.04000 2117.34093 1986.00000 0.00050
2471 41.05500 2110.21217 1960.00000 0.00051
2472 41.07000 2099.35345 1920.00000 0.00052
2473 41.08500 2085.57091 1938.00000 0.00052
2474 41.10000 2069.54905 1879.00000 0.00053
2475 41.11500 2051.86067 1871.00000 0.00053
2476 41.13000 2032.97963 1767.00000 0.00057
2477 41.14500 2013.29435 1720.00000 0.00058
2478 41.16000 1993.11998 1728.00000 0.00058
2479 41.17500 1972.70985 1701.00000 0.00059
2480 41.19000 1952.26681 1662.00000 0.00060
2481 41.20500 1931.95155 1653.00000 0.00060
2482 41.22000 1911.89015 1681.00000 0.00059
2483 41.23500 1892.18017 1675.00000 0.00060
2484 41.25000 1872.89563 1621.00000 0.00062
2485 41.26500 1854.09053 1712.00000 0.00058
2486 41.28000 1835.80141 1771.00000 0.00056
2487 41.29500 1818.04886 1701.00000 0.00059
2488 41.31000 1800.83845 1716.00000 0.00058
2489 41.32500 1784.16114 1738.00000 0.00058
2490 41.34000 1767.99340 1769.00000 0.00057
2491 41.35500 1752.29700 1794.00000 0.00056
2492 41.37000 1737.01837 1704.00000 0.00059
2493 41.38500 1722.08747 1749.00000 0.00057
2494 41.40000 1707.41620 1816.00000 0.00055
2495 41.41500 1692.89629 1811.00000 0.00055
2496 41.43000 1678.39716 1813.00000 0.00055
2497 41.44500 1663.76362 1757.00000 0.00057
2498 41.46000 1648.81392 1849.00000 0.00054
2499 41.47500 1633.33974 1772.00000 0.00056
2500 41.49000 1617.10756 1754.00000 0.00057
2501 41.50500 1599.86464 1785.00000 0.00056
2502 41.52000 1581.34812 1775.00000 0.00056
2503 41.53500 1561.30174 1713.00000 0.00058
2504 41.55000 1539.49941 1646.00000 0.00061
2505 41.56500 1515.77642 1660.00000 0.00060
2506 41.58000 1490.06827 1627.00000 0.00061
2507 41.59500 1462.45357 1543.00000 0.00065
2508 41.61000 1433.19505 1524.00000 0.00066
2509 41.62500 1402.75945 1447.00000 0.00069
2510 41.64000 1371.79647 1505.00000 0.00066
2511 41.65500 1341.06308 1401.00000 0.00071
2512 41.67000 1311.30469 1441.00000 0.00069
2513 41.68500 1283.13435 1380.00000 0.00072
2514 41.70000 1256.95671 1439.00000 0.00069
2515 41.71500 1232.95694 1309.00000 0.00076
2516 41.73000 1211.13941 1267.00000 0.00079
2517 41.74500 1191.38634 1269.00000 0.00079
2518 41.76000 1173.51216 1210.00000 0.00083
2519 41.77500 1157.30347 1241.00000 0.00081
2520 41.79000 1142.54415 1197.00000 0.00084
2521 41.80500 1129.02968 1115.00000 0.00090
2522 41.82000 1116.57469 1103.00000 0.00091
2523 41.83500 1105.01705 1068.00000 0.00094
2524 41.85000 1094.22046 1115.00000 0.00090
2525 41.86500 1084.07660 1098.00000 0.00091
2526 41.88000 1074.50776 1064.00000 0.00094
2527 41.89500 1065.46880 1053.00000 0.00095
2528 41.91000 1056.94678 994.00000 0.00101
2529 41.92500 1048.95810 1014.00000 0.00099
2530 41.94000 1041.53989 1018.00000 0.00098
2531 41.95500 1034.73795 988.00000 0.00101
2532 41.97000 1028.59480 1011.00000 0.00099
2533 41.98500 1023.13808 1020.00000 0.00098
2534 42.00000 1018.37914 956.00000 0.00105
2535 42.01500 1014.33285 951.00000 0.00105
2536 42.03000 1011.00322 1002.00000 0.00100
2537 42.04500 1008.39436 977.00000 0.00102
2538 42.06000 1006.51357 995.00000 0.00101
2539 42.07500 1005.37302 1012.00000 0.00099
2540 42.09000 1004.98885 982.00000 0.00102
2541 42.10500 1005.37681 986.00000 0.00101
2542 42.12000 1006.55464 943.00000 0.00106
2543 42.13500 1008.53648 1041.00000 0.00096
2544 42.15000 1011.32859 1009.00000 0.00099
2545 42.16500 1014.92521 990.00000 0.00101
2546 42.18000 1019.30579 1055.00000 0.00095
2547 42.19500 1024.43565 1044.00000 0.00096
2548 42.21000 1030.27196 1049.00000 0.00095
2549 42.22500 1036.78028 1066.00000 0.00094
2550 42.24000 1043.95497 1023.00000 0.00098
2551 42.25500 1051.83910 1030.00000 0.00097
2552 42.27000 1060.53755 1073.00000 0.00093
2553 42.28500 1070.22088 1117.00000 0.00090
2554 42.30000 1081.12310 1099.00000 0.00091
2555 42.31500 1093.53820 1205.00000 0.00083
2556 42.33000 1107.81893 1160.00000 0.00086
2557 42.34500 1124.37881 1200.00000 0.00083
2558 42.36000 1143.69642 1249.00000 0.00080
2559 42.37500 1166.31989 1236.00000 0.00081
2560 42.39000 1192.86827 1260.00000 0.00079
2561 42.40500 1224.02578 1359.00000 0.00074
2562 42.42000 1260.52326 1445.00000 0.00069
2563 42.43500 1303.10046 1402.00000 0.00071
2564 42.45000 1352.44256 1376.00000 0.00073
2565 42.46500 1409.08612 1562.00000 0.00064
2566 42.48000 1473.29165 1543.00000 0.00065
2567 42.49500 1544.88353 1705.00000 0.00059
2568 42.51000 1623.06385 1717.00000 0.00058
2569 42.52500 1706.22271 1767.00000 0.00057
2570 42.54000 1791.79856 1822.00000 0.00055
2571 42.55500 1876.28341 1853.00000 0.00054
2572 42.57000 1955.48383 1895.00000 0.00053
2573 42.58500 2025.08533 1988.00000 0.00050
2574 42.60000 2081.40610 2071.00000 0.00048
2575 42.61500 2122.06279 2046.00000 0.00049
2576 42.63000 2146.27607 2148.00000 0.00047
2577 42.64500 2154.74037 2058.00000 0.00049
2578 42.66000 2149.20136 2160.00000 0.00046
2579 42.67500 2131.96144 2021.00000 0.00049
2580 42.69000 2105.46673 2049.00000 0.00049
2581 42.70500 2072.03064 2051.00000 0.00049
2582 42.72000 2033.68207 1958.00000 0.00051
2583 42.73500 1992.10474 1941.00000 0.00052
2584 42.75000 1948.63749 1965.00000 0.00051
2585 42.76500 1904.31458 1983.00000 0.00050
2586 42.78000 1859.92889 1955.00000 0.00051
2587 42.79500 1816.10111 1934.00000 0.00052
2588 42.81000 1773.33799 1876.00000 0.00053
2589 42.82500 1732.07009 1834.00000 0.00055
2590 42.84000 1692.66999 1882.00000 0.00053
2591 42.85500 1655.45802 1763.00000 0.00057
2592 42.87000 1620.70254 1767.00000 0.00057
2593 42.88500 1588.61798 1702.00000 0.00059
2594 42.90000 1559.36084 1760.00000 0.00057
2595 42.91500 1533.02274 1591.00000 0.00063
2596 42.93000 1509.61939 1628.00000 0.00061
2597 42.94500 1489.07554 1639.00000 0.00061
2598 42.96000 1471.20711 1618.00000 0.00062
2599 42.97500 1455.70471 1525.00000 0.00066
2600 42.99000 1442.12719 1625.00000 0.00062
2601 43.00500 1429.91874 1600.00000 0.00063
2602 43.02000 1418.46288 1531.00000 0.00065
2603 43.03500 1407.17408 1494.00000 0.00067
2604 43.05000 1395.60510 1459.00000 0.00069
2605 43.06500 1383.53013 1433.00000 0.00070
2606 43.08000 1370.97086 1423.00000 0.00070
2607 43.09500 1358.16040 1503.00000 0.00067
2608 43.11000 1345.46717 1371.00000 0.00073
2609 43.12500 1333.31040 1416.00000 0.00071
2610 43.14000 1322.09013 1346.00000 0.00074
2611 43.15500 1312.13951 1416.00000 0.00071
2612 43.17000 1303.69415 1336.00000 0.00075
2613 43.18500 1296.86945 1335.00000 0.00075
2614 43.20000 1291.63906 1352.00000 0.00074
2615 43.21500 1287.81463 1270.00000 0.00079
2616 43.23000 1285.03461 1273.00000 0.00079
2617 43.24500 1282.77733 1299.00000 0.00077
2618 43.26000 1280.41369 1282.00000 0.00078
2619 43.27500 1277.30158 1255.00000 0.00080
2620 43.29000 1272.89916 1203.00000 0.00083
2621 43.30500 1266.85248 1346.00000 0.00074
2622 43.32000 1259.02760 1337.00000 0.00075
2623 43.33500 1249.48440 1147.00000 0.00087
2624 43.35000 1238.41737 1159.00000 0.00086
2625 43.36500 1226.09228 1172.00000 0.00085
2626 43.38000 1212.79621 1177.00000 0.00085
2627 43.39500 1198.80560 1154.00000 0.00087
2628 43.41000 1184.36923 1178.00000 0.00085
2629 43.42500 1169.70151 1122.00000 0.00089
2630 43.44000 1154.98160 1150.00000 0.00087
2631 43.45500 1140.35578 1120.00000 0.00089
2632 43.47000 1125.94111 1036.00000 0.00097
2633 43.48500 1111.82950 1049.00000 0.00095
2634 43.50000 1098.09180 1097.00000 0.00091
2635 43.51500 1084.78149 1082.00000 0.00092
2636 43.53000 1071.93810 1000.00000 0.00100
2637 43.54500 1059.59010 1040.00000 0.00096
2638 43.56000 1047.75748 981.00000 0.00102
2639 43.57500 1036.45395 964.00000 0.00104
2640 43.59000 1025.68873 997.00000 0.00100
2641 43.60500 1015.46814 988.00000 0.00101
2642 43.62000 1005.79677 985.00000 0.00102
2643 43.63500 996.67819 891.00000 0.00112
2644 43.65000 988.11529 933.00000 0.00107
2645 43.66500 980.11010 917.00000 0.00109
2646 43.68000 972.66333 968.00000 0.00103
2647 43.69500 965.77275 927.00000 0.00108
2648 43.71000 959.43439 870.00000 0.00115
2649 43.72500 953.64170 859.00000 0.00116
2650 43.74000 948.38533 937.00000 0.00107
2651 43.75500 943.65286 907.00000 0.00110
2652 43.77000 939.42806 943.00000 0.00106
2653 43.78500 935.69005 910.00000 0.00110
2654 43.80000 932.41253 924.00000 0.00108
2655 43.81500 929.56303 938.00000 0.00107
2656 43.83000 927.10271 976.00000 0.00102
2657 43.84500 924.98673 898.00000 0.00111
2658 43.86000 923.16569 886.00000 0.00113
2659 43.87500 921.58817 908.00000 0.00110
2660 43.89000 920.20452 973.00000 0.00103
2661 43.90500 918.97137 913.00000 0.00110
2662 43.92000 917.85331 934.00000 0.00107
2663 43.93500 916.82241 931.00000 0.00107
2664 43.95000 915.85532 883.00000 0.00113
2665 43.96500 914.92783 922.00000 0.00108
2666 43.98000 914.01469 921.00000 0.00109
2667 43.99500 913.09527 912.00000 0.00110
2668 44.01000 912.16294 933.00000 0.00107
2669 44.02500 911.22912 885.00000 0.00113
2670 44.04000 910.32037 928.00000 0.00108
2671 44.05500 909.47010 980.00000 0.00102
2672 44.07000 908.70851 965.00000 0.00104
2673 44.08500 908.05381 996.00000 0.00100
2674 44.10000 907.50620 925.00000 0.00108
2675 44.11500 907.04656 953.00000 0.00105
2676 44.13000 906.64122 913.00000 0.00110
2677 44.14500 906.24729 882.00000 0.00113
2678 44.16000 905.82488 962.00000 0.00104
2679 44.17500 905.35278 992.00000 0.00101
2680 44.19000 904.83034 1001.00000 0.00100
2681 44.20500 904.27593 972.00000 0.00103
2682 44.22000 903.72120 918.00000 0.00109
2683 44.23500 903.20422 944.00000 0.00106
2684 44.25000 902.76346 943.00000 0.00106
2685 44.26500 902.43293 943.00000 0.00106
2686 44.28000 902.23852 951.00000 0.00105
2687 44.29500 902.19507 900.00000 0.00111
2688 44.31000 902.30480 941.00000 0.00106
2689 44.32500 902.55738 943.00000 0.00106
2690 44.34000 902.93123 908.00000 0.00110
2691 44.35500 903.39856 948.00000 0.00105
2692 44.37000 903.93216 884.00000 0.00113
2693 44.38500 904.51168 864.00000 0.00116
2694 44.40000 905.12672 943.00000 0.00106
2695 44.41500 905.78633 906.00000 0.00110
2696 44.43000 906.50155 863.00000 0.00116
2697 44.44500 907.28619 879.00000 0.00114
2698 44.46000 908.15910 864.00000 0.00116
2699 44.47500 909.13914 835.00000 0.00120
2700 44.49000 910.24377 839.00000 0.00119
2701 44.50500 911.48833 837.00000 0.00119
2702 44.52000 912.88563 925.00000 0.00108
2703 44.53500 914.44580 894.00000 0.00112
2704 44.55000 916.17618 950.00000 0.00105
2705 44.56500 918.08113 811.00000 0.00123
2706 44.58000 920.16175 882.00000 0.00113
2707 44.59500 922.41546 898.00000 0.00111
2708 44.61000 924.83535 860.00000 0.00116
2709 44.62500 927.40934 855.00000 0.00117
2710 44.64000 930.11943 921.00000 0.00109
2711 44.65500 932.94061 918.00000 0.00109
2712 44.67000 935.83974 947.00000 0.00106
2713 44.68500 938.77436 940.00000 0.00106
2714 44.70000 941.69159 945.00000 0.00106
2715 44.71500 944.52727 870.00000 0.00115
2716 44.73000 947.20570 874.00000 0.00114
2717 44.74500 949.64049 1008.00000 0.00099
2718 44.76000 951.73690 929.00000 0.00108
2719 44.77500 953.39649 901.00000 0.00111
2720 44.79000 954.52450 901.00000 0.00111
2721 44.80500 955.04067 958.00000 0.00104
2722 44.82000 954.89288 910.00000 0.00110
2723 44.83500 954.07262 939.00000 0.00106
2724 44.85000 952.62884 914.00000 0.00109
2725 44.86500 950.67670 925.00000 0.00108
2726 44.88000 948.39790 972.00000 0.00103
2727 44.89500 946.03220 890.00000 0.00112
2728 44.91000 943.86103 973.00000 0.00103
2729 44.92500 942.18254 879.00000 0.00114
2730 44.94000 941.27760 1012.00000 0.00099
2731 44.95500 941.37037 905.00000 0.00110
2732 44.97000 942.59416 930.00000 0.00108
2733 44.98500 944.97442 920.00000 0.00109
2734 45.00000 948.43366 964.00000 0.00104
2735 45.01500 952.81374 933.00000 0.00107
2736 45.03000 957.90588 906.00000 0.00110
2737 45.04500 963.47818 926.00000 0.00108
2738 45.06000 969.29541 933.00000 0.00107
2739 45.07500 975.13391 941.00000 0.00106
2740 45.09000 980.79858 947.00000 0.00106
2741 45.10500 986.14484 969.00000 0.00103
2742 45.12000 991.09909 1013.00000 0.00099
2743 45.13500 995.66762 985.00000 0.00102
2744 45.15000 999.93000 1005.00000 0.00100
2745 45.16500 1004.02048 974.00000 0.00103
2746 45.18000 1008.10885 975.00000 0.00103
2747 45.19500 1012.38189 952.00000 0.00105
2748 45.21000 1017.03064 998.00000 0.00100
2749 45.22500 1022.24643 995.00000 0.00101
2750 45.24000 1028.21940 1006.00000 0.00099
2751 45.25500 1035.13889 966.00000 0.00104
2752 45.27000 1043.19413 1095.00000 0.00091
2753 45.28500 1052.57355 1073.00000 0.00093
2754 45.30000 1063.46113 1137.00000 0.00088
2755 45.31500 1076.02827 1107.00000 0.00090
2756 45.33000 1090.41975 1138.00000 0.00088
2757 45.34500 1106.73281 1173.00000 0.00085
2758 45.36000 1124.99052 1202.00000 0.00083
2759 45.37500 1145.11126 1192.00000 0.00084
2760 45.39000 1166.87623 1224.00000 0.00082
2761 45.40500 1189.91124 1231.00000 0.00081
2762 45.42000 1213.69490 1326.00000 0.00075
2763 45.43500 1237.60911 1326.00000 0.00075
2764 45.45000 1261.03133 1460.00000 0.00068
2765 45.46500 1283.44343 1491.00000 0.00067
2766 45.48000 1304.51532 1438.00000 0.00070
2767 45.49500 1324.13266 1379.00000 0.00073
2768 45.51000 1342.36825 1493.00000 0.00067
2769 45.52500 1359.42053 1539.00000 0.00065
2770 45.54000 1375.54454 1566.00000 0.00064
2771 45.55500 1390.99045 1563.00000 0.00064
2772 45.57000 1405.95304 1602.00000 0.00062
2773 45.58500 1420.52967 1571.00000 0.00064
2774 45.60000 1434.68396 1583.00000 0.00063
2775 45.61500 1448.21525 1509.00000 0.00066
2776 45.63000 1460.73928 1602.00000 0.00062
2777 45.64500 1471.69100 1604.00000 0.00062
2778 45.66000 1480.36165 1548.00000 0.00065
2779 45.67500 1485.97344 1535.00000 0.00065
2780 45.69000 1487.77655 1471.00000 0.00068
2781 45.70500 1485.13952 1480.00000 0.00068
2782 45.72000 1477.60932 1339.00000 0.00075
2783 45.73500 1464.94061 1425.00000 0.00070
2784 45.75000 1447.11221 1378.00000 0.00073
2785 45.76500 1424.34898 1378.00000 0.00073
2786 45.78000 1397.15058 1389.00000 0.00072
2787 45.79500 1366.30830 1326.00000 0.00075
2788 45.81000 1332.87745 1337.00000 0.00075
2789 45.82500 1298.07972 1294.00000 0.00077
2790 45.84000 1263.14313 1192.00000 0.00084
2791 45.85500 1229.13143 1218.00000 0.00082
2792 45.87000 1196.82451 1279.00000 0.00078
2793 45.88500 1166.68725 1183.00000 0.00085
2794 45.90000 1138.91244 1155.00000 0.00087
2795 45.91500 1113.49798 1181.00000 0.00085
2796 45.93000 1090.32369 1069.00000 0.00094
2797 45.94500 1069.21056 1140.00000 0.00088
2798 45.96000 1049.95954 1124.00000 0.00089
2799 45.97500 1032.37408 1109.00000 0.00090
2800 45.99000 1016.27158 1112.00000 0.00090
2801 46.00500 1001.48821 1050.00000 0.00095
2802 46.02000 987.87983 941.00000 0.00106
2803 46.03500 975.32026 1130.00000 0.00088
2804 46.05000 963.70157 926.00000 0.00108
2805 46.06500 952.94977 987.00000 0.00101
2806 46.08000 942.98161 992.00000 0.00101
2807 46.09500 933.72789 979.00000 0.00102
2808 46.11000 925.13397 916.00000 0.00109
2809 46.12500 917.15393 937.00000 0.00107
2810 46.14000 909.74934 915.00000 0.00109
2811 46.15500 902.88828 915.00000 0.00109
2812 46.17000 896.54455 897.00000 0.00111
2813 46.18500 890.69705 859.00000 0.00116
2814 46.20000 885.32945 818.00000 0.00122
2815 46.21500 880.42985 809.00000 0.00124
2816 46.23000 875.99074 856.00000 0.00117
2817 46.24500 872.00889 876.00000 0.00114
2818 46.26000 868.48535 890.00000 0.00112
2819 46.27500 865.42539 814.00000 0.00123
2820 46.29000 862.83778 861.00000 0.00116
2821 46.30500 860.73483 848.00000 0.00118
2822 46.32000 859.13204 719.00000 0.00139
2823 46.33500 858.04743 836.00000 0.00120
2824 46.35000 857.50101 854.00000 0.00117
2825 46.36500 857.51477 853.00000 0.00117
2826 46.38000 858.11336 755.00000 0.00132
2827 46.39500 859.32570 792.00000 0.00126
2828 46.41000 861.18687 844.00000 0.00118
2829 46.42500 863.73853 835.00000 0.00120
2830 46.44000 867.02582 825.00000 0.00121
2831 46.45500 871.08896 807.00000 0.00124
2832 46.47000 875.95101 822.00000 0.00122
2833 46.48500 881.60183 875.00000 0.00114
2834 46.50000 887.98183 807.00000 0.00124
2835 46.51500 894.97042 920.00000 0.00109
2836 46.53000 902.38530 849.00000 0.00118
2837 46.54500 909.99943 866.00000 0.00115
2838 46.56000 917.57711 860.00000 0.00116
2839 46.57500 924.92026 819.00000 0.00122
2840 46.59000 931.90679 861.00000 0.00116
2841 46.60500 938.50487 873.00000 0.00115
2842 46.62000 944.75920 884.00000 0.00113
2843 46.63500 950.75771 884.00000 0.00113
2844 46.65000 956.59105 933.00000 0.00107
2845 46.66500 962.31437 946.00000 0.00106
2846 46.68000 967.91690 921.00000 0.00109
2847 46.69500 973.30383 968.00000 0.00103
2848 46.71000 978.29664 944.00000 0.00106
2849 46.72500 982.65713 952.00000 0.00105
2850 46.74000 986.13455 986.00000 0.00101
2851 46.75500 988.52249 921.00000 0.00109
2852 46.77000 989.70347 952.00000 0.00105
2853 46.78500 989.66452 990.00000 0.00101
2854 46.80000 988.48384 989.00000 0.00101
2855 46.81500 986.30148 1014.00000 0.00099
2856 46.83000 983.28906 954.00000 0.00105
2857 46.84500 979.62682 901.00000 0.00111
2858 46.86000 975.48955 878.00000 0.00114
2859 46.87500 971.03972 926.00000 0.00108
2860 46.89000 966.42537 983.00000 0.00102
2861 46.90500 961.78059 925.00000 0.00108
2862 46.92000 957.22714 940.00000 0.00106
2863 46.93500 952.87618 941.00000 0.00106
2864 46.95000 948.82959 933.00000 0.00107
2865 46.96500 945.17966 927.00000 0.00108
2866 46.98000 942.00741 934.00000 0.00107
2867 46.99500 939.37835 927.00000 0.00108
2868 47.01000 937.33581 912.00000 0.00110
2869 47.02500 935.89133 925.00000 0.00108
2870 47.04000 935.01449 887.00000 0.00113
2871 47.05500 934.62367 854.00000 0.00117
2872 47.07000 934.58173 859.00000 0.00116
2873 47.08500 934.70291 857.00000 0.00117
2874 47.10000 934.77388 886.00000 0.00113
2875 47.11500 934.58480 921.00000 0.00109
2876 47.13000 933.96736 953.00000 0.00105
2877 47.14500 932.81653 927.00000 0.00108
2878 47.16000 931.09471 868.00000 0.00115
2879 47.17500 928.82035 940.00000 0.00106
2880 47.19000 926.04911 938.00000 0.00107
2881 47.20500 922.85567 874.00000 0.00114
2882 47.22000 919.32114 895.00000 0.00112
2883 47.23500 915.52418 865.00000 0.00116
2884 47.25000 911.53657 839.00000 0.00119
2885 47.26500 907.42145 944.00000 0.00106
2886 47.28000 903.23284 937.00000 0.00107
2887 47.29500 899.01614 928.00000 0.00108
2888 47.31000 894.80905 859.00000 0.00116
2889 47.32500 890.64242 846.00000 0.00118
2890 47.34000 886.54102 782.00000 0.00128
2891 47.35500 882.52429 790.00000 0.00127
2892 47.37000 878.60689 806.00000 0.00124
2893 47.38500 874.79963 789.00000 0.00127
2894 47.40000 871.11022 866.00000 0.00115
2895 47.41500 867.54300 821.00000 0.00122
2896 47.43000 864.09882 829.00000 0.00121
2897 47.44500 860.77739 764.00000 0.00131
2898 47.46000 857.57820 822.00000 0.00122
2899 47.47500 854.50102 763.00000 0.00131
2900 47.49000 851.54704 808.00000 0.00124
2901 47.50500 848.71921 753.00000 0.00133
2902 47.52000 846.02245 740.00000 0.00135
2903 47.53500 843.46301 728.00000 0.00137
2904 47.55000 841.04736 758.00000 0.00132
2905 47.56500 838.78109 694.00000 0.00144
2906 47.58000 836.66823 752.00000 0.00133
2907 47.59500 834.71142 727.00000 0.00138
2908 47.61000 832.91260 757.00000 0.00132
2909 47.62500 831.27423 762.00000 0.00131
2910 47.64000 829.80073 775.00000 0.00129
2911 47.65500 828.50057 787.00000 0.00127
2912 47.67000 827.38724 675.00000 0.00148
2913 47.68500 826.48062 726.00000 0.00138
2914 47.70000 825.80779 764.00000 0.00131
2915 47.71500 825.40245 744.00000 0.00134
2916 47.73000 825.30272 785.00000 0.00127
2917 47.74500 825.54753 758.00000 0.00132
2918 47.76000 826.17251 823.00000 0.00122
2919 47.77500 827.20500 757.00000 0.00132
2920 47.79000 828.65862 764.00000 0.00131
2921 47.80500 830.52692 732.00000 0.00137
2922 47.82000 832.77655 745.00000 0.00134
2923 47.83500 835.34100 740.00000 0.00135
2924 47.85000 838.11771 833.00000 0.00120
2925 47.86500 840.97283 788.00000 0.00127
2926 47.88000 843.75611 826.00000 0.00121
2927 47.89500 846.32328 818.00000 0.00122
2928 47.91000 848.56083 843.00000 0.00119
2929 47.92500 850.40243 791.00000 0.00126
2930 47.94000 851.83188 880.00000 0.00114
2931 47.95500 852.87439 855.00000 0.00117
2932 47.97000 853.58262 807.00000 0.00124
2933 47.98500 854.02310 855.00000 0.00117
2934 48.00000 854.26594 898.00000 0.00111
2935 48.01500 854.37855 848.00000 0.00118
2936 48.03000 854.42231 832.00000 0.00120
2937 48.04500 854.45133 864.00000 0.00116
2938 48.06000 854.51271 827.00000 0.00121
2939 48.07500 854.64665 927.00000 0.00108
2940 48.09000 854.88737 900.00000 0.00111
2941 48.10500 855.26402 878.00000 0.00114
2942 48.12000 855.80146 840.00000 0.00119
2943 48.13500 856.52059 906.00000 0.00110
2944 48.15000 857.43899 881.00000 0.00114
2945 48.16500 858.57284 872.00000 0.00115
2946 48.18000 859.94163 843.00000 0.00119
2947 48.19500 861.55947 906.00000 0.00110
2948 48.21000 863.43893 945.00000 0.00106
2949 48.22500 865.59221 881.00000 0.00114
2950 48.24000 868.03129 870.00000 0.00115
2951 48.25500 870.76796 910.00000 0.00110
2952 48.27000 873.81380 1005.00000 0.00100
2953 48.28500 877.18025 951.00000 0.00105
2954 48.30000 880.87860 925.00000 0.00108
2955 48.31500 884.91994 1005.00000 0.00100
2956 48.33000 889.31554 1006.00000 0.00099
2957 48.34500 894.07675 1001.00000 0.00100
2958 48.36000 899.21454 1017.00000 0.00098
2959 48.37500 904.73968 1027.00000 0.00097
2960 48.39000 910.66273 991.00000 0.00101
2961 48.40500 916.99396 991.00000 0.00101
2962 48.42000 923.74322 953.00000 0.00105
2963 48.43500 930.91971 1106.00000 0.00090
2964 48.45000 938.53155 1027.00000 0.00097
2965 48.46500 946.58544 1026.00000 0.00097
2966 48.48000 955.08618 952.00000 0.00105
2967 48.49500 964.03582 1063.00000 0.00094
2968 48.51000 973.43281 1092.00000 0.00092
2969 48.52500 983.27093 1034.00000 0.00097
2970 48.54000 993.53792 1110.00000 0.00090
2971 48.55500 1004.21400 1050.00000 0.00095
2972 48.57000 1015.26993 1031.00000 0.00097
2973 48.58500 1026.66497 981.00000 0.00102
2974 48.60000 1038.34435 1063.00000 0.00094
2975 48.61500 1050.23657 1062.00000 0.00094
2976 48.63000 1062.25050 1048.00000 0.00095
2977 48.64500 1074.27251 1101.00000 0.00091
2978 48.66000 1086.16407 1061.00000 0.00094
2979 48.67500 1097.76017 1007.00000 0.00099
2980 48.69000 1108.86917 1070.00000 0.00093
2981 48.70500 1119.27470 1141.00000 0.00088
2982 48.72000 1128.74057 1119.00000 0.00089
2983 48.73500 1137.01827 1138.00000 0.00088
2984 48.75000 1143.85839 1224.00000 0.00082
2985 48.76500 1149.02507 1180.00000 0.00085
2986 48.78000 1152.31299 1170.00000 0.00085
2987 48.79500 1153.56908 1103.00000 0.00091
2988 48.81000 1152.72190 1179.00000 0.00085
2989 48.82500 1149.81936 1232.00000 0.00081
2990 48.84000 1145.06502 1187.00000 0.00084
2991 48.85500 1138.83054 1259.00000 0.00079
2992 48.87000 1131.61986 1175.00000 0.00085
2993 48.88500 1123.97066 1292.00000 0.00077
2994 48.90000 1116.32726 1230.00000 0.00081
2995 48.91500 1108.95517 1244.00000 0.00080
2996 48.93000 1101.93249 1178.00000 0.00085
2997 48.94500 1095.21472 1303.00000 0.00077
2998 48.96000 1088.72059 1168.00000 0.00086
2999 48.97500 1082.39167 1262.00000 0.00079
3000 48.99000 1076.21208 1267.00000 0.00079
3001 49.00500 1070.20012 1247.00000 0.00080
3002 49.02000 1064.38913 1247.00000 0.00080
3003 49.03500 1058.80858 1152.00000 0.00087
3004 49.05000 1053.46973 1263.00000 0.00079
3005 49.06500 1048.35589 1240.00000 0.00081
3006 49.08000 1043.41632 1164.00000 0.00086
3007 49.09500 1038.56308 1164.00000 0.00086
3008 49.11000 1033.67065 1111.00000 0.00090
3009 49.12500 1028.57921 1089.00000 0.00092
3010 49.14000 1023.10295 1062.00000 0.00094
3011 49.15500 1017.04546 1038.00000 0.00096
3012 49.17000 1010.22325 995.00000 0.00101
3013 49.18500 1002.49775 990.00000 0.00101
3014 49.20000 993.81269 1032.00000 0.00097
3015 49.21500 984.22943 1060.00000 0.00094
3016 49.23000 973.94726 1027.00000 0.00097
3017 49.24500 963.28996 997.00000 0.00100
3018 49.26000 952.65924 977.00000 0.00102
3019 49.27500 942.45947 1001.00000 0.00100
3020 49.29000 933.02406 957.00000 0.00104
3021 49.30500 924.57594 952.00000 0.00105
3022 49.32000 917.23296 950.00000 0.00105
3023 49.33500 911.04399 969.00000 0.00103
3024 49.35000 906.03054 985.00000 0.00102
3025 49.36500 902.21470 994.00000 0.00101
3026 49.38000 899.62715 976.00000 0.00102
3027 49.39500 898.29793 939.00000 0.00106
3028 49.41000 898.23682 990.00000 0.00101
3029 49.42500 899.40683 927.00000 0.00108
3030 49.44000 901.69891 981.00000 0.00102
3031 49.45500 904.90855 964.00000 0.00104
3032 49.47000 908.72639 839.00000 0.00119
3033 49.48500 912.75307 945.00000 0.00106
3034 49.50000 916.54433 904.00000 0.00111
3035 49.51500 919.67899 887.00000 0.00113
3036 49.53000 921.82736 924.00000 0.00108
3037 49.54500 922.79362 914.00000 0.00109
3038 49.56000 922.51989 905.00000 0.00110
3039 49.57500 921.05962 932.00000 0.00107
3040 49.59000 918.53835 854.00000 0.00117
3041 49.60500 915.11684 945.00000 0.00106
3042 49.62000 910.96419 890.00000 0.00112
3043 49.63500 906.24152 867.00000 0.00115
3044 49.65000 901.09394 836.00000 0.00120
3045 49.66500 895.64788 780.00000 0.00128
3046 49.68000 890.01149 812.00000 0.00123
3047 49.69500 884.27657 838.00000 0.00119
3048 49.71000 878.52104 874.00000 0.00114
3049 49.72500 872.81146 894.00000 0.00112
3050 49.74000 867.20518 879.00000 0.00114
3051 49.75500 861.75216 906.00000 0.00110
3052 49.77000 856.49665 907.00000 0.00110
3053 49.78500 851.47867 855.00000 0.00117
3054 49.80000 846.73537 807.00000 0.00124
3055 49.81500 842.30233 820.00000 0.00122
3056 49.83000 838.21460 892.00000 0.00112
3057 49.84500 834.50755 850.00000 0.00118
3058 49.86000 831.21736 837.00000 0.00119
3059 49.87500 828.38098 873.00000 0.00115
3060 49.89000 826.03623 885.00000 0.00113
3061 49.90500 824.22075 909.00000 0.00110
3062 49.92000 822.96796 864.00000 0.00116
3063 49.93500 822.30368 881.00000 0.00114
3064 49.95000 822.23985 873.00000 0.00115
3065 49.96500 822.76587 829.00000 0.00121
3066 49.98000 823.83733 854.00000 0.00117
3067 49.99500 825.36309 866.00000 0.00115
3068 50.01000 827.19212 910.00000 0.00110
3069 50.02500 829.10371 895.00000 0.00112
3070 50.04000 830.80580 871.00000 0.00115
3071 50.05500 831.94763 852.00000 0.00117
3072 50.07000 832.15254 871.00000 0.00115
3073 50.08500 831.07322 887.00000 0.00113
3074 50.10000 828.46405 875.00000 0.00114
3075 50.11500 824.25182 908.00000 0.00110
3076 50.13000 818.57531 835.00000 0.00120
3077 50.14500 811.76646 881.00000 0.00114
3078 50.16000 804.27124 779.00000 0.00128
3079 50.17500 796.54264 832.00000 0.00120
3080 50.19000 788.95210 862.00000 0.00116
3081 50.20500 781.74759 860.00000 0.00116
3082 50.22000 775.05588 840.00000 0.00119
3083 50.23500 768.90921 824.00000 0.00121
3084 50.25000 763.27763 820.00000 0.00122
3085 50.26500 758.09562 831.00000 0.00120
3086 50.28000 753.28063 744.00000 0.00134
3087 50.29500 748.74682 818.00000 0.00122
3088 50.31000 744.41505 817.00000 0.00122
3089 50.32500 740.22169 786.00000 0.00127
3090 50.34000 736.12701 780.00000 0.00128
3091 50.35500 732.12255 763.00000 0.00131
3092 50.37000 728.23600 747.00000 0.00134
3093 50.38500 724.53080 731.00000 0.00137
3094 50.40000 721.09888 730.00000 0.00137
3095 50.41500 718.04694 770.00000 0.00130
3096 50.43000 715.47903 733.00000 0.00136
3097 50.44500 713.48205 731.00000 0.00137
3098 50.46000 712.11876 737.00000 0.00136
3099 50.47500 711.42840 708.00000 0.00141
3100 50.49000 711.43203 815.00000 0.00123
3101 50.50500 712.13842 699.00000 0.00143
3102 50.52000 713.54846 717.00000 0.00139
3103 50.53500 715.65675 754.00000 0.00133
3104 50.55000 718.45050 772.00000 0.00130
3105 50.56500 721.90617 732.00000 0.00137
3106 50.58000 725.98376 697.00000 0.00143
3107 50.59500 730.61915 752.00000 0.00133
3108 50.61000 735.71490 785.00000 0.00127
3109 50.62500 741.13010 698.00000 0.00143
3110 50.64000 746.67030 729.00000 0.00137
3111 50.65500 752.07985 708.00000 0.00141
3112 50.67000 757.03952 721.00000 0.00139
3113 50.68500 761.17544 741.00000 0.00135
3114 50.70000 764.08218 697.00000 0.00143
3115 50.71500 765.36472 698.00000 0.00143
3116 50.73000 764.69883 740.00000 0.00135
3117 50.74500 761.90248 661.00000 0.00151
3118 50.76000 757.00049 712.00000 0.00140
3119 50.77500 750.25257 663.00000 0.00151
3120 50.79000 742.12371 643.00000 0.00156
3121 50.80500 733.19388 685.00000 0.00146
3122 50.82000 724.03842 650.00000 0.00154
3123 50.83500 715.12965 655.00000 0.00153
3124 50.85000 706.79191 677.00000 0.00148
3125 50.86500 699.19761 633.00000 0.00158
3126 50.88000 692.41006 677.00000 0.00148
3127 50.89500 686.42378 696.00000 0.00144
3128 50.91000 681.19919 644.00000 0.00155
3129 50.92500 676.68554 633.00000 0.00158
3130 50.94000 672.83186 643.00000 0.00156
3131 50.95500 669.59008 636.00000 0.00157
3132 50.97000 666.91598 699.00000 0.00143
3133 50.98500 664.77036 642.00000 0.00156
3134 51.00000 663.11372 643.00000 0.00156
3135 51.01500 661.90903 645.00000 0.00155
3136 51.03000 661.12326 642.00000 0.00156
3137 51.04500 660.72822 616.00000 0.00162
3138 51.06000 660.69998 655.00000 0.00153
3139 51.07500 661.01946 659.00000 0.00152
3140 51.09000 661.67154 651.00000 0.00154
3141 51.10500 662.64389 608.00000 0.00164
3142 51.12000 663.92559 624.00000 0.00160
3143 51.13500 665.50569 628.00000 0.00159
3144 51.15000 667.37259 643.00000 0.00156
3145 51.16500 669.51318 602.00000 0.00166
3146 51.18000 671.91290 642.00000 0.00156
3147 51.19500 674.55626 642.00000 0.00156
3148 51.21000 677.42748 695.00000 0.00144
3149 51.22500 680.51084 642.00000 0.00156
3150 51.24000 683.79048 692.00000 0.00145
3151 51.25500 687.24937 644.00000 0.00155
3152 51.27000 690.86746 645.00000 0.00155
3153 51.28500 694.61894 615.00000 0.00163
3154 51.30000 698.46951 707.00000 0.00141
3155 51.31500 702.37226 660.00000 0.00152
3156 51.33000 706.26437 633.00000 0.00158
3157 51.34500 710.06468 630.00000 0.00159
3158 51.36000 713.67239 673.00000 0.00149
3159 51.37500 716.96890 673.00000 0.00149
3160 51.39000 719.82310 646.00000 0.00155
3161 51.40500 722.10043 692.00000 0.00145
3162 51.42000 723.67838 709.00000 0.00141
3163 51.43500 724.46689 672.00000 0.00149
3164 51.45000 724.43254 686.00000 0.00146
3165 51.46500 723.62236 726.00000 0.00138
3166 51.48000 722.17900 744.00000 0.00134
3167 51.49500 720.33727 693.00000 0.00144
3168 51.51000 718.39546 728.00000 0.00137
3169 51.52500 716.66653 690.00000 0.00145
3170 51.54000 715.42571 754.00000 0.00133
3171 51.55500 714.87361 732.00000 0.00137
3172 51.57000 715.12317 711.00000 0.00141
3173 51.58500 716.20608 801.00000 0.00125
3174 51.60000 718.08815 733.00000 0.00136
3175 51.61500 720.68585 714.00000 0.00140
3176 51.63000 723.88158 734.00000 0.00136
3177 51.64500 727.53961 715.00000 0.00140
3178 51.66000 731.52555 707.00000 0.00141
3179 51.67500 735.72818 733.00000 0.00136
3180 51.69000 740.07907 766.00000 0.00131
3181 51.70500 744.56395 762.00000 0.00131
3182 51.72000 749.22305 732.00000 0.00137
3183 51.73500 754.14313 816.00000 0.00123
3184 51.75000 759.44614 864.00000 0.00116
3185 51.76500 765.27828 761.00000 0.00131
3186 51.78000 771.79893 786.00000 0.00127
3187 51.79500 779.17043 775.00000 0.00129
3188 51.81000 787.54099 810.00000 0.00123
3189 51.82500 797.01724 830.00000 0.00120
3190 51.84000 807.62237 803.00000 0.00125
3191 51.85500 819.24060 788.00000 0.00127
3192 51.87000 831.55685 773.00000 0.00129
3193 51.88500 844.01206 814.00000 0.00123
3194 51.90000 855.80384 829.00000 0.00121
3195 51.91500 865.96296 741.00000 0.00135
3196 51.93000 873.51488 773.00000 0.00129
3197 51.94500 877.69179 764.00000 0.00131
3198 51.96000 878.11945 799.00000 0.00125
3199 51.97500 874.88389 794.00000 0.00126
3200 51.99000 868.46927 751.00000 0.00133
3201 52.00500 859.60793 781.00000 0.00128
3202 52.02000 849.11303 723.00000 0.00138
3203 52.03500 837.74804 814.00000 0.00123
3204 52.05000 826.15101 751.00000 0.00133
3205 52.06500 814.80672 809.00000 0.00124
3206 52.08000 804.05128 746.00000 0.00134
3207 52.09500 794.09395 706.00000 0.00142
3208 52.11000 785.04529 794.00000 0.00126
3209 52.12500 776.94483 744.00000 0.00134
3210 52.14000 769.78471 743.00000 0.00135
3211 52.15500 763.52826 754.00000 0.00133
3212 52.17000 758.12362 759.00000 0.00132
3213 52.18500 753.51331 696.00000 0.00144
3214 52.20000 749.64070 850.00000 0.00118
3215 52.21500 746.45400 807.00000 0.00124
3216 52.23000 743.90866 800.00000 0.00125
3217 52.24500 741.96874 819.00000 0.00122
3218 52.26000 740.60770 818.00000 0.00122
3219 52.27500 739.80887 772.00000 0.00130
3220 52.29000 739.56587 793.00000 0.00126
3221 52.30500 739.88295 775.00000 0.00129
3222 52.32000 740.77521 760.00000 0.00132
3223 52.33500 742.26853 837.00000 0.00119
3224 52.35000 744.39899 829.00000 0.00121
3225 52.36500 747.21121 815.00000 0.00123
3226 52.38000 750.75513 784.00000 0.00128
3227 52.39500 755.08198 822.00000 0.00122
3228 52.41000 760.23337 799.00000 0.00125
3229 52.42500 766.22895 777.00000 0.00129
3230 52.44000 773.05024 803.00000 0.00125
3231 52.45500 780.62324 762.00000 0.00131
3232 52.47000 788.80496 812.00000 0.00123
3233 52.48500 797.38161 778.00000 0.00129
3234 52.50000 806.08605 792.00000 0.00126
3235 52.51500 814.63722 769.00000 0.00130
3236 52.53000 822.79265 807.00000 0.00124
3237 52.54500 830.39598 772.00000 0.00130
3238 52.56000 837.40156 801.00000 0.00125
3239 52.57500 843.87097 853.00000 0.00117
3240 52.59000 849.94905 819.00000 0.00122
3241 52.60500 855.83180 862.00000 0.00116
3242 52.62000 861.73538 815.00000 0.00123
3243 52.63500 867.86843 852.00000 0.00117
3244 52.65000 874.40650 888.00000 0.00113
3245 52.66500 881.46694 863.00000 0.00116
3246 52.68000 889.08318 959.00000 0.00104
3247 52.69500 897.18193 926.00000 0.00108
3248 52.71000 905.57067 988.00000 0.00101
3249 52.72500 913.94440 1016.00000 0.00098
3250 52.74000 921.92380 973.00000 0.00103
3251 52.75500 929.11823 978.00000 0.00102
3252 52.77000 935.19567 983.00000 0.00102
3253 52.78500 939.93445 953.00000 0.00105
3254 52.80000 943.24007 924.00000 0.00108
3255 52.81500 945.12818 954.00000 0.00105
3256 52.83000 945.68946 972.00000 0.00103
3257 52.84500 945.05254 915.00000 0.00109
3258 52.86000 943.35446 924.00000 0.00108
3259 52.87500 940.72121 866.00000 0.00115
3260 52.89000 937.25714 924.00000 0.00108
3261 52.90500 933.04109 911.00000 0.00110
3262 52.92000 928.12727 859.00000 0.00116
3263 52.93500 922.55005 847.00000 0.00118
3264 52.95000 916.33225 890.00000 0.00112
3265 52.96500 909.49695 972.00000 0.00103
3266 52.98000 902.08238 862.00000 0.00116
3267 52.99500 894.15862 877.00000 0.00114
3268 53.01000 885.84313 872.00000 0.00115
3269 53.02500 877.31082 901.00000 0.00111
3270 53.04000 868.79424 863.00000 0.00116
3271 53.05500 860.57017 832.00000 0.00120
3272 53.07000 852.93229 914.00000 0.00109
3273 53.08500 846.15434 927.00000 0.00108
3274 53.10000 840.45258 834.00000 0.00120
3275 53.11500 835.95689 893.00000 0.00112
3276 53.13000 832.69597 852.00000 0.00117
3277 53.14500 830.59622 906.00000 0.00110
3278 53.16000 829.49259 892.00000 0.00112
3279 53.17500 829.15161 868.00000 0.00115
3280 53.19000 829.30735 862.00000 0.00116
3281 53.20500 829.70656 896.00000 0.00112
3282 53.22000 830.15171 912.00000 0.00110
3283 53.23500 830.52857 894.00000 0.00112
3284 53.25000 830.81235 871.00000 0.00115
3285 53.26500 831.05450 885.00000 0.00113
3286 53.28000 831.36209 885.00000 0.00113
3287 53.29500 831.87790 936.00000 0.00107
3288 53.31000 832.76599 920.00000 0.00109
3289 53.32500 834.20335 887.00000 0.00113
3290 53.34000 836.37613 915.00000 0.00109
3291 53.35500 839.47922 953.00000 0.00105
3292 53.37000 843.71699 872.00000 0.00115
3293 53.38500 849.30369 976.00000 0.00102
3294 53.40000 856.46201 914.00000 0.00109
3295 53.41500 865.41830 989.00000 0.00101
3296 53.43000 876.39291 946.00000 0.00106
3297 53.44500 889.58439 956.00000 0.00105
3298 53.46000 905.14643 1002.00000 0.00100
3299 53.47500 923.15700 953.00000 0.00105
3300 53.49000 943.57949 970.00000 0.00103
3301 53.50500 966.21710 961.00000 0.00104
3302 53.52000 990.66417 1018.00000 0.00098
3303 53.53500 1016.26417 1006.00000 0.00099
3304 53.55000 1042.09233 1025.00000 0.00098
3305 53.56500 1066.99085 1075.00000 0.00093
3306 53.58000 1089.69469 998.00000 0.00100
3307 53.59500 1109.07261 1055.00000 0.00095
3308 53.61000 1124.45295 1094.00000 0.00091
3309 53.62500 1135.91242 1050.00000 0.00095
3310 53.64000 1144.34985 1073.00000 0.00093
3311 53.65500 1151.23824 1111.00000 0.00090
3312 53.67000 1158.13350 1077.00000 0.00093
3313 53.68500 1166.16991 1053.00000 0.00095
3314 53.70000 1175.74878 1135.00000 0.00088
3315 53.71500 1186.48406 1108.00000 0.00090
3316 53.73000 1197.39718 1125.00000 0.00089
3317 53.74500 1207.24341 1034.00000 0.00097
3318 53.76000 1214.85204 1091.00000 0.00092
3319 53.77500 1219.37263 1180.00000 0.00085
3320 53.79000 1220.37298 1115.00000 0.00090
3321 53.80500 1217.80536 1089.00000 0.00092
3322 53.82000 1211.90169 1130.00000 0.00088
3323 53.83500 1203.05709 1121.00000 0.00089
3324 53.85000 1191.73582 1073.00000 0.00093
3325 53.86500 1178.40882 1086.00000 0.00092
3326 53.88000 1163.51814 1149.00000 0.00087
3327 53.89500 1147.46006 1105.00000 0.00090
3328 53.91000 1130.57884 1085.00000 0.00092
3329 53.92500 1113.16756 1018.00000 0.00098
3330 53.94000 1095.47221 1108.00000 0.00090
3331 53.95500 1077.69724 1115.00000 0.00090
3332 53.97000 1060.01154 963.00000 0.00104
3333 53.98500 1042.55423 993.00000 0.00101
3334 54.00000 1025.43995 974.00000 0.00103
3335 54.01500 1008.76368 976.00000 0.00102
3336 54.03000 992.60495 911.00000 0.00110
3337 54.04500 977.03149 1000.00000 0.00100
3338 54.06000 962.10242 949.00000 0.00105
3339 54.07500 947.87082 873.00000 0.00115
3340 54.09000 934.38567 850.00000 0.00118
3341 54.10500 921.69302 884.00000 0.00113
3342 54.12000 909.83600 847.00000 0.00118
3343 54.13500 898.85346 826.00000 0.00121
3344 54.15000 888.77700 875.00000 0.00114
3345 54.16500 879.62689 832.00000 0.00120
3346 54.18000 871.40427 795.00000 0.00126
3347 54.19500 864.08431 796.00000 0.00126
3348 54.21000 857.61202 812.00000 0.00123
3349 54.22500 851.90169 845.00000 0.00118
3350 54.24000 846.84371 785.00000 0.00127
3351 54.25500 842.31676 782.00000 0.00128
3352 54.27000 838.20064 794.00000 0.00126
3353 54.28500 834.38432 775.00000 0.00129
3354 54.30000 830.76731 757.00000 0.00132
3355 54.31500 827.25838 789.00000 0.00127
3356 54.33000 823.77570 812.00000 0.00123
3357 54.34500 820.25056 744.00000 0.00134
3358 54.36000 816.63114 780.00000 0.00128
3359 54.37500 812.88231 769.00000 0.00130
3360 54.39000 808.98078 689.00000 0.00145
3361 54.40500 804.91044 739.00000 0.00135
3362 54.42000 800.65976 752.00000 0.00133
3363 54.43500 796.22350 805.00000 0.00124
3364 54.45000 791.60800 724.00000 0.00138
3365 54.46500 786.83415 750.00000 0.00133
3366 54.48000 781.93675 751.00000 0.00133
3367 54.49500 776.96044 706.00000 0.00142
3368 54.51000 771.95458 767.00000 0.00130
3369 54.52500 766.96866 718.00000 0.00139
3370 54.54000 762.04921 697.00000 0.00143
3371 54.55500 757.23813 770.00000 0.00130
3372 54.57000 752.57197 764.00000 0.00131
3373 54.58500 748.08201 722.00000 0.00139
3374 54.60000 743.79456 721.00000 0.00139
3375 54.61500 739.73141 713.00000 0.00140
3376 54.63000 735.91033 707.00000 0.00141
3377 54.64500 732.34538 724.00000 0.00138
3378 54.66000 729.04718 738.00000 0.00136
3379 54.67500 726.02297 714.00000 0.00140
3380 54.69000 723.27655 783.00000 0.00128
3381 54.70500 720.80795 705.00000 0.00142
3382 54.72000 718.61293 757.00000 0.00132
3383 54.73500 716.68233 690.00000 0.00145
3384 54.75000 715.00112 697.00000 0.00143
3385 54.76500 713.54723 695.00000 0.00144
3386 54.78000 712.29013 723.00000 0.00138
3387 54.79500 711.18915 692.00000 0.00145
3388 54.81000 710.19150 740.00000 0.00135
3389 54.82500 709.23039 711.00000 0.00141
3390 54.84000 708.22332 705.00000 0.00142
3391 54.85500 707.07140 649.00000 0.00154
3392 54.87000 705.66042 697.00000 0.00143
3393 54.88500 703.86501 716.00000 0.00140
3394 54.90000 701.55719 677.00000 0.00148
3395 54.91500 698.62051 685.00000 0.00146
3396 54.93000 694.96967 726.00000 0.00138
3397 54.94500 690.57281 711.00000 0.00141
3398 54.96000 685.47198 705.00000 0.00142
3399 54.97500 679.79235 694.00000 0.00144
3400 54.99000 673.73222 655.00000 0.00153
3401 55.00500 667.53221 703.00000 0.00142
3402 55.02000 661.43238 662.00000 0.00151
3403 55.03500 655.63338 683.00000 0.00146
3404 55.05000 650.27492 695.00000 0.00144
3405 55.06500 645.43440 695.00000 0.00144
3406 55.08000 641.13895 615.00000 0.00163
3407 55.09500 637.38222 698.00000 0.00143
3408 55.11000 634.13937 635.00000 0.00157
3409 55.12500 631.37799 673.00000 0.00149
3410 55.14000 629.06548 692.00000 0.00145
3411 55.15500 627.17299 685.00000 0.00146
3412 55.17000 625.67721 703.00000 0.00142
3413 55.18500 624.56150 732.00000 0.00137
3414 55.20000 623.81620 680.00000 0.00147
3415 55.21500 623.43875 648.00000 0.00154
3416 55.23000 623.43354 698.00000 0.00143
3417 55.24500 623.81170 680.00000 0.00147
3418 55.26000 624.59050 659.00000 0.00152
3419 55.27500 625.79228 655.00000 0.00153
3420 55.29000 627.44217 662.00000 0.00151
3421 55.30500 629.56492 726.00000 0.00138
3422 55.32000 632.18001 679.00000 0.00147
3423 55.33500 635.29142 713.00000 0.00140
3424 55.35000 638.87753 661.00000 0.00151
3425 55.36500 642.87969 700.00000 0.00143
3426 55.38000 647.19446 730.00000 0.00137
3427 55.39500 651.67531 714.00000 0.00140
3428 55.41000 656.15068 672.00000 0.00149
3429 55.42500 660.46001 681.00000 0.00147
3430 55.44000 664.50191 726.00000 0.00138
3431 55.45500 668.27303 747.00000 0.00134
3432 55.47000 671.88383 749.00000 0.00134
3433 55.48500 675.54418 703.00000 0.00142
3434 55.50000 679.52890 730.00000 0.00137
3435 55.51500 684.13969 718.00000 0.00139
3436 55.53000 689.67530 738.00000 0.00136
3437 55.54500 696.41213 779.00000 0.00128
3438 55.56000 704.59437 777.00000 0.00129
3439 55.57500 714.42335 775.00000 0.00129
3440 55.59000 726.04009 707.00000 0.00141
3441 55.60500 739.50145 745.00000 0.00134
3442 55.62000 754.74850 713.00000 0.00140
3443 55.63500 771.57527 775.00000 0.00129
3444 55.65000 789.61144 730.00000 0.00137
3445 55.66500 808.33529 801.00000 0.00125
3446 55.68000 827.12632 838.00000 0.00119
3447 55.69500 845.34894 812.00000 0.00123
3448 55.71000 862.43954 879.00000 0.00114
3449 55.72500 877.96662 862.00000 0.00116
3450 55.74000 891.65205 916.00000 0.00109
3451 55.75500 903.36417 911.00000 0.00110
3452 55.77000 913.09998 921.00000 0.00109
3453 55.78500 920.96475 932.00000 0.00107
3454 55.80000 927.14778 965.00000 0.00104
3455 55.81500 931.89218 938.00000 0.00107
3456 55.83000 935.46060 955.00000 0.00105
3457 55.84500 938.10141 938.00000 0.00107
3458 55.86000 940.01937 924.00000 0.00108
3459 55.87500 941.35341 946.00000 0.00106
3460 55.89000 942.16409 945.00000 0.00106
3461 55.90500 942.43385 964.00000 0.00104
3462 55.92000 942.08161 1035.00000 0.00097
3463 55.93500 940.98930 980.00000 0.00102
3464 55.95000 939.03188 1058.00000 0.00095
3465 55.96500 936.09954 993.00000 0.00101
3466 55.98000 932.11155 913.00000 0.00110
3467 55.99500 927.01687 946.00000 0.00106
3468 56.01000 920.79152 911.00000 0.00110
3469 56.02500 913.44266 913.00000 0.00110
3470 56.04000 905.01768 975.00000 0.00103
3471 56.05500 895.61669 990.00000 0.00101
3472 56.07000 885.40224 979.00000 0.00102
3473 56.08500 874.59821 912.00000 0.00110
3474 56.10000 863.47312 855.00000 0.00117
3475 56.11500 852.30852 868.00000 0.00115
3476 56.13000 841.36173 887.00000 0.00113
3477 56.14500 830.83582 915.00000 0.00109
3478 56.16000 820.86548 868.00000 0.00115
3479 56.17500 811.51892 897.00000 0.00111
3480 56.19000 802.80790 838.00000 0.00119
3481 56.20500 794.70087 844.00000 0.00118
3482 56.22000 787.13619 854.00000 0.00117
3483 56.23500 780.03510 809.00000 0.00124
3484 56.25000 773.31442 770.00000 0.00130
3485 56.26500 766.89855 838.00000 0.00119
3486 56.28000 760.72810 811.00000 0.00123
3487 56.29500 754.76314 749.00000 0.00134
3488 56.31000 748.98141 795.00000 0.00126
3489 56.32500 743.37232 801.00000 0.00125
3490 56.34000 737.92970 769.00000 0.00130
3491 56.35500 732.64523 730.00000 0.00137
3492 56.37000 727.50333 728.00000 0.00137
3493 56.38500 722.47862 763.00000 0.00131
3494 56.40000 717.53661 674.00000 0.00148
3495 56.41500 712.63815 726.00000 0.00138
3496 56.43000 707.74642 776.00000 0.00129
3497 56.44500 702.83434 728.00000 0.00137
3498 56.46000 697.88927 704.00000 0.00142
3499 56.47500 692.91430 683.00000 0.00146
3500 56.49000 687.92647 704.00000 0.00142
3501 56.50500 682.95381 680.00000 0.00147
3502 56.52000 678.03254 644.00000 0.00155
3503 56.53500 673.20445 651.00000 0.00154
3504 56.55000 668.51408 704.00000 0.00142
3505 56.56500 664.00509 660.00000 0.00152
3506 56.58000 659.71639 641.00000 0.00156
3507 56.59500 655.67914 690.00000 0.00145
3508 56.61000 651.91567 660.00000 0.00152
3509 56.62500 648.44018 675.00000 0.00148
3510 56.64000 645.26070 684.00000 0.00146
3511 56.65500 642.38116 727.00000 0.00138
3512 56.67000 639.80425 677.00000 0.00148
3513 56.68500 637.53244 662.00000 0.00151
3514 56.70000 635.56709 685.00000 0.00146
3515 56.71500 633.90817 674.00000 0.00148
3516 56.73000 632.55353 677.00000 0.00148
3517 56.74500 631.49793 698.00000 0.00143
3518 56.76000 630.73282 685.00000 0.00146
3519 56.77500 630.24796 701.00000 0.00143
3520 56.79000 630.03562 680.00000 0.00147
3521 56.80500 630.09706 692.00000 0.00145
3522 56.82000 630.44939 650.00000 0.00154
3523 56.83500 631.12981 654.00000 0.00153
3524 56.85000 632.19503 657.00000 0.00152
3525 56.86500 633.71565 701.00000 0.00143
3526 56.88000 635.76789 618.00000 0.00162
3527 56.89500 638.42432 697.00000 0.00143
3528 56.91000 641.74558 684.00000 0.00146
3529 56.92500 645.77353 705.00000 0.00142
3530 56.94000 650.52356 660.00000 0.00152
3531 56.95500 655.97970 668.00000 0.00150
3532 56.97000 662.09141 694.00000 0.00144
3533 56.98500 668.77211 677.00000 0.00148
3534 57.00000 675.90007 694.00000 0.00144
3535 57.01500 683.32380 649.00000 0.00154
3536 57.03000 690.87403 637.00000 0.00157
3537 57.04500 698.38157 671.00000 0.00149
3538 57.06000 705.69466 676.00000 0.00148
3539 57.07500 712.68581 677.00000 0.00148
3540 57.09000 719.24249 719.00000 0.00139
3541 57.10500 725.25010 621.00000 0.00161
3542 57.12000 730.56990 707.00000 0.00141
3543 57.13500 735.02637 669.00000 0.00149
3544 57.15000 738.41255 714.00000 0.00140
3545 57.16500 740.51640 637.00000 0.00157
3546 57.18000 741.16566 705.00000 0.00142
3547 57.19500 740.27792 729.00000 0.00137
3548 57.21000 737.89653 711.00000 0.00141
3549 57.22500 734.19458 695.00000 0.00144
3550 57.24000 729.44283 674.00000 0.00148
3551 57.25500 723.95602 684.00000 0.00146
3552 57.27000 718.04061 664.00000 0.00151
3553 57.28500 711.95996 689.00000 0.00145
3554 57.30000 705.91759 658.00000 0.00152
3555 57.31500 700.05591 721.00000 0.00139
3556 57.33000 694.46237 673.00000 0.00149
3557 57.34500 689.17940 696.00000 0.00144
3558 57.36000 684.21642 669.00000 0.00149
3559 57.37500 679.56294 692.00000 0.00145
3560 57.39000 675.19955 643.00000 0.00156
3561 57.40500 671.10850 701.00000 0.00143
3562 57.42000 667.27842 678.00000 0.00147
3563 57.43500 663.70568 606.00000 0.00165
3564 57.45000 660.39359 671.00000 0.00149
3565 57.46500 657.35101 637.00000 0.00157
3566 57.48000 654.59124 676.00000 0.00148
3567 57.49500 652.13167 686.00000 0.00146
3568 57.51000 649.99403 655.00000 0.00153
3569 57.52500 648.20506 624.00000 0.00160
3570 57.54000 646.79679 677.00000 0.00148
3571 57.55500 645.80593 660.00000 0.00152
3572 57.57000 645.27090 710.00000 0.00141
3573 57.58500 645.22587 652.00000 0.00153
3574 57.60000 645.69075 658.00000 0.00152
3575 57.61500 646.65698 658.00000 0.00152
3576 57.63000 648.07007 665.00000 0.00150
3577 57.64500 649.81201 617.00000 0.00162
3578 57.66000 651.69015 662.00000 0.00151
3579 57.67500 653.44146 677.00000 0.00148
3580 57.69000 654.76041 625.00000 0.00160
3581 57.70500 655.35132 625.00000 0.00160
3582 57.72000 654.99295 610.00000 0.00164
3583 57.73500 653.59075 634.00000 0.00158
3584 57.75000 651.19336 604.00000 0.00166
3585 57.76500 647.96688 654.00000 0.00153
3586 57.78000 644.14185 649.00000 0.00154
3587 57.79500 639.95829 615.00000 0.00163
3588 57.81000 635.62714 611.00000 0.00164
3589 57.82500 631.31299 612.00000 0.00163
3590 57.84000 627.13320 631.00000 0.00158
3591 57.85500 623.16549 650.00000 0.00154
3592 57.87000 619.45904 673.00000 0.00149
3593 57.88500 616.04270 638.00000 0.00157
3594 57.90000 612.93284 586.00000 0.00171
3595 57.91500 610.13855 657.00000 0.00152
3596 57.93000 607.66520 611.00000 0.00164
3597 57.94500 605.51675 614.00000 0.00163
3598 57.96000 603.69724 604.00000 0.00166
3599 57.97500 602.21185 615.00000 0.00163
3600 57.99000 601.06756 579.00000 0.00173
3601 58.00500 600.27375 624.00000 0.00160
3602 58.02000 599.84259 582.00000 0.00172
3603 58.03500 599.79020 596.00000 0.00168
3604 58.05000 600.13642 667.00000 0.00150
3605 58.06500 600.90471 607.00000 0.00165
3606 58.08000 602.12217 661.00000 0.00151
3607 58.09500 603.81799 637.00000 0.00157
3608 58.11000 606.02002 628.00000 0.00159
3609 58.12500 608.74846 625.00000 0.00160
3610 58.14000 612.00627 643.00000 0.00156
3611 58.15500 615.76724 615.00000 0.00163
3612 58.17000 619.96536 605.00000 0.00165
3613 58.18500 624.49149 657.00000 0.00152
3614 58.20000 629.20297 618.00000 0.00162
3615 58.21500 633.94740 633.00000 0.00158
3616 58.23000 638.59306 623.00000 0.00161
3617 58.24500 643.05432 622.00000 0.00161
3618 58.26000 647.29777 611.00000 0.00164
3619 58.27500 651.33797 664.00000 0.00151
3620 58.29000 655.21897 670.00000 0.00149
3621 58.30500 658.98937 638.00000 0.00157
3622 58.32000 662.67980 694.00000 0.00144
3623 58.33500 666.28609 670.00000 0.00149
3624 58.35000 669.76191 674.00000 0.00148
3625 58.36500 673.02367 635.00000 0.00157
3626 58.38000 675.96720 649.00000 0.00154
3627 58.39500 678.49118 693.00000 0.00144
3628 58.41000 680.51844 653.00000 0.00153
3629 58.42500 682.00864 659.00000 0.00152
3630 58.44000 682.95903 672.00000 0.00149
3631 58.45500 683.39794 630.00000 0.00159
3632 58.47000 683.37475 694.00000 0.00144
3633 58.48500 682.95003 694.00000 0.00144
3634 58.50000 682.18753 682.00000 0.00147
3635 58.51500 681.14897 672.00000 0.00149
3636 58.53000 679.89107 698.00000 0.00143
3637 58.54500 678.46457 681.00000 0.00147
3638 58.56000 676.91477 713.00000 0.00140
3639 58.57500 675.28304 637.00000 0.00157
3640 58.59000 673.60910 710.00000 0.00141
3641 58.60500 671.93329 664.00000 0.00151
3642 58.62000 670.29916 668.00000 0.00150
3643 58.63500 668.75372 686.00000 0.00146
3644 58.65000 667.34655 728.00000 0.00137
3645 58.66500 666.12764 660.00000 0.00152
3646 58.68000 665.14485 664.00000 0.00151
3647 58.69500 664.44130 654.00000 0.00153
3648 58.71000 664.05418 684.00000 0.00146
3649 58.72500 664.01484 671.00000 0.00149
3650 58.74000 664.35011 714.00000 0.00140
3651 58.75500 665.08506 670.00000 0.00149
3652 58.77000 666.24721 682.00000 0.00147
3653 58.78500 667.87159 688.00000 0.00145
3654 58.80000 670.00499 649.00000 0.00154
3655 58.81500 672.70847 689.00000 0.00145
3656 58.83000 676.05671 725.00000 0.00138
3657 58.84500 680.13516 690.00000 0.00145
3658 58.86000 685.03527 720.00000 0.00139
3659 58.87500 690.84710 718.00000 0.00139
3660 58.89000 697.65339 705.00000 0.00142
3661 58.90500 705.52421 759.00000 0.00132
3662 58.92000 714.51336 677.00000 0.00148
3663 58.93500 724.65565 716.00000 0.00140
3664 58.95000 735.96349 683.00000 0.00146
3665 58.96500 748.42024 765.00000 0.00131
3666 58.98000 761.96945 738.00000 0.00136
3667 58.99500 776.49897 761.00000 0.00131
3668 59.01000 791.81928 779.00000 0.00128
3669 59.02500 807.63642 805.00000 0.00124
3670 59.04000 823.52741 755.00000 0.00132
3671 59.05500 838.93952 838.00000 0.00119
3672 59.07000 853.23157 761.00000 0.00131
3673 59.08500 865.75970 796.00000 0.00126
3674 59.10000 875.98115 842.00000 0.00119
3675 59.11500 883.53433 822.00000 0.00122
3676 59.13000 888.26697 832.00000 0.00120
3677 59.14500 890.21540 835.00000 0.00120
3678 59.16000 889.56042 834.00000 0.00120
3679 59.17500 886.58396 820.00000 0.00122
3680 59.19000 881.63554 784.00000 0.00128
3681 59.20500 875.10417 774.00000 0.00129
3682 59.22000 867.39016 775.00000 0.00129
3683 59.23500 858.87759 806.00000 0.00124
3684 59.25000 849.91227 745.00000 0.00134
3685 59.26500 840.78853 761.00000 0.00131
3686 59.28000 831.74515 751.00000 0.00133
3687 59.29500 822.96582 759.00000 0.00132
3688 59.31000 814.57937 705.00000 0.00142
3689 59.32500 806.65640 721.00000 0.00139
3690 59.34000 799.20140 737.00000 0.00136
3691 59.35500 792.14309 734.00000 0.00136
3692 59.37000 785.32895 758.00000 0.00132
3693 59.38500 778.53335 723.00000 0.00138
3694 59.40000 771.48763 775.00000 0.00129
3695 59.41500 763.93289 703.00000 0.00142
3696 59.43000 755.68233 686.00000 0.00146
3697 59.44500 746.66962 702.00000 0.00142
3698 59.46000 736.96080 724.00000 0.00138
3699 59.47500 726.73215 702.00000 0.00142
3700 59.49000 716.22321 691.00000 0.00145
3701 59.50500 705.68797 681.00000 0.00147
3702 59.52000 695.35745 711.00000 0.00141
3703 59.53500 685.41769 688.00000 0.00145
3704 59.55000 676.00167 649.00000 0.00154
3705 59.56500 667.19140 672.00000 0.00149
3706 59.58000 659.02614 660.00000 0.00152
3707 59.59500 651.51325 623.00000 0.00161
3708 59.61000 644.63867 681.00000 0.00147
3709 59.62500 638.37574 636.00000 0.00157
3710 59.64000 632.69149 650.00000 0.00154
3711 59.65500 627.55110 632.00000 0.00158
3712 59.67000 622.92056 688.00000 0.00145
3713 59.68500 618.76798 627.00000 0.00159
3714 59.70000 615.06399 645.00000 0.00155
3715 59.71500 611.78146 629.00000 0.00159
3716 59.73000 608.89468 645.00000 0.00155
3717 59.74500 606.37810 646.00000 0.00155
3718 59.76000 604.20491 626.00000 0.00160
3719 59.77500 602.34558 622.00000 0.00161
3720 59.79000 600.76724 594.00000 0.00168
3721 59.80500 599.43410 565.00000 0.00177
3722 59.82000 598.30963 600.00000 0.00167
3723 59.83500 597.35890 609.00000 0.00164
3724 59.85000 596.55113 592.00000 0.00169
3725 59.86500 595.86085 602.00000 0.00166
3726 59.88000 595.26728 625.00000 0.00160
3727 59.89500 594.75254 613.00000 0.00163
3728 59.91000 594.29943 568.00000 0.00176
3729 59.92500 593.88951 587.00000 0.00170
3730 59.94000 593.50201 569.00000 0.00176
3731 59.95500 593.11381 583.00000 0.00172
3732 59.97000 592.70088 588.00000 0.00170
3733 59.98500 592.24149 599.00000 0.00167
3734 60.00000 591.72142 585.00000 0.00171
3735 60.01500 591.14102 560.00000 0.00179
3736 60.03000 590.52289 554.00000 0.00181
3737 60.04500 589.91746 582.00000 0.00172
3738 60.06000 589.40272 572.00000 0.00175
3739 60.07500 589.07437 563.00000 0.00178
3740 60.09000 589.02569 557.00000 0.00180
3741 60.10500 589.32157 605.00000 0.00165
3742 60.12000 589.97554 511.00000 0.00196
3743 60.13500 590.93897 583.00000 0.00172
3744 60.15000 592.10780 598.00000 0.00167
3745 60.16500 593.34497 605.00000 0.00165
3746 60.18000 594.51064 538.00000 0.00186
3747 60.19500 595.48893 592.00000 0.00169
3748 60.21000 596.20371 535.00000 0.00187
3749 60.22500 596.62052 522.00000 0.00192
3750 60.24000 596.73924 561.00000 0.00178
3751 60.25500 596.58306 587.00000 0.00170
3752 60.27000 596.18843 556.00000 0.00180
3753 60.28500 595.59606 565.00000 0.00177
3754 60.30000 594.84530 567.00000 0.00176
3755 60.31500 593.97414 556.00000 0.00180
3756 60.33000 593.01743 539.00000 0.00186
3757 60.34500 592.00511 562.00000 0.00178
3758 60.36000 590.96310 568.00000 0.00176
3759 60.37500 589.91377 581.00000 0.00172
3760 60.39000 588.87651 534.00000 0.00187
3761 60.40500 587.86831 537.00000 0.00186
3762 60.42000 586.90431 634.00000 0.00158
3763 60.43500 585.99822 573.00000 0.00175
3764 60.45000 585.16271 621.00000 0.00161
3765 60.46500 584.40970 608.00000 0.00164
3766 60.48000 583.75057 626.00000 0.00160
3767 60.49500 583.19629 587.00000 0.00170
3768 60.51000 582.75767 612.00000 0.00163
3769 60.52500 582.44557 624.00000 0.00160
3770 60.54000 582.27125 617.00000 0.00162
3771 60.55500 582.24680 610.00000 0.00164
3772 60.57000 582.38555 582.00000 0.00172
3773 60.58500 582.70252 630.00000 0.00159
3774 60.60000 583.21476 641.00000 0.00156
3775 60.61500 583.94166 627.00000 0.00159
3776 60.63000 584.90488 604.00000 0.00166
3777 60.64500 586.12797 626.00000 0.00160
3778 60.66000 587.63532 681.00000 0.00147
3779 60.67500 589.44967 641.00000 0.00156
3780 60.69000 591.58757 657.00000 0.00152
3781 60.70500 594.05503 631.00000 0.00158
3782 60.72000 596.83970 589.00000 0.00170
3783 60.73500 599.90241 643.00000 0.00156
3784 60.75000 603.16961 620.00000 0.00161
3785 60.76500 606.52854 611.00000 0.00164
3786 60.78000 609.82952 591.00000 0.00169
3787 60.79500 612.89704 614.00000 0.00163
3788 60.81000 615.55041 642.00000 0.00156
3789 60.82500 617.63005 639.00000 0.00156
3790 60.84000 619.02226 599.00000 0.00167
3791 60.85500 619.67478 633.00000 0.00158
3792 60.87000 619.59967 586.00000 0.00171
3793 60.88500 618.86526 633.00000 0.00158
3794 60.90000 617.58159 615.00000 0.00163
3795 60.91500 615.88317 648.00000 0.00154
3796 60.93000 613.91207 608.00000 0.00164
3797 60.94500 611.80397 611.00000 0.00164
3798 60.96000 609.67646 630.00000 0.00159
3799 60.97500 607.62334 646.00000 0.00155
3800 60.99000 605.71437 613.00000 0.00163
3801 61.00500 603.99844 615.00000 0.00163
3802 61.02000 602.50828 636.00000 0.00157
3803 61.03500 601.26519 578.00000 0.00173
3804 61.05000 600.28275 595.00000 0.00168
3805 61.06500 599.56946 646.00000 0.00155
3806 61.08000 599.13028 646.00000 0.00155
3807 61.09500 598.96749 607.00000 0.00165
3808 61.11000 599.08093 649.00000 0.00154
3809 61.12500 599.46792 673.00000 0.00149
3810 61.14000 600.12286 654.00000 0.00153
3811 61.15500 601.03669 687.00000 0.00146
3812 61.17000 602.19626 619.00000 0.00162
3813 61.18500 603.58379 666.00000 0.00150
3814 61.20000 605.17656 618.00000 0.00162
3815 61.21500 606.94720 614.00000 0.00163
3816 61.23000 608.86474 650.00000 0.00154
3817 61.24500 610.89660 600.00000 0.00167
3818 61.26000 613.01143 605.00000 0.00165
3819 61.27500 615.18243 642.00000 0.00156
3820 61.29000 617.39049 606.00000 0.00165
3821 61.30500 619.62710 664.00000 0.00151
3822 61.32000 621.89740 652.00000 0.00153
3823 61.33500 624.22468 638.00000 0.00157
3824 61.35000 626.65686 667.00000 0.00150
3825 61.36500 629.27305 621.00000 0.00161
3826 61.38000 632.18649 669.00000 0.00149
3827 61.39500 635.53977 687.00000 0.00146
3828 61.41000 639.49090 646.00000 0.00155
3829 61.42500 644.19194 646.00000 0.00155
3830 61.44000 649.76345 661.00000 0.00151
3831 61.45500 656.26693 685.00000 0.00146
3832 61.47000 663.67689 664.00000 0.00151
3833 61.48500 671.85596 718.00000 0.00139
3834 61.50000 680.54106 595.00000 0.00168
3835 61.51500 689.35292 654.00000 0.00153
3836 61.53000 697.83777 653.00000 0.00153
3837 61.54500 705.53798 648.00000 0.00154
3838 61.56000 712.07073 670.00000 0.00149
3839 61.57500 717.18670 675.00000 0.00148
3840 61.59000 720.78970 707.00000 0.00141
3841 61.60500 722.91865 667.00000 0.00150
3842 61.62000 723.70562 657.00000 0.00152
3843 61.63500 723.33372 663.00000 0.00151
3844 61.65000 722.00076 674.00000 0.00148
3845 61.66500 719.89450 627.00000 0.00159
3846 61.68000 717.17949 694.00000 0.00144
3847 61.69500 713.99298 668.00000 0.00150
3848 61.71000 710.44701 675.00000 0.00148
3849 61.72500 706.63363 696.00000 0.00144
3850 61.74000 702.63049 667.00000 0.00150
3851 61.75500 698.50492 676.00000 0.00148
3852 61.77000 694.31627 751.00000 0.00133
3853 61.78500 690.11692 683.00000 0.00146
3854 61.80000 685.95273 687.00000 0.00146
3855 61.81500 681.86357 686.00000 0.00146
3856 61.83000 677.88389 682.00000 0.00147
3857 61.84500 674.04337 653.00000 0.00153
3858 61.86000 670.36745 690.00000 0.00145
3859 61.87500 666.87760 617.00000 0.00162
3860 61.89000 663.59135 684.00000 0.00146
3861 61.90500 660.52225 688.00000 0.00145
3862 61.92000 657.68040 680.00000 0.00147
3863 61.93500 655.07284 706.00000 0.00142
3864 61.95000 652.70413 622.00000 0.00161
3865 61.96500 650.57696 665.00000 0.00150
3866 61.98000 648.69269 687.00000 0.00146
3867 61.99500 647.05177 686.00000 0.00146
3868 62.01000 645.65395 675.00000 0.00148
3869 62.02500 644.49831 603.00000 0.00166
3870 62.04000 643.58310 660.00000 0.00152
3871 62.05500 642.90538 639.00000 0.00156
3872 62.07000 642.46072 671.00000 0.00149
3873 62.08500 642.24282 639.00000 0.00156
3874 62.10000 642.24319 625.00000 0.00160
3875 62.11500 642.45083 716.00000 0.00140
3876 62.13000 642.85178 676.00000 0.00148
3877 62.14500 643.42854 648.00000 0.00154
3878 62.16000 644.15928 610.00000 0.00164
3879 62.17500 645.01688 636.00000 0.00157
3880 62.19000 645.96762 621.00000 0.00161
3881 62.20500 646.96968 655.00000 0.00153
3882 62.22000 647.97125 655.00000 0.00153
3883 62.23500 648.90838 630.00000 0.00159
3884 62.25000 649.70268 626.00000 0.00160
3885 62.26500 650.25924 604.00000 0.00166
3886 62.28000 650.46563 621.00000 0.00161
3887 62.29500 650.19142 594.00000 0.00168
3888 62.31000 649.29205 633.00000 0.00158
3889 62.32500 647.61942 586.00000 0.00171
3890 62.34000 645.03717 587.00000 0.00170
3891 62.35500 641.44317 600.00000 0.00167
3892 62.37000 636.79622 674.00000 0.00148
3893 62.38500 631.14100 625.00000 0.00160
3894 62.40000 624.62184 614.00000 0.00163
3895 62.41500 617.47581 621.00000 0.00161
3896 62.43000 610.00143 642.00000 0.00156
3897 62.44500 602.51009 596.00000 0.00168
3898 62.46000 595.27679 611.00000 0.00164
3899 62.47500 588.50704 610.00000 0.00164
3900 62.49000 582.32690 575.00000 0.00174
3901 62.50500 576.79211 588.00000 0.00170
3902 62.52000 571.90667 574.00000 0.00174
3903 62.53500 567.64230 565.00000 0.00177
3904 62.55000 563.95400 536.00000 0.00187
3905 62.56500 560.79053 606.00000 0.00165
3906 62.58000 558.10063 600.00000 0.00167
3907 62.59500 555.83627 597.00000 0.00168
3908 62.61000 553.95444 548.00000 0.00182
3909 62.62500 552.41833 573.00000 0.00175
3910 62.64000 551.19842 571.00000 0.00175
3911 62.65500 550.27364 553.00000 0.00181
3912 62.67000 549.63199 525.00000 0.00190
3913 62.68500 549.27057 548.00000 0.00182
3914 62.70000 549.19496 514.00000 0.00195
3915 62.71500 549.41802 544.00000 0.00184
3916 62.73000 549.95812 575.00000 0.00174
3917 62.74500 550.83678 590.00000 0.00169
3918 62.76000 552.07511 591.00000 0.00169
3919 62.77500 553.68862 538.00000 0.00186
3920 62.79000 555.67994 562.00000 0.00178
3921 62.80500 558.02979 530.00000 0.00189
3922 62.82000 560.68788 545.00000 0.00183
3923 62.83500 563.56695 566.00000 0.00177
3924 62.85000 566.54414 573.00000 0.00175
3925 62.86500 569.47258 568.00000 0.00176
3926 62.88000 572.20217 551.00000 0.00181
3927 62.89500 574.60310 563.00000 0.00178
3928 62.91000 576.58402 559.00000 0.00179
3929 62.92500 578.09925 602.00000 0.00166
3930 62.94000 579.14517 569.00000 0.00176
3931 62.95500 579.74997 555.00000 0.00180
3932 62.97000 579.96152 580.00000 0.00172
3933 62.98500 579.83682 562.00000 0.00178
3934 63.00000 579.43434 545.00000 0.00183
3935 63.01500 578.80923 529.00000 0.00189
3936 63.03000 578.01077 532.00000 0.00188
3937 63.04500 577.08133 536.00000 0.00187
3938 63.06000 576.05544 556.00000 0.00180
3939 63.07500 574.96060 529.00000 0.00189
3940 63.09000 573.81780 583.00000 0.00172
3941 63.10500 572.64220 577.00000 0.00173
3942 63.12000 571.44425 531.00000 0.00188
3943 63.13500 570.23128 533.00000 0.00188
3944 63.15000 569.00925 539.00000 0.00186
3945 63.16500 567.78433 564.00000 0.00177
3946 63.18000 566.56416 550.00000 0.00182
3947 63.19500 565.35868 517.00000 0.00193
3948 63.21000 564.18056 548.00000 0.00182
3949 63.22500 563.04542 559.00000 0.00179
3950 63.24000 561.97079 574.00000 0.00174
3951 63.25500 560.97448 590.00000 0.00169
3952 63.27000 560.07209 549.00000 0.00182
3953 63.28500 559.27404 601.00000 0.00166
3954 63.30000 558.58307 513.00000 0.00195
3955 63.31500 557.99336 563.00000 0.00178
3956 63.33000 557.49198 523.00000 0.00191
3957 63.34500 557.06328 565.00000 0.00177
3958 63.36000 556.69549 574.00000 0.00174
3959 63.37500 556.38748 533.00000 0.00188
3960 63.39000 556.15263 530.00000 0.00189
3961 63.40500 556.01741 540.00000 0.00185
3962 63.42000 556.01518 528.00000 0.00189
3963 63.43500 556.17832 556.00000 0.00180
3964 63.45000 556.53122 564.00000 0.00177
3965 63.46500 557.08534 539.00000 0.00186
3966 63.48000 557.83557 582.00000 0.00172
3967 63.49500 558.75758 537.00000 0.00186
3968 63.51000 559.80791 526.00000 0.00190
3969 63.52500 560.91745 536.00000 0.00187
3970 63.54000 561.99272 510.00000 0.00196
3971 63.55500 562.92226 541.00000 0.00185
3972 63.57000 563.58903 557.00000 0.00180
3973 63.58500 563.89048 573.00000 0.00175
3974 63.60000 563.76230 548.00000 0.00182
3975 63.61500 563.19789 530.00000 0.00189
3976 63.63000 562.25394 516.00000 0.00194
3977 63.64500 561.03810 550.00000 0.00182
3978 63.66000 559.68315 557.00000 0.00180
3979 63.67500 558.31951 556.00000 0.00180
3980 63.69000 557.05660 550.00000 0.00182
3981 63.70500 555.97640 577.00000 0.00173
3982 63.72000 555.13596 584.00000 0.00171
3983 63.73500 554.57334 581.00000 0.00172
3984 63.75000 554.31349 536.00000 0.00187
3985 63.76500 554.37269 542.00000 0.00185
3986 63.78000 554.76185 595.00000 0.00168
3987 63.79500 555.48907 572.00000 0.00175
3988 63.81000 556.56149 612.00000 0.00163
3989 63.82500 557.98627 578.00000 0.00173
3990 63.84000 559.77076 600.00000 0.00167
3991 63.85500 561.92188 622.00000 0.00161
3992 63.87000 564.44553 592.00000 0.00169
3993 63.88500 567.34676 592.00000 0.00169
3994 63.90000 570.63155 615.00000 0.00163
3995 63.91500 574.31011 636.00000 0.00157
3996 63.93000 578.40030 645.00000 0.00155
3997 63.94500 582.92839 617.00000 0.00162
3998 63.96000 587.92466 641.00000 0.00156
3999 63.97500 593.41224 654.00000 0.00153
4000 63.99000 599.39016 653.00000 0.00153
4001 64.00500 605.81373 660.00000 0.00152
4002 64.02000 612.57806 630.00000 0.00159
4003 64.03500 619.51240 597.00000 0.00168
4004 64.05000 626.39219 657.00000 0.00152
4005 64.06500 632.97010 638.00000 0.00157
4006 64.08000 639.01791 661.00000 0.00151
4007 64.09500 644.36440 673.00000 0.00149
4008 64.11000 648.91606 706.00000 0.00142
4009 64.12500 652.65720 657.00000 0.00152
4010 64.14000 655.63334 671.00000 0.00149
4011 64.15500 657.92986 642.00000 0.00156
4012 64.17000 659.65208 636.00000 0.00157
4013 64.18500 660.91037 712.00000 0.00140
4014 64.20000 661.81074 649.00000 0.00154
4015 64.21500 662.44985 660.00000 0.00152
4016 64.23000 662.91290 625.00000 0.00160
4017 64.24500 663.27345 681.00000 0.00147
4018 64.26000 663.59401 621.00000 0.00161
4019 64.27500 663.92706 707.00000 0.00141
4020 64.29000 664.31626 689.00000 0.00145
4021 64.30500 664.79740 690.00000 0.00145
4022 64.32000 665.39933 697.00000 0.00143
4023 64.33500 666.14455 657.00000 0.00152
4024 64.35000 667.04960 704.00000 0.00142
4025 64.36500 668.12603 693.00000 0.00144
4026 64.38000 669.38037 708.00000 0.00141
4027 64.39500 670.81363 672.00000 0.00149
4028 64.41000 672.42192 781.00000 0.00128
4029 64.42500 674.19685 728.00000 0.00137
4030 64.44000 676.12610 697.00000 0.00143
4031 64.45500 678.19411 754.00000 0.00133
4032 64.47000 680.38260 735.00000 0.00136
4033 64.48500 682.67018 745.00000 0.00134
4034 64.50000 685.03018 804.00000 0.00124
4035 64.51500 687.42617 747.00000 0.00134
4036 64.53000 689.80554 724.00000 0.00138
4037 64.54500 692.09273 776.00000 0.00129
4038 64.56000 694.18386 727.00000 0.00138
4039 64.57500 695.94452 715.00000 0.00140
4040 64.59000 697.21152 782.00000 0.00128
4041 64.60500 697.79981 732.00000 0.00137
4042 64.62000 697.51608 779.00000 0.00128
4043 64.63500 696.18064 731.00000 0.00137
4044 64.65000 693.65790 678.00000 0.00147
4045 64.66500 689.89157 743.00000 0.00135
4046 64.68000 684.93593 758.00000 0.00132
4047 64.69500 678.96939 700.00000 0.00143
4048 64.71000 672.27805 717.00000 0.00139
4049 64.72500 665.20908 721.00000 0.00139
4050 64.74000 658.10774 724.00000 0.00138
4051 64.75500 651.26087 684.00000 0.00146
4052 64.77000 644.86533 692.00000 0.00145
4053 64.78500 639.02458 658.00000 0.00152
4054 64.80000 633.76461 633.00000 0.00158
4055 64.81500 629.05710 661.00000 0.00151
4056 64.83000 624.84126 641.00000 0.00156
4057 64.84500 621.04085 627.00000 0.00159
4058 64.86000 617.57488 672.00000 0.00149
4059 64.87500 614.36569 619.00000 0.00162
4060 64.89000 611.34479 626.00000 0.00160
4061 64.90500 608.45787 662.00000 0.00151
4062 64.92000 605.66926 618.00000 0.00162
4063 64.93500 602.96467 594.00000 0.00168
4064 64.95000 600.35090 642.00000 0.00156
4065 64.96500 597.85101 599.00000 0.00167
4066 64.98000 595.49610 601.00000 0.00166
4067 64.99500 593.31633 582.00000 0.00172
4068 65.01000 591.33520 633.00000 0.00158
4069 65.02500 589.56878 569.00000 0.00176
4070 65.04000 588.02896 638.00000 0.00157
4071 65.05500 586.72756 598.00000 0.00167
4072 65.07000 585.67761 557.00000 0.00180
4073 65.08500 584.88982 621.00000 0.00161
4074 65.10000 584.36541 603.00000 0.00166
4075 65.11500 584.08920 613.00000 0.00163
4076 65.13000 584.02765 560.00000 0.00179
4077 65.14500 584.13395 586.00000 0.00171
4078 65.16000 584.35772 530.00000 0.00189
4079 65.17500 584.65451 566.00000 0.00177
4080 65.19000 584.99201 599.00000 0.00167
4081 65.20500 585.35141 585.00000 0.00171
4082 65.22000 585.72483 590.00000 0.00169
4083 65.23500 586.11193 629.00000 0.00159
4084 65.25000 586.51637 617.00000 0.00162
4085 65.26500 586.94292 553.00000 0.00181
4086 65.28000 587.39761 581.00000 0.00172
4087 65.29500 587.89039 585.00000 0.00171
4088 65.31000 588.41922 552.00000 0.00181
4089 65.32500 588.98068 604.00000 0.00166
4090 65.34000 589.57041 616.00000 0.00162
4091 65.35500 590.18123 561.00000 0.00178
4092 65.37000 590.80326 567.00000 0.00176
4093 65.38500 591.42375 571.00000 0.00175
4094 65.40000 592.02688 604.00000 0.00166
4095 65.41500 592.59643 594.00000 0.00168
4096 65.43000 593.11205 538.00000 0.00186
4097 65.44500 593.54877 529.00000 0.00189
4098 65.46000 593.87709 570.00000 0.00175
4099 65.47500 594.06267 598.00000 0.00167
4100 65.49000 594.06635 576.00000 0.00174
4101 65.50500 593.84507 572.00000 0.00175
4102 65.52000 593.35381 547.00000 0.00183
4103 65.53500 592.54889 551.00000 0.00181
4104 65.55000 591.39340 573.00000 0.00175
4105 65.56500 589.86482 574.00000 0.00174
4106 65.58000 587.96452 617.00000 0.00162
4107 65.59500 585.72679 582.00000 0.00172
4108 65.61000 583.22317 576.00000 0.00174
4109 65.62500 580.55800 541.00000 0.00185
4110 65.64000 577.85372 602.00000 0.00166
4111 65.65500 575.22978 548.00000 0.00182
4112 65.67000 572.78303 595.00000 0.00168
4113 65.68500 570.57662 596.00000 0.00168
4114 65.70000 568.63926 574.00000 0.00174
4115 65.71500 566.97159 561.00000 0.00178
4116 65.73000 565.55496 577.00000 0.00173
4117 65.74500 564.35890 590.00000 0.00169
4118 65.76000 563.34620 581.00000 0.00172
4119 65.77500 562.47582 561.00000 0.00178
4120 65.79000 561.70413 555.00000 0.00180
4121 65.80500 560.98544 536.00000 0.00187
4122 65.82000 560.27238 586.00000 0.00171
4123 65.83500 559.51663 582.00000 0.00172
4124 65.85000 558.67051 522.00000 0.00192
4125 65.86500 557.68960 548.00000 0.00182
4126 65.88000 556.53653 514.00000 0.00195
4127 65.89500 555.18591 568.00000 0.00176
4128 65.91000 553.62947 591.00000 0.00169
4129 65.92500 551.88007 507.00000 0.00197
4130 65.94000 549.97224 567.00000 0.00176
4131 65.95500 547.95790 599.00000 0.00167
4132 65.97000 545.89707 557.00000 0.00180
4133 65.98500 543.84708 505.00000 0.00198
4134 66.00000 541.85415 513.00000 0.00195
4135 66.01500 539.94941 560.00000 0.00179
4136 66.03000 538.14945 521.00000 0.00192
4137 66.04500 536.45954 597.00000 0.00168
4138 66.06000 534.87691 584.00000 0.00171
4139 66.07500 533.39393 526.00000 0.00190
4140 66.09000 532.00019 524.00000 0.00191
4141 66.10500 530.68374 549.00000 0.00182
4142 66.12000 529.43177 538.00000 0.00186
4143 66.13500 528.23098 537.00000 0.00186
4144 66.15000 527.06763 518.00000 0.00193
4145 66.16500 525.92747 493.00000 0.00203
4146 66.18000 524.79584 519.00000 0.00193
4147 66.19500 523.65797 491.00000 0.00204
4148 66.21000 522.49947 519.00000 0.00193
4149 66.22500 521.30747 514.00000 0.00195
4150 66.24000 520.07222 504.00000 0.00198
4151 66.25500 518.78938 516.00000 0.00194
4152 66.27000 517.46263 510.00000 0.00196
4153 66.28500 516.10567 471.00000 0.00212
4154 66.30000 514.74285 546.00000 0.00183
4155 66.31500 513.40715 523.00000 0.00191
4156 66.33000 512.13573 550.00000 0.00182
4157 66.34500 510.96412 512.00000 0.00195
4158 66.36000 509.92137 468.00000 0.00214
4159 66.37500 509.02772 511.00000 0.00196
4160 66.39000 508.29516 530.00000 0.00189
4161 66.40500 507.72986 500.00000 0.00200
4162 66.42000 507.33515 512.00000 0.00195
4163 66.43500 507.11407 542.00000 0.00185
4164 66.45000 507.07110 507.00000 0.00197
4165 66.46500 507.21310 529.00000 0.00189
4166 66.48000 507.54984 501.00000 0.00200
4167 66.49500 508.09406 484.00000 0.00207
4168 66.51000 508.86130 495.00000 0.00202
4169 66.52500 509.86900 504.00000 0.00198
4170 66.54000 511.13495 467.00000 0.00214
4171 66.55500 512.67457 510.00000 0.00196
4172 66.57000 514.49678 522.00000 0.00192
4173 66.58500 516.59882 510.00000 0.00196
4174 66.60000 518.96063 527.00000 0.00190
4175 66.61500 521.54097 478.00000 0.00209
4176 66.63000 524.27745 515.00000 0.00194
4177 66.64500 527.09250 500.00000 0.00200
4178 66.66000 529.90429 535.00000 0.00187
4179 66.67500 532.63911 531.00000 0.00188
4180 66.69000 535.23998 502.00000 0.00199
4181 66.70500 537.66843 463.00000 0.00216
4182 66.72000 539.90032 532.00000 0.00188
4183 66.73500 541.91926 528.00000 0.00189
4184 66.75000 543.71134 503.00000 0.00199
4185 66.76500 545.26529 510.00000 0.00196
4186 66.78000 546.57600 510.00000 0.00196
4187 66.79500 547.64872 473.00000 0.00211
4188 66.81000 548.50134 513.00000 0.00195
4189 66.82500 549.16312 506.00000 0.00198
4190 66.84000 549.67052 476.00000 0.00210
4191 66.85500 550.06171 521.00000 0.00192
4192 66.87000 550.37099 507.00000 0.00197
4193 66.88500 550.62410 520.00000 0.00192
4194 66.90000 550.83504 521.00000 0.00192
4195 66.91500 551.00488 523.00000 0.00191
4196 66.93000 551.12348 532.00000 0.00188
4197 66.94500 551.17382 554.00000 0.00181
4198 66.96000 551.13807 529.00000 0.00189
4199 66.97500 551.00310 517.00000 0.00193
4200 66.99000 550.76389 485.00000 0.00206
4201 67.00500 550.42411 536.00000 0.00187
4202 67.02000 549.99470 533.00000 0.00188
4203 67.03500 549.49144 507.00000 0.00197
4204 67.05000 548.93267 582.00000 0.00172
4205 67.06500 548.33750 544.00000 0.00184
4206 67.08000 547.72469 583.00000 0.00172
4207 67.09500 547.11206 526.00000 0.00190
4208 67.11000 546.51625 549.00000 0.00182
4209 67.12500 545.95277 512.00000 0.00195
4210 67.14000 545.43617 538.00000 0.00186
4211 67.15500 544.98025 606.00000 0.00165
4212 67.17000 544.59831 550.00000 0.00182
4213 67.18500 544.30338 565.00000 0.00177
4214 67.20000 544.10868 560.00000 0.00179
4215 67.21500 544.02840 570.00000 0.00175
4216 67.23000 544.07694 564.00000 0.00177
4217 67.24500 544.26961 558.00000 0.00179
4218 67.26000 544.62305 616.00000 0.00162
4219 67.27500 545.15545 523.00000 0.00191
4220 67.29000 545.88681 593.00000 0.00169
4221 67.30500 546.83886 583.00000 0.00172
4222 67.32000 548.03493 588.00000 0.00170
4223 67.33500 549.49915 575.00000 0.00174
4224 67.35000 551.25503 559.00000 0.00179
4225 67.36500 553.32288 562.00000 0.00178
4226 67.38000 555.71592 560.00000 0.00179
4227 67.39500 558.43504 559.00000 0.00179
4228 67.41000 561.46300 595.00000 0.00168
4229 67.42500 564.75986 586.00000 0.00171
4230 67.44000 568.26226 650.00000 0.00154
4231 67.45500 571.88889 583.00000 0.00172
4232 67.47000 575.55297 606.00000 0.00165
4233 67.48500 579.17893 578.00000 0.00173
4234 67.50000 582.71423 610.00000 0.00164
4235 67.51500 586.13656 596.00000 0.00168
4236 67.53000 589.45268 578.00000 0.00173
4237 67.54500 592.69147 576.00000 0.00174
4238 67.56000 595.89512 602.00000 0.00166
4239 67.57500 599.10987 593.00000 0.00169
4240 67.59000 602.37944 604.00000 0.00166
4241 67.60500 605.74025 615.00000 0.00163
4242 67.62000 609.21806 582.00000 0.00172
4243 67.63500 612.82551 575.00000 0.00174
4244 67.65000 616.56008 644.00000 0.00155
4245 67.66500 620.40209 602.00000 0.00166
4246 67.68000 624.31263 592.00000 0.00169
4247 67.69500 628.23155 614.00000 0.00163
4248 67.71000 632.07568 626.00000 0.00160
4249 67.72500 635.73823 647.00000 0.00155
4250 67.74000 639.09074 589.00000 0.00170
4251 67.75500 641.98805 593.00000 0.00169
4252 67.77000 644.27959 609.00000 0.00164
4253 67.78500 645.82792 635.00000 0.00157
4254 67.80000 646.53410 615.00000 0.00163
4255 67.81500 646.36588 627.00000 0.00159
4256 67.83000 645.37991 573.00000 0.00175
4257 67.84500 643.72599 699.00000 0.00143
4258 67.86000 641.62491 624.00000 0.00160
4259 67.87500 639.32219 641.00000 0.00156
4260 67.89000 637.03329 652.00000 0.00153
4261 67.90500 634.90213 629.00000 0.00159
4262 67.92000 632.98777 663.00000 0.00151
4263 67.93500 631.28215 649.00000 0.00154
4264 67.95000 629.74869 647.00000 0.00155
4265 67.96500 628.36505 594.00000 0.00168
4266 67.98000 627.15300 629.00000 0.00159
4267 67.99500 626.18228 606.00000 0.00165
4268 68.01000 625.54570 617.00000 0.00162
4269 68.02500 625.31546 582.00000 0.00172
4270 68.04000 625.50022 638.00000 0.00157
4271 68.05500 626.02164 676.00000 0.00148
4272 68.07000 626.72195 678.00000 0.00147
4273 68.08500 627.40246 670.00000 0.00149
4274 68.10000 627.88254 649.00000 0.00154
4275 68.11500 628.05921 668.00000 0.00150
4276 68.13000 627.94294 616.00000 0.00162
4277 68.14500 627.65440 643.00000 0.00156
4278 68.16000 627.38598 603.00000 0.00166
4279 68.17500 627.34951 643.00000 0.00156
4280 68.19000 627.73339 615.00000 0.00163
4281 68.20500 628.68059 570.00000 0.00175
4282 68.22000 630.28591 601.00000 0.00166
4283 68.23500 632.60395 618.00000 0.00162
4284 68.25000 635.66015 581.00000 0.00172
4285 68.26500 639.46047 603.00000 0.00166
4286 68.28000 643.99770 577.00000 0.00173
4287 68.29500 649.25486 693.00000 0.00144
4288 68.31000 655.20592 619.00000 0.00162
4289 68.32500 661.81460 596.00000 0.00168
4290 68.34000 669.03153 595.00000 0.00168
4291 68.35500 676.79006 600.00000 0.00167
4292 68.37000 685.00089 675.00000 0.00148
4293 68.38500 693.54556 639.00000 0.00156
4294 68.40000 702.26886 660.00000 0.00152
4295 68.41500 710.97061 635.00000 0.00157
4296 68.43000 719.39771 675.00000 0.00148
4297 68.44500 727.23787 637.00000 0.00157
4298 68.46000 734.11826 626.00000 0.00160
4299 68.47500 739.61337 640.00000 0.00156
4300 68.49000 743.26797 631.00000 0.00158
4301 68.50500 744.63996 632.00000 0.00158
4302 68.52000 743.36445 661.00000 0.00151
4303 68.53500 739.23107 707.00000 0.00141
4304 68.55000 732.25566 627.00000 0.00159
4305 68.56500 722.71844 685.00000 0.00146
4306 68.58000 711.14366 622.00000 0.00161
4307 68.59500 698.21594 662.00000 0.00151
4308 68.61000 684.65843 630.00000 0.00159
4309 68.62500 671.11698 668.00000 0.00150
4310 68.64000 658.08746 624.00000 0.00160
4311 68.65500 645.89650 613.00000 0.00163
4312 68.67000 634.72134 643.00000 0.00156
4313 68.68500 624.62596 697.00000 0.00143
4314 68.70000 615.59627 666.00000 0.00150
4315 68.71500 607.56743 645.00000 0.00155
4316 68.73000 600.44287 676.00000 0.00148
4317 68.74500 594.10815 619.00000 0.00162
4318 68.76000 588.44300 618.00000 0.00162
4319 68.77500 583.33306 651.00000 0.00154
4320 68.79000 578.68072 653.00000 0.00153
4321 68.80500 574.41274 732.00000 0.00137
4322 68.82000 570.48263 595.00000 0.00168
4323 68.83500 566.86781 632.00000 0.00158
4324 68.85000 563.56333 625.00000 0.00160
4325 68.86500 560.57488 635.00000 0.00157
4326 68.88000 557.91305 575.00000 0.00174
4327 68.89500 555.58969 644.00000 0.00155
4328 68.91000 553.61621 652.00000 0.00153
4329 68.92500 552.00350 634.00000 0.00158
4330 68.94000 550.76149 645.00000 0.00155
4331 68.95500 549.89968 635.00000 0.00157
4332 68.97000 549.42713 613.00000 0.00163
4333 68.98500 549.35165 620.00000 0.00161
4334 69.00000 549.67790 657.00000 0.00152
4335 69.01500 550.40435 594.00000 0.00168
4336 69.03000 551.51939 590.00000 0.00169
4337 69.04500 552.99729 644.00000 0.00155
4338 69.06000 554.79565 698.00000 0.00143
4339 69.07500 556.85535 630.00000 0.00159
4340 69.09000 559.10406 605.00000 0.00165
4341 69.10500 561.46214 618.00000 0.00162
4342 69.12000 563.84793 606.00000 0.00165
4343 69.13500 566.18407 595.00000 0.00168
4344 69.15000 568.39849 600.00000 0.00167
4345 69.16500 570.42212 609.00000 0.00164
4346 69.18000 572.18452 602.00000 0.00166
4347 69.19500 573.60931 594.00000 0.00168
4348 69.21000 574.61185 560.00000 0.00179
4349 69.22500 575.10091 582.00000 0.00172
4350 69.24000 574.98586 585.00000 0.00171
4351 69.25500 574.18992 656.00000 0.00152
4352 69.27000 572.66843 559.00000 0.00179
4353 69.28500 570.42806 595.00000 0.00168
4354 69.30000 567.54019 584.00000 0.00171
4355 69.31500 564.14081 581.00000 0.00172
4356 69.33000 560.41323 542.00000 0.00185
4357 69.34500 556.55770 563.00000 0.00178
4358 69.36000 552.75897 592.00000 0.00169
4359 69.37500 549.16298 607.00000 0.00165
4360 69.39000 545.86798 585.00000 0.00171
4361 69.40500 542.92793 599.00000 0.00167
4362 69.42000 540.36261 569.00000 0.00176
4363 69.43500 538.16906 569.00000 0.00176
4364 69.45000 536.33128 526.00000 0.00190
4365 69.46500 534.82721 497.00000 0.00201
4366 69.48000 533.63317 525.00000 0.00190
4367 69.49500 532.72638 598.00000 0.00167
4368 69.51000 532.08627 557.00000 0.00180
4369 69.52500 531.69493 592.00000 0.00169
4370 69.54000 531.53728 548.00000 0.00182
4371 69.55500 531.60103 570.00000 0.00175
4372 69.57000 531.87661 515.00000 0.00194
4373 69.58500 532.35714 548.00000 0.00182
4374 69.60000 533.03846 544.00000 0.00184
4375 69.61500 533.91919 534.00000 0.00187
4376 69.63000 535.00036 546.00000 0.00183
4377 69.64500 536.28536 502.00000 0.00199
4378 69.66000 537.77877 501.00000 0.00200
4379 69.67500 539.48496 524.00000 0.00191
4380 69.69000 541.40810 528.00000 0.00189
4381 69.70500 543.55138 543.00000 0.00184
4382 69.72000 545.91626 528.00000 0.00189
4383 69.73500 548.50125 568.00000 0.00176
4384 69.75000 551.30013 548.00000 0.00182
4385 69.76500 554.29905 539.00000 0.00186
4386 69.78000 557.47251 497.00000 0.00201
4387 69.79500 560.77798 576.00000 0.00174
4388 69.81000 564.15023 519.00000 0.00193
4389 69.82500 567.49656 600.00000 0.00167
4390 69.84000 570.69574 516.00000 0.00194
4391 69.85500 573.60275 559.00000 0.00179
4392 69.87000 576.06024 537.00000 0.00186
4393 69.88500 577.91526 584.00000 0.00171
4394 69.90000 579.03780 553.00000 0.00181
4395 69.91500 579.33820 549.00000 0.00182
4396 69.93000 578.78199 590.00000 0.00169
4397 69.94500 577.40092 575.00000 0.00174
4398 69.96000 575.29722 575.00000 0.00174
4399 69.97500 572.63677 560.00000 0.00179
4400 69.99000 569.62779 573.00000 0.00175
4401 70.00500 566.48767 546.00000 0.00183
4402 70.02000 563.40611 546.00000 0.00183
4403 70.03500 560.51525 553.00000 0.00181
4404 70.05000 557.87341 532.00000 0.00188
4405 70.06500 555.46469 522.00000 0.00192
4406 70.08000 553.21305 531.00000 0.00188
4407 70.09500 551.00863 515.00000 0.00194
4408 70.11000 548.74129 514.00000 0.00195
4409 70.12500 546.33246 505.00000 0.00198
4410 70.14000 543.75504 542.00000 0.00185
4411 70.15500 541.03560 540.00000 0.00185
4412 70.17000 538.24108 482.00000 0.00207
4413 70.18500 535.45757 534.00000 0.00187
4414 70.20000 532.77147 477.00000 0.00210
4415 70.21500 530.25697 480.00000 0.00208
4416 70.23000 527.97053 526.00000 0.00190
4417 70.24500 525.95072 511.00000 0.00196
4418 70.26000 524.22084 515.00000 0.00194
4419 70.27500 522.79242 525.00000 0.00190
4420 70.29000 521.66827 540.00000 0.00185
4421 70.30500 520.84464 528.00000 0.00189
4422 70.32000 520.31208 540.00000 0.00185
4423 70.33500 520.05595 526.00000 0.00190
4424 70.35000 520.05666 542.00000 0.00185
4425 70.36500 520.29012 526.00000 0.00190
4426 70.38000 520.72987 480.00000 0.00208
4427 70.39500 521.34990 516.00000 0.00194
4428 70.41000 522.12718 518.00000 0.00193
4429 70.42500 523.04290 503.00000 0.00199
4430 70.44000 524.08180 528.00000 0.00189
4431 70.45500 525.22998 513.00000 0.00195
4432 70.47000 526.47241 502.00000 0.00199
4433 70.48500 527.79126 501.00000 0.00200
4434 70.50000 529.16532 527.00000 0.00190
4435 70.51500 530.57004 526.00000 0.00190
4436 70.53000 531.97705 559.00000 0.00179
4437 70.54500 533.35307 551.00000 0.00181
4438 70.56000 534.65948 560.00000 0.00179
4439 70.57500 535.85515 541.00000 0.00185
4440 70.59000 536.90409 502.00000 0.00199
4441 70.60500 537.78677 471.00000 0.00212
4442 70.62000 538.50994 527.00000 0.00190
4443 70.63500 539.10904 506.00000 0.00198
4444 70.65000 539.64118 503.00000 0.00199
4445 70.66500 540.17204 550.00000 0.00182
4446 70.68000 540.76344 539.00000 0.00186
4447 70.69500 541.46593 540.00000 0.00185
4448 70.71000 542.31732 549.00000 0.00182
4449 70.72500 543.34508 533.00000 0.00188
4450 70.74000 544.57026 539.00000 0.00186
4451 70.75500 546.01132 526.00000 0.00190
4452 70.77000 547.68712 571.00000 0.00175
4453 70.78500 549.61883 574.00000 0.00174
4454 70.80000 551.83145 531.00000 0.00188
4455 70.81500 554.35476 614.00000 0.00163
4456 70.83000 557.22418 560.00000 0.00179
4457 70.84500 560.48139 563.00000 0.00178
4458 70.86000 564.17482 582.00000 0.00172
4459 70.87500 568.35968 583.00000 0.00172
4460 70.89000 573.09708 650.00000 0.00154
4461 70.90500 578.45165 605.00000 0.00165
4462 70.92000 584.48668 627.00000 0.00159
4463 70.93500 591.25488 668.00000 0.00150
4464 70.95000 598.78342 604.00000 0.00166
4465 70.96500 607.05181 625.00000 0.00160
4466 70.98000 615.96312 657.00000 0.00152
4467 70.99500 625.31357 652.00000 0.00153
4468 71.01000 634.77044 650.00000 0.00154
4469 71.02500 643.87636 708.00000 0.00141
4470 71.04000 652.09548 680.00000 0.00147
4471 71.05500 658.90272 731.00000 0.00137
4472 71.07000 663.89304 681.00000 0.00147
4473 71.08500 666.87163 669.00000 0.00149
4474 71.10000 667.88363 690.00000 0.00145
4475 71.11500 667.18105 624.00000 0.00160
4476 71.13000 665.14819 628.00000 0.00159
4477 71.14500 662.21750 655.00000 0.00153
4478 71.16000 658.80146 597.00000 0.00168
4479 71.17500 655.25074 669.00000 0.00149
4480 71.19000 651.83620 622.00000 0.00161
4481 71.20500 648.74722 694.00000 0.00144
4482 71.22000 646.10023 605.00000 0.00165
4483 71.23500 643.95042 612.00000 0.00163
4484 71.25000 642.30359 638.00000 0.00157
4485 71.26500 641.12657 607.00000 0.00165
4486 71.28000 640.35619 650.00000 0.00154
4487 71.29500 639.90715 595.00000 0.00168
4488 71.31000 639.67972 608.00000 0.00164
4489 71.32500 639.56751 604.00000 0.00166
4490 71.34000 639.46525 682.00000 0.00147
4491 71.35500 639.27662 639.00000 0.00156
4492 71.37000 638.92226 649.00000 0.00154
4493 71.38500 638.34821 666.00000 0.00150
4494 71.40000 637.53388 649.00000 0.00154
4495 71.41500 636.49690 645.00000 0.00155
4496 71.43000 635.29206 662.00000 0.00151
4497 71.44500 634.00312 631.00000 0.00158
4498 71.46000 632.72610 660.00000 0.00152
4499 71.47500 631.55318 687.00000 0.00146
4500 71.49000 630.56104 679.00000 0.00147
4501 71.50500 629.80524 671.00000 0.00149
4502 71.52000 629.31920 742.00000 0.00135
4503 71.53500 629.11486 701.00000 0.00143
4504 71.55000 629.18345 698.00000 0.00143
4505 71.56500 629.49610 614.00000 0.00163
4506 71.58000 630.00443 639.00000 0.00156
4507 71.59500 630.64115 620.00000 0.00161
4508 71.61000 631.32148 616.00000 0.00162
4509 71.62500 631.94736 646.00000 0.00155
4510 71.64000 632.41671 598.00000 0.00167
4511 71.65500 632.63850 648.00000 0.00154
4512 71.67000 632.55002 642.00000 0.00156
4513 71.68500 632.12938 628.00000 0.00159
4514 71.70000 631.39568 624.00000 0.00160
4515 71.71500 630.39525 576.00000 0.00174
4516 71.73000 629.18008 555.00000 0.00180
4517 71.74500 627.78835 600.00000 0.00167
4518 71.76000 626.23460 576.00000 0.00174
4519 71.77500 624.51095 614.00000 0.00163
4520 71.79000 622.59586 527.00000 0.00190
4521 71.80500 620.46595 628.00000 0.00159
4522 71.82000 618.10771 548.00000 0.00182
4523 71.83500 615.52764 605.00000 0.00165
4524 71.85000 612.75955 530.00000 0.00189
4525 71.86500 609.86667 573.00000 0.00175
4526 71.88000 606.93580 623.00000 0.00161
4527 71.89500 604.06361 590.00000 0.00169
4528 71.91000 601.33977 558.00000 0.00179
4529 71.92500 598.83321 544.00000 0.00184
4530 71.94000 596.58612 574.00000 0.00174
4531 71.95500 594.61566 600.00000 0.00167
4532 71.97000 592.92025 592.00000 0.00169
4533 71.98500 591.48682 620.00000 0.00161
4534 72.00000 590.29669 567.00000 0.00176
4535 72.01500 589.32945 610.00000 0.00164
4536 72.03000 588.56534 595.00000 0.00168
4537 72.04500 587.98673 624.00000 0.00160
4538 72.06000 587.57954 614.00000 0.00163
4539 72.07500 587.33491 603.00000 0.00166
4540 72.09000 587.25100 630.00000 0.00159
4541 72.10500 587.33455 593.00000 0.00169
4542 72.12000 587.60161 601.00000 0.00166
4543 72.13500 588.07698 624.00000 0.00160
4544 72.15000 588.79213 542.00000 0.00185
4545 72.16500 589.78315 571.00000 0.00175
4546 72.18000 591.08882 610.00000 0.00164
4547 72.19500 592.74892 639.00000 0.00156
4548 72.21000 594.80269 651.00000 0.00154
4549 72.22500 597.28646 640.00000 0.00156
4550 72.24000 600.22943 613.00000 0.00163
4551 72.25500 603.64573 623.00000 0.00161
