#------------------------------------------------------------------------------
#$Date: 2020-05-05 16:23:25 +0300 (Tue, 05 May 2020) $
#$Revision: 251636 $
#$URL: file:///home/coder/svn-repositories/cod/cif/7/70/37/7703729.cif $
#------------------------------------------------------------------------------
#
# This file is available in the Crystallography Open Database (COD),
# http://www.crystallography.net/
#
# All data on this site have been placed in the public domain by the
# contributors.
#
data_7703729
loop_
_publ_author_name
'Lu, Hui-Shu'
'Han, Wang-Kang'
'Yan, Xiaodong'
'Xu, Ya-Xin'
'Zhang, Hai-Xia'
'Li, Tao'
'Gong, Yu'
'Hu, Qing-Tao'
'Gu, Zhi-Guo'
_publ_section_title
;
 Supramolecular assemblies based on Fe<sub>8</sub>L<sub>12</sub> cubic
 metal-organic cages: synergistic adsorption and spin-crossover
 properties.
;
_journal_issue                   14
_journal_name_full
'Dalton transactions (Cambridge, England : 2003)'
_journal_page_first              4220
_journal_page_last               4224
_journal_paper_doi               10.1039/d0dt00353k
_journal_volume                  49
_journal_year                    2020
_chemical_absolute_configuration rmad
_chemical_formula_moiety         'C432 H480 Fe8 N72 O48 [+ anion] [+ solvent]'
_chemical_formula_sum            'C432 H480 F0 Fe8 N72 O48 S0'
_chemical_formula_weight         7895.65
_space_group_crystal_system      tetragonal
_space_group_IT_number           97
_space_group_name_Hall           'I 4 2'
_space_group_name_H-M_alt        'I 4 2 2'
_atom_sites_solution_hydrogens   geom
_audit_creation_method           SHELXL-2014/7
_audit_update_record
;
2019-09-12 deposited with the CCDC.	2020-03-11 downloaded from the CCDC.
;
_cell_angle_alpha                90
_cell_angle_beta                 90
_cell_angle_gamma                90
_cell_formula_units_Z            2
_cell_length_a                   34.9266(13)
_cell_length_b                   34.9266(13)
_cell_length_c                   25.815(2)
_cell_measurement_reflns_used    7130
_cell_measurement_temperature    172(2)
_cell_measurement_theta_max      21.56
_cell_measurement_theta_min      2.70
_cell_volume                     31491(3)
_computing_cell_refinement       'SAINT (Bruker, 2016)'
_computing_data_collection       'APEX3 (Bruker, 2016)'
_computing_data_reduction        SAINT
_computing_molecular_graphics    'Diamond 3'
_computing_publication_material  'Diamond 3'
_computing_structure_refinement  'SHELXL-2014/7 (Sheldrick, 2014)'
_computing_structure_solution    'SHELXS-2014/7 (Sheldrick, 2014)'
_diffrn_ambient_temperature      172(2)
_diffrn_measured_fraction_theta_full 0.980
_diffrn_measured_fraction_theta_max 0.980
_diffrn_measurement_device_type  'PHOTON 100 CMOS detector'
_diffrn_measurement_method       'omega scan'
_diffrn_radiation_type           MoK\a
_diffrn_radiation_wavelength     0.71073
_diffrn_reflns_av_R_equivalents  0.1347
_diffrn_reflns_av_unetI/netI     0.1477
_diffrn_reflns_Laue_measured_fraction_full 0.980
_diffrn_reflns_Laue_measured_fraction_max 0.980
_diffrn_reflns_limit_h_max       26
_diffrn_reflns_limit_h_min       -38
_diffrn_reflns_limit_k_max       38
_diffrn_reflns_limit_k_min       -38
_diffrn_reflns_limit_l_max       22
_diffrn_reflns_limit_l_min       -28
_diffrn_reflns_number            34627
_diffrn_reflns_point_group_measured_fraction_full 0.978
_diffrn_reflns_point_group_measured_fraction_max 0.978
_diffrn_reflns_theta_full        23.273
_diffrn_reflns_theta_max         23.273
_diffrn_reflns_theta_min         2.702
_diffrn_source                   'sealed tube'
_exptl_absorpt_coefficient_mu    0.230
_exptl_absorpt_correction_T_max  0.7452
_exptl_absorpt_correction_T_min  0.5022
_exptl_absorpt_correction_type   multi-scan
_exptl_absorpt_process_details   'SADABS (Bruker, 2014)'
_exptl_crystal_colour            purple
_exptl_crystal_density_diffrn    0.833
_exptl_crystal_description       block
_exptl_crystal_F_000             8336
_exptl_crystal_size_max          0.380
_exptl_crystal_size_mid          0.360
_exptl_crystal_size_min          0.350
_refine_diff_density_max         0.462
_refine_diff_density_min         -0.639
_refine_diff_density_rms         0.065
_refine_ls_abs_structure_details
;
 Flack x determined using 1558 quotients [(I+)-(I-)]/[(I+)+(I-)]
 (Parsons, Flack and Wagner, Acta Cryst. B69 (2013) 249-259).
;
_refine_ls_abs_structure_Flack   0.13(2)
_refine_ls_extinction_method     none
_refine_ls_goodness_of_fit_ref   1.186
_refine_ls_hydrogen_treatment    constr
_refine_ls_matrix_type           full
_refine_ls_number_parameters     723
_refine_ls_number_reflns         11092
_refine_ls_number_restraints     404
_refine_ls_restrained_S_all      1.180
_refine_ls_R_factor_all          0.2090
_refine_ls_R_factor_gt           0.0847
_refine_ls_shift/su_max          0.005
_refine_ls_shift/su_mean         0.000
_refine_ls_structure_factor_coef Fsqd
_refine_ls_weighting_details
'w=1/[\s^2^(Fo^2^)+(0.0993P)^2^+4.9627P] where P=(Fo^2^+2Fc^2^)/3'
_refine_ls_weighting_scheme      calc
_refine_ls_wR_factor_gt          0.2043
_refine_ls_wR_factor_ref         0.2615
_reflns_Friedel_coverage         0.827
_reflns_Friedel_fraction_full    0.976
_reflns_Friedel_fraction_max     0.976
_reflns_number_gt                4982
_reflns_number_total             11092
_reflns_threshold_expression     'I > 2\s(I)'
_cod_data_source_file            d0dt00353k2.cif
_cod_data_source_block           422_sq
_cod_depositor_comments
'Adding full bibliography for 7703729--7703730.cif.'
_cod_database_code               7703729
_shelx_shelxl_version_number     2014/7
_shelx_space_group_comment
;
The symmetry employed for this shelxl refinement is uniquely defined
by the following loop, which should always be used as a source of
symmetry information in preference to the above space-group names.
They are only intended as comments.
;
_shelx_estimated_absorpt_t_min   0.918
_shelx_estimated_absorpt_t_max   0.924
_shelx_res_file
;

    422_sq.res created by SHELXL-2014/7


TITL 422 in I422
CELL 0.71073  34.9266  34.9266  25.8155  90.000  90.000  90.000
ZERR    2.00   0.0013   0.0013   0.0021   0.000   0.000   0.000
LATT -2
SYMM -X, -Y, Z
SYMM -Y, X, Z
SYMM Y, -X, Z
SYMM -X, Y, -Z
SYMM X, -Y, -Z
SYMM Y, X, -Z
SYMM -Y, -X, -Z
SFAC C  H  F  Fe N  O  S
UNIT 864 960 0 16 144 96 0
l.s. 10
BOND $h
size 0.38 0.36 0.35
acta
FMAP 2
PLAN 20
abin
flat c11z > o2z
flat c11a > o2a
simu .02 c11a > c19z
dfix 2.25 .04 c18a c15a c18z c15z
dfix 1.43 c18a o2a c18z o2z
sadi o2a c14a o2a c16a o2z c14z o2z c16z
dfix 1.4 o2a c15a o2z c15z
sadi c11a c13a c11a c17a c11z c13z c11z c17z
sadi c12a c19a c12z c19z
sadi n3a c19a n3a c19z
sadi n3a c12a n3a c12z
dfix 1.53 c11a c19a c11z c19z
dfix 1.5 c11a c12a c11z c12z
sadi .02 n3a c11a n3a c11z
omit 0 5 3
omit 0 11 0
TEMP -100.650
WGHT    0.099270    4.962700
FVAR       0.06524   0.41591
C1A   1    0.363677    0.636790    0.761986    11.00000    0.07143    0.07372 =
         0.08971   -0.00542    0.01899   -0.01028
AFIX  43
H1AA  2    0.349977    0.650594    0.787713    11.00000   -1.20000
AFIX   0
C2A   1    0.348695    0.634387    0.709826    11.00000    0.08682    0.08455 =
         0.07538   -0.00848   -0.01169    0.00923
C3A   1    0.368139    0.614251    0.674613    11.00000    0.08088    0.08922 =
         0.06856    0.00498    0.01443   -0.03106
AFIX  43
H3AA  2    0.358602    0.612730    0.640211    11.00000   -1.20000
AFIX   0
C4A   1    0.401904    0.595507    0.687006    11.00000    0.09907    0.05524 =
         0.11820   -0.00477   -0.02079   -0.00930
AFIX  43
H4AA  2    0.413098    0.579458    0.661445    11.00000   -1.20000
AFIX   0
C5A   1    0.298909    0.659074    0.655224    11.00000    0.07956    0.06145 =
         0.06349    0.00295    0.00690   -0.00378
AFIX  23
H5AA  2    0.293337    0.686705    0.651185    11.00000   -1.20000
H5AB  2    0.318311    0.651736    0.629089    11.00000   -1.20000
AFIX   0
C6A   1    0.263625    0.636520    0.647561    11.00000    0.07391    0.08617 =
         0.05950    0.00585    0.00840    0.00477
AFIX  23
H6AA  2    0.245950    0.641768    0.676689    11.00000   -1.20000
H6AB  2    0.250978    0.645288    0.615356    11.00000   -1.20000
AFIX   0
C7A   1    0.263556    0.569794    0.685565    11.00000    0.05848    0.07649 =
         0.07476    0.00708   -0.00151    0.00735
C8A   1    0.286510    0.574035    0.605824    11.00000    0.08141    0.11037 =
         0.05442   -0.00247    0.02639    0.00937
AFIX  43
H8AA  2    0.295989    0.582955    0.573511    11.00000   -1.20000
AFIX   0
C9A   1    0.286919    0.536258    0.623751    11.00000    0.08857    0.04309 =
         0.04395   -0.00120   -0.01224   -0.00429
AFIX  43
H9AA  2    0.295598    0.514664    0.604704    11.00000   -1.20000
AFIX   0
C10A  1    0.248166    0.577633    0.736571    11.00000    0.09054    0.07564 =
         0.05854   -0.01473    0.00826    0.00363
AFIX  43
H10A  2    0.241277    0.601984    0.750060    11.00000   -1.20000
AFIX   0
C2B   1    0.398257    0.618867    0.774692    11.00000    0.06534    0.11392 =
         0.09481    0.02764    0.00577   -0.01372
C3B   1    0.418860    0.598444    0.730488    11.00000    0.07520    0.05405 =
         0.12074    0.00852    0.01609   -0.00231
AFIX  43
H3BA  2    0.443784    0.588149    0.735304    11.00000   -1.20000
AFIX   0
C5B   1    0.438813    0.602746    0.848211    11.00000    0.10611    0.13273 =
         0.14398    0.04175    0.00445   -0.01133
AFIX  23
H5BA  2    0.444904    0.582321    0.822929    11.00000   -1.20000
H5BB  2    0.429041    0.590280    0.880014    11.00000   -1.20000
AFIX   0
C6B   1    0.472843    0.622797    0.860403    11.00000    0.11396    0.16277 =
         0.10331    0.04544    0.00329   -0.00016
AFIX  23
H6BA  2    0.491945    0.604367    0.873853    11.00000   -1.20000
H6BB  2    0.467285    0.641408    0.888334    11.00000   -1.20000
AFIX   0
C7B   1    0.483182    0.681029    0.798002    11.00000    0.09127    0.06335 =
         0.03558   -0.00176   -0.00403    0.00269
C8B   1    0.515253    0.625514    0.778473    11.00000    0.08004    0.07968 =
         0.14507   -0.01552    0.03167   -0.00623
AFIX  43
H8BA  2    0.523727    0.599669    0.778873    11.00000   -1.20000
AFIX   0
C9B   1    0.522599    0.651556    0.747525    11.00000    0.05161    0.05910 =
         0.07910   -0.00283    0.00335   -0.00891
AFIX  43
H9BA  2    0.540384    0.648330    0.720026    11.00000   -1.20000
AFIX   0
C10B  1    0.460206    0.711150    0.815147    11.00000    0.06537    0.10203 =
         0.06422    0.01228    0.01824   -0.01733
AFIX  43
H10B  2    0.443653    0.709832    0.844293    11.00000   -1.20000
AFIX   0
C11B  1    0.438864    0.774257    0.799517    11.00000    0.07897    0.12336 =
         0.07431   -0.01546    0.02014   -0.00294
AFIX  13
H11A  2    0.453844    0.797700    0.790360    11.00000   -1.20000
AFIX   0
C12B  1    0.404669    0.774191    0.765242    11.00000    0.05833    0.08115 =
         0.09420   -0.00110    0.01146   -0.00315
C13B  1    0.393659    0.807616    0.743282    11.00000    0.08398    0.08428 =
         0.07580   -0.01580    0.00427   -0.00301
AFIX  43
H13A  2    0.408267    0.830219    0.748613    11.00000   -1.20000
AFIX   0
C14B  1    0.360015    0.808661    0.712122    11.00000    0.07909    0.06264 =
         0.14217   -0.00927    0.01090    0.01235
AFIX  43
H14A  2    0.351423    0.832398    0.698419    11.00000   -1.20000
AFIX   0
C15B  1    0.339977    0.776056    0.701697    11.00000    0.07420    0.10104 =
         0.07632    0.00181    0.01282    0.03086
C16B  1    0.351023    0.742509    0.726109    11.00000    0.05794    0.08571 =
         0.09761   -0.01502    0.00274    0.00819
AFIX  43
H16A  2    0.336942    0.719522    0.721203    11.00000   -1.20000
AFIX   0
C17B  1    0.383315    0.743157    0.758119    11.00000    0.07250    0.08933 =
         0.07178    0.00667    0.01459    0.01335
AFIX  43
H17A  2    0.390327    0.720285    0.775630    11.00000   -1.20000
AFIX   0
C18B  1    0.299010    0.806352    0.649333    11.00000    0.12897    0.26345 =
         0.18609   -0.10501    0.01107   -0.01598
AFIX  33
H18A  2    0.276254    0.801897    0.627958    11.00000   -1.50000
H18B  2    0.293110    0.825405    0.676034    11.00000   -1.50000
H18C  2    0.319915    0.815792    0.627469    11.00000   -1.50000
AFIX   0
C19B  1    0.428919    0.777852    0.857114    11.00000    0.14008    0.16015 =
         0.11407   -0.00758    0.05364    0.01767
AFIX  33
H19A  2    0.452529    0.777729    0.877628    11.00000   -1.50000
H19B  2    0.415114    0.801883    0.863045    11.00000   -1.50000
H19C  2    0.412755    0.756243    0.867513    11.00000   -1.50000
AFIX   0
C1C   1    0.229748    0.500000    0.500000    10.50000    0.06402    0.07452 =
         0.07416   -0.00035    0.00000    0.00000
AFIX  43
H1C   2    0.202548    0.500001    0.500001    10.50000   -1.20000
AFIX   0
C2C   1    0.249304    0.467490    0.515415    11.00000    0.09019    0.05677 =
         0.08863    0.00079   -0.01664   -0.00742
C3C   1    0.287739    0.468380    0.516137    11.00000    0.09994    0.06981 =
         0.06638   -0.01749   -0.00482    0.01776
AFIX  43
H3CA  2    0.301874    0.446844    0.527950    11.00000   -1.20000
AFIX   0
C4C   1    0.305939    0.500000    0.500000    10.50000    0.10339    0.09019 =
         0.06805   -0.02838    0.00000    0.00000
AFIX  43
H4C   2    0.333139    0.500000    0.500000    10.50000   -1.20000
AFIX   0
C5C   1    0.239353    0.399708    0.536087    11.00000    0.09939    0.06475 =
         0.06174   -0.00856    0.00103   -0.00585
AFIX  23
H5CA  2    0.266021    0.399207    0.523111    11.00000   -1.20000
H5CB  2    0.223703    0.381976    0.514948    11.00000   -1.20000
AFIX   0
C6C   1    0.237926    0.388435    0.593188    11.00000    0.09753    0.07432 =
         0.07546   -0.01113   -0.00492   -0.01126
AFIX  23
H6CA  2    0.211018    0.389664    0.605129    11.00000   -1.20000
H6CB  2    0.246561    0.361555    0.596597    11.00000   -1.20000
AFIX   0
C7C   1    0.248754    0.442595    0.659441    11.00000    0.05093    0.06956 =
         0.11473    0.02704   -0.00034   -0.00567
C8C   1    0.297617    0.410467    0.633479    11.00000    0.09986    0.07339 =
         0.06348   -0.00086    0.00428    0.01121
AFIX  43
H8CA  2    0.314102    0.393080    0.616059    11.00000   -1.20000
AFIX   0
C9C   1    0.310434    0.439061    0.671909    11.00000    0.06743    0.06429 =
         0.11283   -0.00717   -0.00422    0.00560
AFIX  43
H9CA  2    0.335426    0.443168    0.685326    11.00000   -1.20000
AFIX   0
C10C  1    0.211189    0.458037    0.664817    11.00000    0.07262    0.08425 =
         0.05145   -0.00023   -0.00627   -0.01225
AFIX  43
H10C  2    0.188642    0.449240    0.648024    11.00000   -1.20000
AFIX   0
C11C  1    0.176986    0.509959    0.707190    11.00000    0.04882    0.13386 =
         0.10012    0.00115    0.00048   -0.00762
AFIX  13
H11B  2    0.176865    0.519333    0.743792    11.00000   -1.20000
AFIX   0
C12C  1    0.177222    0.543435    0.671032    11.00000    0.06956    0.06622 =
         0.09445   -0.00154   -0.00113    0.00444
C13C  1    0.165767    0.578982    0.687014    11.00000    0.09816    0.09604 =
         0.07956    0.00040   -0.00194    0.00153
AFIX  43
H13B  2    0.160681    0.582535    0.722844    11.00000   -1.20000
AFIX   0
C14C  1    0.161330    0.608545    0.656080    11.00000    0.11558    0.11681 =
         0.09697   -0.04033    0.00505    0.03323
AFIX  43
H14B  2    0.150125    0.631219    0.669619    11.00000   -1.20000
AFIX   0
C15C  1    0.171835    0.607994    0.606880    11.00000    0.09509    0.11891 =
         0.15938   -0.00437    0.00263    0.02062
C16C  1    0.182669    0.568428    0.585352    11.00000    0.08398    0.10276 =
         0.08509   -0.00986   -0.01189    0.01157
AFIX  43
H16B  2    0.186694    0.565288    0.549206    11.00000   -1.20000
AFIX   0
C17C  1    0.186228    0.540385    0.614920    11.00000    0.07117    0.08466 =
         0.06468    0.01077    0.00271    0.01361
AFIX  43
H17B  2    0.194858    0.516636    0.601300    11.00000   -1.20000
AFIX   0
C18C  1    0.161142    0.669228    0.588178    11.00000    0.18992    0.13827 =
         0.16360    0.01473    0.01579   -0.02361
AFIX  33
H18D  2    0.163589    0.690494    0.563636    11.00000   -1.50000
H18E  2    0.133990    0.664512    0.595314    11.00000   -1.50000
H18F  2    0.174315    0.675758    0.620511    11.00000   -1.50000
AFIX   0
C19C  1    0.140647    0.486293    0.697039    11.00000    0.07477    0.14376 =
         0.13507   -0.00013    0.00178    0.03016
AFIX  33
H19D  2    0.140107    0.464233    0.720487    11.00000   -1.50000
H19E  2    0.118004    0.502251    0.703080    11.00000   -1.50000
H19F  2    0.140661    0.477306    0.661077    11.00000   -1.50000
AFIX   0
FE1   4    0.262933    0.499091    0.727038    11.00000    0.06197    0.05929 =
         0.05412    0.00032    0.00687   -0.00155
N1A   5    0.272314    0.535409    0.674843    11.00000    0.07126    0.05176 =
         0.05027    0.01142   -0.00421    0.00981
N2A   5    0.269651    0.595901    0.644198    11.00000    0.06758    0.06186 =
         0.05736    0.00944    0.00020    0.00104
N3A   5    0.245583    0.544727    0.760469    11.00000    0.06445    0.07013 =
         0.06131   -0.00953    0.00918    0.01793
N1B   5    0.503371    0.685557    0.755418    11.00000    0.09271    0.07710 =
         0.05828    0.00532    0.00392   -0.01073
N2B   5    0.490846    0.644937    0.812860    11.00000    0.10048    0.11132 =
         0.10355    0.01206   -0.00314   -0.01547
N3B   5    0.464271    0.740455    0.786844    11.00000    0.06492    0.08944 =
         0.05720   -0.00368    0.00571    0.00311
N1C   5    0.277842    0.457824    0.683141    11.00000    0.04588    0.06145 =
         0.05644    0.00306    0.01110   -0.00784
N2C   5    0.261150    0.412238    0.626730    11.00000    0.06055    0.05701 =
         0.07713   -0.01015    0.00899    0.00075
N3C   5    0.213730    0.486601    0.697266    11.00000    0.06773    0.07064 =
         0.06079   -0.00539   -0.00751    0.00161
O1A   6    0.313781    0.651315    0.708469    11.00000    0.07846    0.08367 =
         0.07553    0.00487   -0.01962   -0.00909
O1B   6    0.409752    0.626220    0.827438    11.00000    0.11354    0.18810 =
         0.08992    0.03825   -0.00903    0.00493
O2B   6    0.309824    0.772813    0.672410    11.00000    0.10186    0.09454 =
         0.11721    0.01619   -0.00381    0.01920
O1C   6    0.223726    0.438669    0.533828    11.00000    0.12234    0.09976 =
         0.07267    0.00592    0.00037   -0.02158
O2C   6    0.177090    0.637311    0.567536    11.00000    0.17386    0.10697 =
         0.11508    0.00616    0.02205    0.02909
PART   1
C11A  1    0.230072    0.549936    0.815865    21.00000    0.12290    0.11120 =
         0.05220   -0.01430    0.00235    0.01720
AFIX  13
H11C  2    0.215559    0.525810    0.822901    21.00000   -1.20000
AFIX   0
same c12a c17a < c13a
same c15a c16a c17a c12a c13a c14a
same c15a c14a c13a c12a c17a c16a
same c12z > c17z
same c12z c17z < c13z
same c15z c16z c17z c12z c13z c14z
same c15z c14z c13z c12z c17z c16z
C12A  1    0.260940    0.550561    0.856732    21.00000    0.14360    0.11905 =
         0.05945   -0.01140    0.00577    0.01070
C13A  1    0.294721    0.568995    0.848480    21.00000    0.13882    0.12045 =
         0.05330    0.00062    0.00549    0.00823
AFIX  43
H13C  2    0.298550    0.583212    0.817538    21.00000   -1.20000
AFIX   0
C14A  1    0.325117    0.566879    0.887334    21.00000    0.15520    0.13869 =
         0.07830    0.00322   -0.00033   -0.00836
AFIX  43
H14C  2    0.350012    0.576640    0.880598    21.00000   -1.20000
AFIX   0
C15A  1    0.316267    0.550354    0.933515    21.00000    0.17615    0.15215 =
         0.08478    0.00151   -0.00941   -0.00344
C16A  1    0.281245    0.533316    0.942133    21.00000    0.17230    0.14276 =
         0.07862   -0.00284   -0.00120    0.00561
AFIX  43
H16C  2    0.276056    0.522389    0.975093    21.00000   -1.20000
AFIX   0
C17A  1    0.252444    0.531664    0.902611    21.00000    0.14264    0.13255 =
         0.07219   -0.01209    0.01347    0.00720
AFIX  43
H17C  2    0.228960    0.518431    0.907534    21.00000   -1.20000
AFIX   0
O2A   6    0.341837    0.549632    0.973896    21.00000    0.19854    0.18815 =
         0.12018    0.00139   -0.00690   -0.01233
C18A  1    0.370680    0.578882    0.967031    21.00000    0.23094    0.18619 =
         0.12802    0.01461    0.00188   -0.04859
AFIX  33
H18G  2    0.388722    0.578051    0.996083    21.00000   -1.50000
H18H  2    0.384489    0.574337    0.934562    21.00000   -1.50000
H18I  2    0.358383    0.604085    0.965795    21.00000   -1.50000
AFIX   0
C19A  1    0.199772    0.582455    0.823064    21.00000    0.13625    0.12251 =
         0.05477   -0.00417    0.01922    0.03846
AFIX  33
H19G  2    0.180495    0.580692    0.795582    21.00000   -1.50000
H19H  2    0.187316    0.579637    0.856866    21.00000   -1.50000
H19I  2    0.212511    0.607419    0.821255    21.00000   -1.50000
AFIX   0
PART   2
C11Z  1    0.237538    0.546047    0.820416   -21.00000    0.12157    0.10871 =
         0.05353   -0.01324    0.00160    0.01945
AFIX  13
H11D  2    0.224832    0.521415    0.830131   -21.00000   -1.20000
AFIX   0
C12Z  1    0.273512    0.549569    0.852656   -21.00000    0.11996    0.11047 =
         0.04216   -0.00810    0.00883    0.00867
C13Z  1    0.302420    0.573275    0.837869   -21.00000    0.13820    0.10919 =
         0.05644   -0.00027   -0.00423    0.00294
AFIX  43
H13D  2    0.300079    0.588521    0.807559   -21.00000   -1.20000
AFIX   0
C14Z  1    0.336700    0.574875    0.868992   -21.00000    0.13939    0.13511 =
         0.06922    0.00246    0.00501   -0.01385
AFIX  43
H14D  2    0.357995    0.589471    0.857412   -21.00000   -1.20000
AFIX   0
C15Z  1    0.338846    0.555417    0.915393   -21.00000    0.16167    0.16202 =
         0.08387    0.00545   -0.01589   -0.01632
C16Z  1    0.309651    0.532895    0.930782   -21.00000    0.17940    0.15678 =
         0.08469    0.00492   -0.00755   -0.00109
AFIX  43
H16D  2    0.311664    0.518755    0.962100   -21.00000   -1.20000
AFIX   0
C17Z  1    0.274986    0.530158    0.899528   -21.00000    0.16397    0.14292 =
         0.07917   -0.00282    0.01168    0.00214
AFIX  43
H17E  2    0.253803    0.515365    0.911032   -21.00000   -1.20000
AFIX   0
O2Z   6    0.373234    0.557456    0.942078   -21.00000    0.22582    0.22726 =
         0.12094    0.00348    0.01679   -0.01877
C18Z  1    0.376366    0.548263    0.993481   -21.00000    0.26423    0.26742 =
         0.15350    0.03087   -0.05739   -0.00256
AFIX  33
H18J  2    0.402961    0.551647    1.004683   -21.00000   -1.50000
H18K  2    0.359669    0.565024    1.013890   -21.00000   -1.50000
H18L  2    0.368709    0.521540    0.998648   -21.00000   -1.50000
AFIX   0
C19Z  1    0.208518    0.580106    0.834492   -21.00000    0.15519    0.14397 =
         0.03015    0.00042    0.00180    0.00509
AFIX  33
H19J  2    0.185277    0.577663    0.813481   -21.00000   -1.50000
H19K  2    0.201784    0.578675    0.871293   -21.00000   -1.50000
H19L  2    0.220768    0.604784    0.827298   -21.00000   -1.50000
PART   0

AFIX   0
HKLF 4

REM  422 in I422
REM R1 =  0.0847 for    4982 Fo > 4sig(Fo)  and  0.2090 for all   11092 data
REM    723 parameters refined using    404 restraints

END

WGHT      0.1439     47.5619

REM Highest difference peak  0.462,  deepest hole -0.639,  1-sigma level  0.065
Q1    1   0.4907  0.7675  0.7792  11.00000  0.05    0.46
Q2    1   0.4844  0.7714  0.7656  11.00000  0.05    0.45
Q3    1   0.2349  0.4518  0.7237  11.00000  0.05    0.41
Q4    1   0.2441  0.5005  0.6701  11.00000  0.05    0.41
Q5    1   0.2653  0.4930  0.6632  11.00000  0.05    0.39
Q6    1   0.2311  0.5050  0.7788  11.00000  0.05    0.34
Q7    1   0.2660  0.3579  0.6444  11.00000  0.05    0.33
Q8    1   0.2254  0.5183  0.7638  11.00000  0.05    0.33
Q9    1   0.4502  0.6491  0.7754  11.00000  0.05    0.32
Q10   1   0.4590  0.7237  0.7494  11.00000  0.05    0.32
Q11   1   0.2697  0.5403  0.7574  11.00000  0.05    0.31
Q12   1   0.5003  0.7282  0.7896  11.00000  0.05    0.30
Q13   1   0.2617  0.4999  0.7456  11.00000  0.05    0.30
Q14   1   0.3499  0.4710  0.7072  11.00000  0.05    0.30
Q15   1   0.3012  0.4917  0.6882  11.00000  0.05    0.29
Q16   1   0.4459  0.6510  0.7722  11.00000  0.05    0.29
Q17   1   0.3033  0.5011  0.6884  11.00000  0.05    0.28
Q18   1   0.5067  0.6897  0.6971  11.00000  0.05    0.27
Q19   1   0.2130  0.6012  0.7701  11.00000  0.05    0.27
Q20   1   0.4406  0.6592  0.7619  11.00000  0.05    0.27
;
_shelx_res_checksum              32697
_shelx_fab_file
;
    1    5    0    298.86   -132.29
    3    5    0    139.89    -68.13
    5    5    0   -254.49    -21.44
    4    6    0     14.41    -12.78
    2    6    0    155.43     14.84
    0    6    0     95.60     50.35
    5    7    0     85.47    -21.14
    3    7    0    -19.08    -39.77
    1    7    0    142.97   -162.57
    7    7    0    -81.18    -23.20
    4    8    0      8.72    -11.94
    6    8    0    -82.13    -13.56
    8    8    0    129.99    -19.00
    7    9    0    -62.98     -2.76
    5    9    0     13.70     -8.78
    3    9    0    217.62    -37.16
    9    9    0    101.43     17.46
    8   10    0      2.90    -35.45
    6   10    0     15.76     -9.03
    4   10    0    -35.71    -12.89
    2   10    0     38.60    -16.22
    0   10    0     25.22    -19.96
   10   10    0    161.02     -1.86
    9   11    0     77.87     10.12
    7   11    0     46.22      8.43
    5   11    0    -52.72    -10.69
    3   11    0     93.18     -3.25
    1   11    0     56.19      1.09
   11   11    0     17.54     12.91
   10   12    0    -36.26     -4.64
    8   12    0     95.76      3.62
    6   12    0     43.11     -1.82
    4   12    0    -61.92     -3.32
    2   12    0    -21.67     -5.85
    0   12    0    -52.26    -14.12
   12   12    0    -35.16      5.35
   11   13    0     24.77      1.63
    9   13    0    -28.34      8.17
    7   13    0     18.51     -0.58
    5   13    0     58.87     -0.29
    3   13    0    -39.25      3.70
    1   13    0     72.44    -13.50
   13   13    0    -23.19     -2.64
   12   14    0     39.98      1.74
   10   14    0    -30.74     -1.86
    8   14    0      1.36      4.38
    6   14    0      8.91     11.02
    4   14    0    -17.25     -6.10
    2   14    0    -38.09     -0.10
    0   14    0     35.28     25.96
   14   14    0     12.68     16.54
   13   15    0      9.34      0.44
   11   15    0     -8.52      4.54
    9   15    0     22.05      5.69
    7   15    0    -28.05      2.41
    5   15    0    -90.26      7.94
    3   15    0     53.75      5.67
    1   15    0     22.67    -19.20
   15   15    0      2.24     -7.11
   14   16    0    -28.54      4.13
   12   16    0     -2.33      4.19
   10   16    0     92.01     -2.85
    8   16    0    -52.79      0.49
    6   16    0    -39.90      5.78
    4   16    0      9.28      0.18
    2   16    0     49.31      6.65
    0   16    0     12.70      4.68
   16   16    0     42.92      8.78
   15   17    0     33.55     -1.53
   13   17    0     -7.25      2.53
   11   17    0     32.83      8.71
    9   17    0     55.76      2.04
    7   17    0    -59.16      0.89
    5   17    0     21.04      8.90
    3   17    0    -41.14      3.95
    1   17    0     36.52      4.73
   17   17    0      0.42     -4.71
   16   18    0    -22.40      0.87
   14   18    0    -11.47      2.50
   12   18    0     41.35      3.20
   10   18    0     -9.59      4.44
    8   18    0     33.73      4.58
    6   18    0    -60.06      5.57
    4   18    0     34.02      7.78
    2   18    0     45.69     -3.98
   18   18    0     81.73      0.54
   17   19    0     -0.29     -1.01
   15   19    0    -14.30     -0.44
   13   19    0     25.76      2.87
    9   19    0    -18.24     -0.98
    7   19    0     78.62     -1.78
    5   19    0    -15.14     -2.31
    3   19    0     43.04      6.09
    1   19    0     27.66      5.33
   11   19    0     54.65      3.47
   19   19    0     51.78     -5.46
   18   20    0     24.91     -0.10
   16   20    0      9.91      0.02
   14   20    0     12.78      6.67
   12   20    0      6.73      0.81
   10   20    0     48.33      2.99
    8   20    0    -15.62     12.10
    6   20    0     70.57     15.46
    4   20    0    -28.40      0.48
    2   20    0      1.69     -1.03
    0   20    0     64.88     -3.61
   20   20    0     48.75      0.86
   19   21    0     14.26     -2.82
   17   21    0     36.94     -2.01
   15   21    0     23.82     -1.84
   13   21    0     41.38     -1.21
    9   21    0     43.48      1.35
    7   21    0     24.62     -4.05
    5   21    0     19.38     -0.05
    3   21    0      9.91      3.01
    1   21    0     27.68     -0.29
   11   21    0    -18.20      0.62
   21   21    0     42.73     -2.69
   20   22    0      2.29     -1.01
   18   22    0      3.12     -1.26
   16   22    0     26.60      0.11
   14   22    0      5.06      1.63
   12   22    0     36.41      6.45
   10   22    0     14.67      1.06
    8   22    0     88.31     10.91
    6   22    0      5.08     10.62
    4   22    0     24.61      6.02
    2   22    0     37.65     -2.59
    0   22    0     34.40     -0.77
   22   22    0     49.61     -2.39
   21   23    0      5.55      0.26
   19   23    0      1.00     -4.37
   17   23    0     -1.67     -2.14
   15   23    0     56.21     -2.07
   13   23    0    -15.29      0.69
   11   23    0     55.66      1.93
    9   23    0     37.56      0.10
    7   23    0    -17.03     -0.61
    5   23    0      8.95      1.34
    3   23    0      8.20      3.25
    1   23    0     50.86     -3.98
   23   23    0     -3.12      2.61
   22   24    0      6.18     -0.85
   20   24    0     25.27     -1.70
   18   24    0     24.37      0.11
   16   24    0     16.32     -0.17
   14   24    0      5.52      2.02
   12   24    0     26.90      0.36
   10   24    0     35.29      3.96
    8   24    0     18.94      2.96
    6   24    0     15.80     10.60
    4   24    0    -21.95      7.30
    2   24    0     58.63      0.55
    0   24    0     -3.48     -3.36
   24   24    0      1.49     -2.24
   23   25    0      0.93      0.68
   21   25    0      5.32     -0.96
   19   25    0      5.68     -1.56
   17   25    0     40.08     -4.12
   15   25    0    -18.28      3.65
   13   25    0     64.88      1.86
   11   25    0      9.09      0.18
    9   25    0     23.05     -1.22
    7   25    0     59.69      0.22
    5   25    0    -29.65     -1.12
    3   25    0     39.00     -3.35
    1   25    0     45.75     -1.50
   25   25    0     17.44      3.32
   24   26    0     -1.39     -1.01
   22   26    0     -5.46     -0.78
   20   26    0     14.29      0.62
   18   26    0      5.47     -0.47
   16   26    0     -2.26     -1.00
   14   26    0      0.01     -1.34
   12   26    0     -2.76     -2.09
    8   26    0    -12.28      5.83
    6   26    0     11.45      5.73
    4   26    0     47.41      4.20
    2   26    0    -27.77      1.53
    0   26    0     74.01     -7.92
   10   26    0     11.01     -1.07
   26   26    0    -10.08     -5.70
   25   27    0     -0.07      2.72
   23   27    0     -2.51     -0.08
   21   27    0     17.31      2.13
   19   27    0     49.70     -3.35
   17   27    0    -12.21      0.82
   15   27    0     41.17      0.34
   13   27    0     11.74      1.56
   11   27    0     21.55     -0.59
    9   27    0     22.95     -3.46
    7   27    0     49.18     -1.13
    5   27    0     52.01     -1.25
    3   27    0    -16.76     -3.46
    1   27    0     10.23     -7.47
   27   27    0     28.01      6.90
   26   28    0      8.88      2.22
   24   28    0     -6.05     -1.06
   22   28    0      3.29      4.54
   20   28    0     -3.38     -1.61
   18   28    0     13.08     -2.22
   16   28    0     -8.55      0.22
   14   28    0     -2.34     -2.76
   12   28    0     23.98     -5.86
   10   28    0    -10.54     -0.93
    8   28    0     60.11      2.69
    6   28    0     19.06      3.62
    4   28    0     10.50     -0.88
    2   28    0     73.16     -6.04
    0   28    0    -31.62     -0.91
   25   29    0     -9.03      0.38
   23   29    0    -15.41      1.10
   21   29    0     18.48     -2.54
   19   29    0    -14.46      0.23
   17   29    0     25.16     -0.70
   15   29    0     19.69     -0.67
   13   29    0     16.04     -4.19
   11   29    0     13.53     -0.69
    9   29    0     64.37      1.58
    7   29    0      9.98     -3.14
    5   29    0     40.23      6.13
    3   29    0    -18.56     -1.38
    1   29    0     -5.20    -10.70
   24   30    0      6.59     12.96
   22   30    0      8.12      1.25
   20   30    0      3.21     -0.05
   18   30    0     -2.41      0.44
   16   30    0      7.00     -0.82
   14   30    0     20.83     -3.21
   12   30    0      5.86     -2.52
   10   30    0     67.63     -4.01
    8   30    0    -11.64      1.93
    6   30    0     18.72      1.11
    4   30    0     46.90     -5.97
    2   30    0      1.82     -2.89
    0   30    0     58.67      0.42
   23   31    0     13.04     -1.34
   21   31    0     -7.95     -0.60
   19   31    0      7.48      0.41
   17   31    0      4.71     -0.07
   15   31    0      1.60     -1.41
   13   31    0      3.81     -1.78
   11   31    0     22.04      2.17
    9   31    0     25.80      1.81
    7   31    0     44.57      7.63
    5   31    0     24.81      2.09
    3   31    0     18.66     16.45
    1   31    0    -19.64    -20.49
   22   32    0     -5.68      1.68
   20   32    0      4.08     -2.38
   18   32    0      1.60      0.54
   16   32    0      2.28     -3.77
   14   32    0     13.14     -2.13
   12   32    0     33.33     -1.91
   10   32    0      1.95     -0.72
    8   32    0     27.89     -0.79
    6   32    0      8.02     -0.96
    4   32    0      0.07      2.29
    2   32    0     22.43      0.59
    0   32    0     28.70      4.48
   19   33    0     17.20      2.22
   17   33    0     -4.33      2.11
   15   33    0      3.93      0.77
   13   33    0     -6.51     -0.58
   11   33    0     13.02     -0.10
    9   33    0     11.01      9.17
    7   33    0     30.43      0.28
    5   33    0     28.30      8.52
    3   33    0    -29.56    -12.02
    1   33    0     16.22      0.31
   18   34    0     10.92     -5.81
   16   34    0     15.11     -0.61
   14   34    0     11.22      1.01
   12   34    0      8.84      6.06
   10   34    0      6.89      2.06
    8   34    0     25.98     -0.82
    6   34    0     17.79      2.71
    4   34    0      9.97     13.25
    2   34    0     24.36      4.22
    0   34    0      5.65     -1.84
   15   35    0     13.84     -0.26
   13   35    0     10.17     -7.38
   11   35    0     -0.30     -0.99
    9   35    0     21.37     -1.18
    7   35    0      6.14      1.77
    5   35    0    -21.94     -9.15
    3   35    0     -1.35     -2.47
    1   35    0    -11.01     -3.44
   14   36    0      5.45      7.35
   12   36    0     -7.80      9.78
   10   36    0     27.12      4.12
    8   36    0     24.48      1.48
    6   36    0     21.01     12.35
    4   36    0      2.41      4.33
    2   36    0     16.65      7.43
    0   36    0      1.59      0.07
   11   37    0     13.74     -5.57
    9   37    0      8.57     -1.79
    7   37    0      5.45     -4.29
    5   37    0     -6.91     -1.22
    3   37    0     -1.32     -3.28
    1   37    0      7.94     -4.02
    8   38    0     12.07      4.92
    6   38    0      4.44      1.82
    4   38    0     11.72      3.33
    2   38    0     -9.92      1.94
    0   38    0    -14.79      5.75
    3    4    1     36.36    157.86
    4    5    1    123.99    -25.44
    2    5    1    -51.01   -114.78
    5    6    1    -73.63     40.46
    1    6    1    -35.92    302.73
    6    7    1     33.16     32.23
    4    7    1   -134.75    -16.23
    2    7    1     52.84   -114.05
    0    7    1    101.98    -33.64
    7    8    1    -37.87    -27.73
    5    8    1    -18.62    -59.48
    3    8    1    -46.06    113.31
    1    8    1     98.61    -59.72
    8    9    1      9.28     39.11
    6    9    1    -86.58     30.90
    4    9    1    -16.25    -35.26
    2    9    1     43.95      2.15
    0    9    1     -6.50    -12.97
    9   10    1     87.01     57.91
    7   10    1     -4.24    -53.96
    5   10    1     -5.78     28.55
    3   10    1     57.01    -79.19
    1   10    1    -16.63      5.22
   10   11    1     47.75     41.94
    8   11    1     80.92    -43.57
    6   11    1    -28.91    -14.82
    4   11    1    -12.65     65.66
    2   11    1     -6.30      3.14
    0   11    1    -22.49     11.21
   11   12    1     -7.60     47.56
    9   12    1     71.63    -57.99
    7   12    1     43.79     79.43
    5   12    1     18.57    -35.33
    3   12    1    -21.91    -11.20
    1   12    1      7.53    -33.56
   12   13    1      2.10     22.97
   10   13    1    -29.62    -16.88
    8   13    1     14.79     20.36
    6   13    1     32.22    -12.83
    4   13    1    -33.25    -18.53
    2   13    1    -56.64     74.80
    0   13    1     53.72      5.07
   13   14    1      7.24     -9.30
   11   14    1     18.81    -47.22
    9   14    1    -21.12     55.65
    7   14    1     20.94    -35.20
    5   14    1    -20.95     53.87
    3   14    1    -50.76    -25.65
    1   14    1     41.44    -39.88
   14   15    1    -18.55     -1.67
   12   15    1      1.15     45.02
   10   15    1     23.93     21.78
    8   15    1    -22.51     10.75
    6   15    1     -9.26      0.35
    4   15    1     24.39     27.71
    2   15    1     17.29    -10.32
   15   16    1    -10.72     -0.48
   13   16    1    -10.23     -8.38
   11   16    1     19.12     25.69
    9   16    1      2.20    -59.14
    7   16    1    -43.22     46.75
    5   16    1    -45.02    -10.77
    3   16    1     13.99    -18.04
    1   16    1     12.34     39.31
   16   17    1    -18.57    -11.00
   14   17    1    -18.25     22.62
   12   17    1     13.51    -22.66
   10   17    1     54.94     52.61
    8   17    1    -10.07      9.42
    6   17    1    -65.49     16.29
    4   17    1      0.05      9.29
    2   17    1     22.44    -16.38
    0   17    1      2.62     -0.75
   17   18    1      5.12      0.18
   15   18    1    -31.96     -5.90
   13   18    1     -8.36     34.77
   11   18    1      3.05    -15.95
    9   18    1      9.89     21.77
    7   18    1    -20.05    -28.02
    5   18    1      4.34     -4.01
    3   18    1     16.05     38.56
    1   18    1      6.96    -20.06
   18   19    1     25.37      8.29
   16   19    1    -16.27     11.69
   14   19    1     -9.06    -45.84
   12   19    1     27.00     36.00
   10   19    1     -1.64    -23.93
    8   19    1      9.06     34.78
    6   19    1     -3.46     34.96
    4   19    1    -24.20    -22.33
    2   19    1      4.16     -2.10
    0   19    1     24.57      2.58
   19   20    1     12.19      2.70
   17   20    1      1.00    -20.61
   15   20    1     -2.03     22.71
   13   20    1     -4.91     -5.14
   11   20    1     -9.63      3.07
    9   20    1     -4.78     11.79
    7   20    1     15.03    -21.50
    5   20    1     15.17     21.61
    3   20    1     10.72      7.20
    1   20    1     -3.83     22.66
   20   21    1      6.61      2.20
   18   21    1    -16.31     14.19
   16   21    1     -1.54    -37.56
   14   21    1     10.08     22.88
   12   21    1    -17.10    -35.45
   10   21    1     14.05     20.06
    8   21    1     27.56      1.85
    6   21    1     11.06    -20.83
    4   21    1    -13.83     21.09
    2   21    1     -0.98    -34.84
    0   21    1     81.45     -8.53
   21   22    1      2.37     12.77
   19   22    1     -3.97     -7.72
   17   22    1      5.03     12.86
   15   22    1     20.56    -16.24
   13   22    1      3.23     -7.01
   11   22    1     -1.31     25.23
    9   22    1     44.84    -31.58
    7   22    1      3.47     41.86
    5   22    1    -19.72     -1.06
    3   22    1    -11.86     -1.95
    1   22    1     22.59     14.75
   22   23    1     13.89     -1.21
   20   23    1    -11.72      0.48
   18   23    1    -16.33    -24.47
   16   23    1     15.20     17.41
   14   23    1     11.95    -13.23
   12   23    1    -20.20     11.03
   10   23    1     13.31     -2.93
    8   23    1     10.90     -0.73
    6   23    1    -27.82    -10.07
    4   23    1    -10.91    -12.98
    2   23    1     11.48     19.07
    0   23    1     -4.30     -7.38
   23   24    1      9.99      1.79
   21   24    1      2.61     -8.65
   19   24    1      7.67      8.33
   17   24    1     -5.37     -9.35
   15   24    1      0.61     -9.27
   13   24    1    -14.44      7.37
   11   24    1     27.43    -25.91
    9   24    1     14.82     56.75
    7   24    1      1.07    -13.60
    5   24    1      1.27     23.37
    3   24    1     -5.61      7.21
    1   24    1     26.49    -24.20
   24   25    1     -5.72     -3.17
   22   25    1     -9.96      2.09
   20   25    1     -4.14     -6.62
   18   25    1      6.41     10.26
   16   25    1    -26.85      9.99
   14   25    1      1.33     -2.50
   12   25    1     11.64      7.19
   10   25    1     -2.32      2.28
    8   25    1    -28.60    -19.78
    6   25    1      2.35     28.26
    4   25    1      7.66    -15.24
    2   25    1    -27.56     35.69
    0   25    1     14.79     -0.27
   25   26    1      3.59      2.71
   23   26    1     -2.40     -4.96
   21   26    1      8.04    -11.29
   19   26    1     12.73     -6.35
   17   26    1     16.07     -5.65
   15   26    1    -12.72     -0.49
   13   26    1     15.36    -31.43
   11   26    1    -17.37     26.06
    9   26    1    -11.01    -22.27
    7   26    1     14.97     31.76
    5   26    1    -23.41    -10.92
    3   26    1    -35.63     -5.65
    1   26    1     11.23      9.63
   26   27    1      3.10     -5.21
   24   27    1     -4.67      1.26
   22   27    1    -10.59     -8.63
   20   27    1      7.89      7.62
   18   27    1     -8.41     18.46
   16   27    1     -5.62    -13.55
   14   27    1      0.13     16.30
   12   27    1      6.40    -14.55
   10   27    1      4.15     -8.25
    8   27    1     11.45     20.78
    6   27    1     11.74    -36.82
    4   27    1    -18.98     55.30
    2   27    1     14.95    -28.36
    0   27    1     11.00      4.56
   25   28    1    -12.99      5.86
   23   28    1     -4.62      7.06
   21   28    1     -0.62      1.00
   19   28    1      1.70     -9.54
   17   28    1     -7.11     -5.99
   15   28    1     20.26      1.17
   13   28    1     -4.76      0.60
   11   28    1     -0.87     -7.22
    9   28    1    -20.81      5.30
    7   28    1    -10.07    -12.56
    5   28    1     -9.94      5.42
    3   28    1     -5.90    -24.03
    1   28    1    -24.62     16.52
   24   29    1      5.51     -3.96
   22   29    1      6.61     -5.00
   20   29    1      4.89     -0.48
   18   29    1     -9.28     -7.54
   16   29    1     -2.32     10.41
   14   29    1    -11.81    -29.84
   12   29    1      0.76      5.68
   10   29    1     23.68     -7.04
    8   29    1     28.77    -29.99
    6   29    1     -1.62     42.68
    4   29    1     12.88    -46.93
    2   29    1      6.63     35.79
    0   29    1     -3.91     -9.44
   23   30    1     -8.59      7.06
   21   30    1    -15.35      5.25
   19   30    1     -4.73     -7.68
   17   30    1     -2.97      7.20
   15   30    1    -10.02      0.77
   13   30    1     12.68     14.35
   11   30    1     -0.31     -9.41
    9   30    1     -0.26     15.13
    7   30    1     15.19      3.66
    5   30    1    -11.07     -8.10
    3   30    1     15.44     25.93
    1   30    1    -49.62    -26.02
   22   31    1      0.17     -4.29
   20   31    1     -3.42     -4.52
   18   31    1     -2.59     -0.29
   16   31    1    -12.45    -18.40
   14   31    1     -5.26      0.60
   12   31    1      5.79    -20.83
   10   31    1      6.17     -6.52
    8   31    1      7.62      5.64
    6   31    1      6.18    -35.01
    4   31    1     -2.40     33.28
    2   31    1     17.76    -22.63
    0   31    1     11.71      0.25
   21   32    1     -1.82     -0.80
   19   32    1     -1.39     -5.22
   17   32    1      5.24      1.49
   15   32    1    -13.86     10.91
   13   32    1      5.02     -9.88
   11   32    1     14.81     14.88
    9   32    1    -11.28      0.69
    7   32    1      4.22     22.47
    5   32    1     -2.87     18.60
    3   32    1    -36.61      2.70
    1   32    1      9.97     26.42
   20   33    1     -0.52      4.13
   18   33    1      0.14    -12.16
   16   33    1     -6.63     -5.57
   14   33    1     -2.63     -5.57
   12   33    1      3.31      2.48
   10   33    1    -12.80     -0.18
    8   33    1    -22.26    -11.70
    6   33    1     15.68      1.79
    4   33    1     17.00    -19.33
    2   33    1     -4.88      8.48
    0   33    1      7.64      2.90
   17   34    1     12.24     -3.15
   15   34    1     -6.93      5.92
   13   34    1     -7.08      4.11
   11   34    1      3.12     -8.74
    9   34    1     23.21     17.02
    7   34    1     -1.49      6.55
    5   34    1    -45.65      9.98
    3   34    1    -19.79     14.55
    1   34    1     26.21     -0.11
   16   35    1     -0.44     -5.61
   14   35    1      3.81     -3.67
   12   35    1    -16.77      4.58
   10   35    1     -7.10     -8.61
    8   35    1      8.28      5.11
    6   35    1     -3.81     -9.33
    4   35    1     16.18    -12.40
    2   35    1      2.96    -13.60
    0   35    1      6.65     10.63
   13   36    1     -9.75      6.98
   11   36    1     -5.82      5.53
    9   36    1     19.36     -4.19
    7   36    1     -9.76      4.45
    5   36    1    -10.04      6.70
    3   36    1    -13.67      4.42
    1   36    1    -13.13     -6.44
   10   37    1      4.61      8.22
    8   37    1     10.00     -3.87
    6   37    1      5.60     -3.50
    4   37    1     -2.19      4.52
    2   37    1      5.23     -1.15
    0   37    1      2.43      0.64
    7   38    1      6.45      6.46
    5   38    1     -7.46      2.39
    3   38    1     -5.64     -1.95
    1   38    1     -1.81      8.14
    2    4    2    -22.52    131.10
    4    4    2    -44.29     23.65
    1    5    2   -101.51    -49.95
    3    5    2   -189.42      5.90
    5    5    2      0.08      5.00
    4    6    2   -107.82     36.56
    2    6    2    -43.89    -10.18
    0    6    2      7.55     18.85
    6    6    2    -78.80     37.23
    5    7    2    -68.49     -8.64
    3    7    2    -50.32     30.02
    1    7    2   -118.22    -29.47
    7    7    2    -10.29     -5.68
    6    8    2    -37.01     20.81
    4    8    2   -135.40     -6.24
    2    8    2   -112.49    -23.41
    0    8    2    215.07     -6.59
    8    8    2   -121.43      3.91
    7    9    2    -57.54    -46.98
    5    9    2    -67.38    -14.71
    3    9    2    -14.23     18.74
    1    9    2    -75.14      6.39
    9    9    2      3.80      8.96
    8   10    2     68.63    -23.44
    6   10    2   -129.79     24.88
    4   10    2     40.89      1.45
    2   10    2     59.32     -0.54
    0   10    2   -111.40      2.59
   10   10    2     23.18     -3.49
    9   11    2     55.88      5.83
    7   11    2    -35.46     17.20
    5   11    2    -59.10    -12.09
    3   11    2    -41.62    -52.95
    1   11    2    -45.49     -7.02
   11   11    2     12.58      3.23
   10   12    2    -56.48    -35.34
    8   12    2    -13.06    -12.90
    6   12    2     76.41     -2.31
    4   12    2    -48.93     10.94
    2   12    2    -53.85     18.64
    0   12    2     16.59     13.86
   12   12    2    -37.71    -10.79
   11   13    2    -44.65     13.40
    9   13    2     -3.33      8.26
    7   13    2     82.09      1.60
    5   13    2    -37.81     42.55
    3   13    2    -27.05     -0.57
    1   13    2    -15.87    -45.58
   13   13    2     34.94     -8.40
   12   14    2      2.83    -16.12
   10   14    2    -31.71     -8.91
    8   14    2    -28.20     -6.65
    6   14    2    -17.77      2.38
    4   14    2    -63.09    -21.86
    2   14    2     -4.19      4.46
    0   14    2    -47.29     12.54
   14   14    2     -9.06     -1.36
   13   15    2    -59.70     16.82
   11   15    2     17.32      4.99
    9   15    2     -4.06    -13.26
    7   15    2    -46.65    -18.48
    5   15    2     24.39      1.77
    3   15    2    -64.95     39.05
    1   15    2     10.29      9.93
   15   15    2     26.59     -7.92
   14   16    2      2.18    -22.24
   12   16    2     -9.52      7.38
   10   16    2     25.31      5.43
    8   16    2     -8.14     28.36
    6   16    2   -102.22     -2.34
    4   16    2     11.55    -20.53
    2   16    2    -14.51    -28.52
    0   16    2     23.95      5.53
   16   16    2    -55.84     -0.53
   15   17    2    -20.35     14.21
   13   17    2    -27.88     20.33
   11   17    2    -18.37     16.45
    9   17    2     -9.12     17.09
    7   17    2    -34.90    -11.85
    5   17    2    -73.13      9.44
    3   17    2     32.51     12.82
    1   17    2    -54.39      3.63
   17   17    2     30.73     -4.49
   16   18    2     -6.59    -17.65
   14   18    2    -60.09     -7.12
   12   18    2      9.14    -11.08
   10   18    2     29.92     11.19
    8   18    2    -58.22    -21.99
    6   18    2     10.74     25.25
    4   18    2    -28.62     12.24
    2   18    2      3.34     -2.26
    0   18    2    -23.85     -6.93
   18   18    2    -39.67      1.61
   17   19    2    -32.85      8.26
   15   19    2    -48.84      3.34
   13   19    2     -7.25    -13.48
   11   19    2    -23.05     23.96
    9   19    2     -5.91      8.87
    7   19    2    -28.37     24.52
    5   19    2    -11.64    -10.36
    3   19    2    -60.88    -18.51
    1   19    2     11.04    -20.32
   19   19    2     36.67     -8.68
   18   20    2     17.57     -5.48
   16   20    2    -62.77      3.20
   14   20    2     -5.37     -8.90
   12   20    2     -0.58     20.34
   10   20    2    -71.25    -11.38
    8   20    2     31.80     -7.62
    6   20    2    -27.17      5.03
    4   20    2    -13.30      2.12
    2   20    2    -39.69     27.25
    0   20    2    -48.83      3.31
   20   20    2    -35.85      1.94
   19   21    2    -22.95      4.25
   17   21    2    -15.48     10.75
   15   21    2     -1.43    -10.44
   13   21    2    -51.84     -8.19
   11   21    2     11.48    -14.82
    9   21    2    -24.18      0.42
    7   21    2      5.40     10.68
    5   21    2    -30.52      3.49
    3   21    2    -45.17    -17.18
    1   21    2    -18.88    -18.17
   21   21    2     23.69     -0.82
   20   22    2     -6.57     14.37
   18   22    2    -56.27      3.77
   16   22    2      3.64     -1.85
   14   22    2    -11.51     22.20
   12   22    2    -45.30      9.50
    8   22    2    -42.59     17.35
    6   22    2      5.83    -21.84
    4   22    2    -46.61      0.71
    2   22    2    -10.44      8.82
    0   22    2    -20.91     -4.18
   10   22    2     -9.96      9.64
   22   22    2    -21.56     -0.06
   21   23    2     -5.05      1.66
   19   23    2    -32.11      9.18
   17   23    2      3.22      7.56
   15   23    2    -43.48      2.54
   13   23    2     -3.87    -13.30
   11   23    2    -32.26     -8.48
    9   23    2     21.46     -0.30
    7   23    2    -10.87     -0.09
    5   23    2    -74.49      9.70
    3   23    2      5.24     16.11
    1   23    2    -36.60      0.33
   23   23    2     15.99      2.22
   22   24    2     -0.93     -1.36
   20   24    2    -17.08      2.73
   18   24    2      4.43     18.62
   16   24    2     10.96      9.50
   14   24    2    -22.98      3.89
   12   24    2    -16.99      3.67
   10   24    2     -1.27      7.67
    8   24    2    -24.05      7.09
    6   24    2    -52.08      3.12
    4   24    2    -23.17     -9.86
    2   24    2    -33.51      0.06
    0   24    2     26.62     -2.12
   24   24    2     -1.48     -2.05
   23   25    2    -10.26     -2.10
   21   25    2    -12.97      1.89
   19   25    2      2.22     -3.20
   17   25    2    -34.48      9.67
   15   25    2     -4.98     -5.81
   13   25    2    -41.74     -0.13
   11   25    2      2.82      9.59
    9   25    2    -20.98     12.95
    7   25    2    -35.67     -3.41
    5   25    2     -0.35      3.05
    3   25    2    -58.90     15.23
    1   25    2     -3.48     -7.25
   25   25    2     -0.27     -1.25
   24   26    2     -1.80     -7.33
   22   26    2     -9.05      2.35
   20   26    2      7.18      5.00
   18   26    2      9.89      9.39
   16   26    2    -15.80     13.92
   14   26    2    -23.59      4.44
   12   26    2     15.24     -7.05
   10   26    2    -52.02      7.07
    8   26    2      9.12     15.26
    6   26    2    -16.85      8.85
    4   26    2    -46.37      5.02
    2   26    2     29.25     -3.11
    0   26    2    -56.06     -2.90
   26   26    2      4.01     -2.27
   25   27    2     -3.03     -0.39
   23   27    2     -6.77     -1.87
   21   27    2      5.90      6.20
   19   27    2    -10.20      0.63
   17   27    2     -1.50     10.47
   15   27    2    -24.14      0.26
   13   27    2      8.83     15.55
   11   27    2    -54.03    -17.86
    9   27    2    -25.31    -12.33
    7   27    2     10.82    -21.19
    5   27    2    -14.15    -14.12
    3   27    2    -24.79     -1.84
    1   27    2    -36.98      7.12
   27   27    2      9.65      1.17
   26   28    2     -8.48      3.45
   24   28    2     -7.02     -5.93
   22   28    2     -7.32     -2.10
   20   28    2     -6.17     12.52
   18   28    2    -13.23      5.55
   16   28    2    -15.28     -0.31
   14   28    2     -5.37    -10.32
   12   28    2    -48.75     -0.68
   10   28    2     36.01     -9.59
    8   28    2    -19.46     22.81
    6   28    2    -15.33     -1.84
    4   28    2     -2.31      4.78
    2   28    2    -75.63      2.52
    0   28    2     24.94     -3.23
   25   29    2     -9.17      7.38
   23   29    2     -6.16     11.42
   21   29    2     -0.71      4.50
   19   29    2     -6.13     11.09
   17   29    2     -5.29      4.24
   15   29    2      8.22     20.66
   13   29    2    -22.39     -4.33
   11   29    2    -12.29     -6.19
    9   29    2    -12.83    -19.02
    7   29    2     -5.26    -32.96
    5   29    2    -11.10     -6.91
    3   29    2      5.37      9.27
    1   29    2    -21.64    -26.20
   24   30    2     -3.45      1.78
   22   30    2      2.53      0.19
   20   30    2     -9.03    -10.99
   18   30    2    -11.69     -5.29
   16   30    2    -16.25    -10.88
   14   30    2    -22.90      2.39
   12   30    2      4.05    -20.92
   10   30    2    -10.24      4.70
    8   30    2     -1.52    -10.06
    6   30    2    -44.46      7.60
    4   30    2    -38.09     12.48
    2   30    2     -3.57      2.96
    0   30    2    -71.37      1.23
   23   31    2     -8.47      2.43
   21   31    2     -4.58      0.18
   19   31    2     -4.16      5.67
   17   31    2     -2.63      0.97
   15   31    2     -5.31      3.68
   13   31    2    -15.14      3.02
   11   31    2    -13.45     13.09
    9   31    2      1.28      1.41
    7   31    2    -42.05     16.45
    5   31    2     41.33     -4.03
    3   31    2    -21.19    -18.42
    1   31    2    -16.45     13.44
   20   32    2      1.90     -4.62
   18   32    2     -7.00     -9.75
   16   32    2    -11.07     -3.00
   14   32    2    -11.42    -14.88
   12   32    2     -3.61      4.34
   10   32    2     -5.80    -18.76
    8   32    2    -15.93     -2.44
    6   32    2     -7.37      0.61
    4   32    2    -38.41     -3.72
    2   32    2    -43.02     35.49
    0   32    2      3.31     -2.39
   19   33    2     11.40      1.55
   17   33    2     -5.15     14.39
   15   33    2    -12.76     -7.14
   13   33    2     -2.43      2.38
   11   33    2     -6.28     -0.05
    9   33    2    -27.77     19.49
    7   33    2     10.32      3.81
    5   33    2    -36.48     -5.86
    3   33    2     -4.58    -12.85
    1   33    2    -17.68    -12.95
   18   34    2     -1.47     -5.72
   16   34    2      0.24    -11.73
   14   34    2     -5.44      1.74
   12   34    2     -8.61    -15.16
   10   34    2    -17.92      1.21
    8   34    2     -3.71     -9.43
    6   34    2     -0.73     -5.80
    4   34    2    -28.65     14.36
    2   34    2    -16.47    -12.30
    0   34    2    -11.32      1.31
   15   35    2     11.12      8.88
   13   35    2     -9.82     -1.10
   11   35    2      2.36     15.17
    9   35    2      8.38     -3.47
    7   35    2    -27.56    -10.21
    5   35    2    -15.03    -13.09
    3   35    2    -12.14     -3.88
    1   35    2    -22.38      3.64
   14   36    2      7.38     -0.73
   12   36    2    -16.44     -3.09
   10   36    2      0.99     -6.88
    8   36    2      6.67      4.88
    6   36    2    -17.51     20.36
    4   36    2    -10.44    -10.04
    2   36    2      5.06     -2.16
    0   36    2    -15.70     -2.60
   11   37    2      2.84      1.70
    9   37    2     -5.99     -2.38
    7   37    2      2.78     -7.28
    5   37    2    -12.98     -5.05
    3   37    2    -12.75     -6.37
    1   37    2     -8.12     -2.82
    6   38    2      3.64      3.56
    4   38    2     -1.23      6.86
    2   38    2     -4.48     -4.18
    0   38    2      4.89      3.16
    1    2    3    -91.95   -337.15
    2    3    3    137.56    -52.58
    0    3    3   -227.78    -99.56
    3    4    3     23.26    -46.58
    1    4    3   -317.28    154.14
    4    5    3    115.26   -115.31
    2    5    3    -55.44   -123.70
    0    5    3    145.27    -35.00
    5    6    3      7.23     24.23
    3    6    3   -145.86    247.02
    1    6    3    -43.04     62.14
    6    7    3     33.90     69.48
    4    7    3   -109.51    -94.37
    2    7    3    -45.59    -62.22
    0    7    3    -10.41     13.02
    7    8    3    -56.86     14.99
    5    8    3    -45.47    -11.27
    3    8    3     19.01    -39.00
    1    8    3     98.03     93.30
    8    9    3    -23.71    -33.25
    6    9    3     -7.39    -68.15
    4    9    3     17.09     82.90
    2    9    3     -0.03    -35.09
    0    9    3   -110.38      6.88
    9   10    3     32.00    -10.92
    7   10    3    -83.82     32.68
    5   10    3    -65.85    -25.94
    3   10    3     34.88    -50.35
    1   10    3     20.47   -112.38
   10   11    3      5.96    -53.00
    8   11    3     67.34     -9.96
    6   11    3     26.67    -12.34
    4   11    3      8.40    -27.71
    2   11    3     16.31     75.18
    0   11    3     30.54      9.64
   11   12    3    -26.55    -48.12
    9   12    3     10.89      6.80
    7   12    3     42.64    -25.38
    5   12    3     37.40     27.73
    3   12    3    -12.24    -23.37
    1   12    3     -3.14      2.30
   12   13    3     20.99    -37.41
   10   13    3    -17.08     33.24
    8   13    3     13.69     -4.17
    6   13    3     33.58    -12.52
    4   13    3    -33.04    -10.91
    2   13    3    -24.24    -21.95
    0   13    3    107.56     -1.38
   13   14    3     28.31      8.90
   11   14    3     -3.59     30.53
    9   14    3     -7.06    -65.70
    7   14    3     84.17      4.50
    5   14    3     74.32     -4.14
    3   14    3     26.26     15.58
    1   14    3      2.05     20.28
   14   15    3     15.18      4.81
   12   15    3     38.30    -34.20
   10   15    3     18.62     13.35
    8   15    3    -20.09     28.87
    6   15    3    -17.34     -4.76
    4   15    3     -0.81    -11.14
    2   15    3     27.27     -6.18
    0   15    3     14.47     -9.81
   15   16    3     23.53    -20.68
   13   16    3    -28.92     13.49
   11   16    3     24.92      7.82
    9   16    3     50.87     13.06
    7   16    3      0.98    -49.68
    5   16    3     27.60     18.64
    3   16    3     42.49     -6.73
    1   16    3     25.18    -26.93
   16   17    3     26.55     12.32
   14   17    3     22.37     -5.21
   12   17    3     12.82     29.32
   10   17    3     45.59    -39.08
    8   17    3     -3.42     -0.45
    6   17    3    -21.52     -1.51
    4   17    3     31.31    -11.33
    2   17    3     26.05     13.01
    0   17    3      7.82     -3.67
   17   18    3     11.19    -12.06
   15   18    3    -21.78      8.86
   13   18    3     10.34    -24.24
   11   18    3     25.57      8.29
    9   18    3      7.41     11.67
    7   18    3      4.85     28.31
    5   18    3    -17.45    -33.31
    3   18    3     43.40    -12.89
    1   18    3     31.39     11.23
   18   19    3     38.18      8.15
   16   19    3      3.97    -20.75
   14   19    3      1.06     39.91
   12   19    3     35.29     -0.40
   10   19    3     -9.79      7.98
    8   19    3      2.39     -8.72
    6   19    3     46.85    -37.69
    4   19    3     29.12     42.03
    2   19    3      0.01    -31.63
    0   19    3    -28.88      5.10
   19   20    3     18.13    -16.28
   17   20    3     -6.00     25.15
   15   20    3      5.02    -10.82
   13   20    3     35.42      0.19
   11   20    3     -8.93    -13.04
    9   20    3     -0.24     14.08
    7   20    3     24.52      9.77
    5   20    3     23.68     12.63
    3   20    3     -4.69      1.26
    1   20    3     27.98      5.89
   20   21    3      1.81      8.19
   18   21    3     -0.80    -10.49
   16   21    3      0.95    -17.92
   14   21    3      0.81    -17.43
   12   21    3    -18.16     15.20
   10   21    3     11.30     -1.05
    8   21    3     26.16    -42.95
    6   21    3     12.56     16.39
    4   21    3      0.87    -42.22
    2   21    3     -9.32     18.32
    0   21    3     36.60     -8.80
   21   22    3     17.94     -1.63
   19   22    3    -13.65     17.10
   17   22    3      7.76    -13.53
   15   22    3     55.40     12.44
   13   22    3     -2.22     -4.56
   11   22    3     -1.76    -13.70
    9   22    3     39.85     34.57
    7   22    3     12.25    -22.83
    5   22    3      5.09      4.37
    3   22    3      2.25     -7.49
    1   22    3      8.94    -23.09
   22   23    3      5.90    -11.70
   20   23    3    -13.25    -11.57
   18   23    3      0.80     -3.96
   16   23    3     13.35    -20.17
   14   23    3    -16.66     -8.06
   12   23    3    -12.22      3.84
   10   23    3     20.27    -12.63
    8   23    3      9.34     11.00
    6   23    3    -18.25    -24.78
    4   23    3      2.28     10.10
    2   23    3     16.18     11.42
    0   23    3     10.75      1.71
   23   24    3      9.86     -5.05
   21   24    3      4.48     13.71
   19   24    3     10.18    -21.06
   17   24    3     17.21     20.35
   15   24    3     14.72     -2.55
   13   24    3     14.02    -24.03
   11   24    3      9.68     35.78
    9   24    3      7.68    -26.79
    7   24    3     -1.99     28.21
    5   24    3     -9.89    -23.62
    3   24    3     19.77    -29.21
    1   24    3      5.30     25.66
   24   25    3     13.29      2.12
   22   25    3      2.68    -11.89
   20   25    3      2.63     -3.48
   18   25    3     22.73     -5.68
   16   25    3    -10.62     -0.02
   14   25    3      7.20      6.18
   12   25    3     15.13    -25.53
   10   25    3     -2.89      4.63
    8   25    3     -3.39      6.62
    6   25    3     26.96    -17.37
    4   25    3     21.28     21.79
    2   25    3      5.06     13.04
    0   25    3     10.00     -1.56
   25   26    3      2.46      8.94
   23   26    3     -6.11     -9.07
   21   26    3     -6.03    -32.93
   19   26    3      6.34     32.94
   17   26    3     17.14    -11.59
   15   26    3     23.35      4.83
   13   26    3      1.29     -6.80
   11   26    3     -7.95     -9.12
    9   26    3      2.13     15.80
    7   26    3     10.91    -25.15
    5   26    3    -17.04      4.36
    3   26    3    -44.75      9.00
    1   26    3      7.87     -3.17
   26   27    3     -4.03     -8.05
   24   27    3     -1.88      0.24
   22   27    3      4.46     -3.05
   20   27    3     12.19     -9.96
   18   27    3      0.97      5.26
   16   27    3     -3.50     12.97
   14   27    3      6.22    -34.22
   12   27    3     16.97      7.68
   10   27    3      1.99      2.32
    8   27    3      5.40    -33.49
    6   27    3     14.81     42.11
    4   27    3     10.03    -34.79
    2   27    3     14.72     15.47
    0   27    3     24.35      5.50
   25   28    3     -1.64      4.56
   23   28    3     -3.95     -5.16
   21   28    3     -7.88     12.29
   19   28    3     -0.02    -19.20
   17   28    3      3.51      3.29
   15   28    3     17.14      0.64
   13   28    3     -3.20      2.78
   11   28    3     -4.02     -1.20
    9   28    3      0.11    -11.49
    7   28    3      0.53      1.89
    5   28    3     -6.04    -22.69
    3   28    3      5.81     -3.28
    1   28    3     -5.82     -3.09
   24   29    3     -4.87      3.93
   22   29    3      3.69     -8.61
   20   29    3     -1.85      7.58
   18   29    3     -3.10      9.68
   16   29    3      9.79    -12.55
   14   29    3     -4.34     20.63
   12   29    3     -4.30     -4.22
   10   29    3      7.36     -3.01
    8   29    3      3.23     12.13
    6   29    3    -10.90    -12.24
    4   29    3      9.71     43.80
    2   29    3     11.31     -7.44
    0   29    3    -23.59     -0.93
   23   30    3      6.21     10.73
   21   30    3    -10.19      3.53
   19   30    3    -11.95     -6.41
   17   30    3      7.47      1.91
   15   30    3     -2.48      0.07
   13   30    3     -2.55    -10.16
   11   30    3      9.11      2.84
    9   30    3      0.59     -2.85
    7   30    3      0.17    -13.26
    5   30    3      3.68    -14.81
    3   30    3     14.37    -21.46
    1   30    3    -12.62     30.88
   22   31    3      8.00     -0.72
   20   31    3     -4.83      4.52
   18   31    3      8.96      3.43
   16   31    3     -0.48      7.31
   14   31    3      2.59     -5.95
   12   31    3      2.30      9.79
   10   31    3      7.89    -10.30
    8   31    3     -9.32      1.83
    6   31    3      5.67     24.41
    4   31    3     13.65     18.08
    2   31    3     12.51     26.62
    0   31    3      1.42      0.56
   21   32    3      0.67      0.57
   19   32    3      6.28      2.06
   17   32    3     -2.84      3.16
   15   32    3    -11.35      6.33
   13   32    3      1.66     -0.71
   11   32    3     -3.67     -9.77
    9   32    3    -12.46     19.27
    7   32    3      2.85     -1.99
    5   32    3     -7.72     -7.17
    3   32    3    -25.25     27.38
    1   32    3     11.74    -27.61
   20   33    3      7.09      5.59
   18   33    3      4.88     -9.38
   16   33    3     -2.15     -5.40
   14   33    3      4.62      0.97
   12   33    3     27.81     -5.71
   10   33    3      1.12      0.60
    8   33    3     -6.31      1.51
    6   33    3      1.05      6.06
    4   33    3     27.29     10.94
    2   33    3     -3.51      9.13
    0   33    3      4.79      3.56
   17   34    3      3.05      7.92
   15   34    3     -6.20      3.87
   13   34    3     -7.85      4.12
   11   34    3     -6.00      8.60
    9   34    3      2.37      3.26
    7   34    3      5.87     12.96
    5   34    3     -8.91      9.91
    3   34    3     -8.90    -14.69
    1   34    3     12.77     14.25
   16   35    3      7.94     -6.19
   14   35    3     12.09      2.17
   12   35    3      9.24     -7.92
   10   35    3     17.89     -3.35
    8   35    3     -1.40      4.01
    6   35    3    -12.34     -3.86
    4   35    3     -4.27     -1.46
    2   35    3      9.83    -13.22
    0   35    3     -5.51      2.03
   13   36    3    -11.49      3.10
   11   36    3    -18.36      0.18
    9   36    3     15.88      5.77
    7   36    3      3.44      2.00
    5   36    3     10.13     -4.69
    3   36    3      2.34      5.78
    1   36    3      1.98     -7.23
   10   37    3      8.52     -4.34
    8   37    3      7.66      2.06
    6   37    3     -5.97     -0.36
    4   37    3      6.05     -3.19
    2   37    3      1.98      3.05
    0   37    3      1.21     -2.12
    5   38    3     -4.38     14.58
    3   38    3      0.62      4.00
    1   38    3      4.02      2.38
    0    2    4   -186.42    159.09
    2    2    4    209.58      2.42
    1    3    4    -14.46    118.17
    3    3    4     22.65     54.36
    2    4    4     31.48    125.02
    3    5    4    235.48     30.95
    1    5    4   -126.99    -98.42
    4    6    4    -21.79     29.58
    2    6    4    141.24     14.79
    0    6    4     65.43     39.49
    6    6    4    188.47     44.92
    5    7    4     73.58    -55.67
    3    7    4    -66.12     15.75
    1    7    4     87.55     53.35
    7    7    4    108.58     -2.93
    6    8    4    -69.65     33.98
    4    8    4     82.75    -15.38
    2    8    4     16.87    -16.92
    8    8    4     15.58    -20.14
    7    9    4    -23.73    -53.88
    5    9    4     33.86    -23.56
    3    9    4     -7.74     41.91
    1    9    4     24.10     -6.32
    9    9    4    101.90      6.13
    8   10    4    -75.50      1.51
    6   10    4    -21.80     36.80
    4   10    4     74.02    -15.47
    2   10    4    117.74    -66.37
    0   10    4      9.56     14.69
   10   10    4     69.41    -17.33
    9   11    4    -38.62    -19.71
    7   11    4    100.79    -39.32
    5   11    4    -16.88     27.20
    3   11    4     50.74    -32.16
    1   11    4    -21.46    -13.01
   11   11    4    -58.98      6.49
   10   12    4      0.77    -13.09
    8   12    4     41.88    -24.09
    6   12    4     -9.42     -0.86
    4   12    4     24.67    -38.37
    2   12    4     39.07      6.52
    0   12    4      9.72     11.39
   12   12    4    -18.02    -15.49
   11   13    4    -17.83    -23.14
    9   13    4     -9.11      0.77
    7   13    4     52.47      3.41
    5   13    4     92.93     13.69
    3   13    4    -25.59     23.75
    1   13    4     46.61    -22.92
   13   13    4     21.90     -9.01
   12   14    4     30.94     -0.68
   10   14    4    -37.27    -41.79
    8   14    4     23.37     11.28
    6   14    4     59.38    -51.59
    4   14    4    -37.52     10.72
    2   14    4    -37.87     30.69
    0   14    4     18.03      2.82
   14   14    4     30.32     -5.83
   13   15    4      1.63    -23.12
   11   15    4     15.69    -17.20
    9   15    4     29.71    -13.70
    7   15    4     27.84      6.13
    5   15    4     -3.73     12.89
    3   15    4     60.00     -6.25
    1   15    4     22.30    -18.24
   15   15    4     23.97     -2.92
   14   16    4     -0.09     -7.36
   12   16    4     -3.51    -10.37
   10   16    4     41.06     25.80
    8   16    4    -11.24    -43.01
    6   16    4     -7.93      6.73
    4   16    4     31.77    -13.83
    2   16    4     21.31     22.68
    0   16    4    -18.01      1.55
   16   16    4     57.04     -2.52
   15   17    4      3.63     -3.06
   13   17    4     -7.89     -5.94
   11   17    4     -0.60     -7.47
    9   17    4     27.63     18.44
    7   17    4    -42.74      8.05
    5   17    4     51.85      1.99
    3   17    4     -3.52      8.01
    1   17    4      5.82     -2.49
   17   17    4     31.22    -10.02
   16   18    4     -8.67     17.60
   14   18    4     18.94    -13.90
   12   18    4     35.18      8.01
   10   18    4      8.16     -5.97
    8   18    4     27.69    -15.26
    6   18    4    -23.83     -6.46
    4   18    4     39.66    -11.17
    2   18    4     27.23     14.78
    0   18    4    -15.18      6.59
   18   18    4     69.53      6.06
   17   19    4     -3.12     -7.08
   15   19    4    -17.51    -12.71
   13   19    4      6.67    -14.66
   11   19    4     43.25      8.32
    9   19    4    -23.61     -5.82
    7   19    4     49.38     -9.69
    5   19    4     11.43      5.17
    3   19    4     12.04     13.81
    1   19    4      0.76     21.20
   19   19    4     20.75    -14.56
   18   20    4     -6.62     13.29
   16   20    4     10.73      7.08
   14   20    4     13.78      9.41
   12   20    4      1.33     -5.13
   10   20    4     21.57     -1.92
    8   20    4    -13.48     15.82
    6   20    4     46.48     17.24
    4   20    4     -5.26     -1.99
    2   20    4    -12.68    -22.29
    0   20    4     19.95      2.53
   20   20    4     38.49      0.94
   19   21    4      6.98     -1.83
   17   21    4      0.84    -10.60
   15   21    4      3.59    -11.84
   13   21    4     55.57     -4.71
   11   21    4    -15.50     -7.12
    9   21    4     26.05    -21.63
    7   21    4     52.13     -0.60
    5   21    4     23.69    -10.99
    3   21    4     13.65     24.81
    1   21    4     16.41     -7.10
   21   21    4     -3.00     -3.92
   20   22    4    -11.41     17.74
   18   22    4    -10.01     -6.24
   16   22    4     17.57      6.62
   14   22    4     -0.31     -0.79
   12   22    4      4.73     -5.60
   10   22    4      0.14     -1.81
    8   22    4     25.74     21.53
    6   22    4     -9.46      6.21
    4   22    4     21.77      0.61
    2   22    4     28.75     15.70
    0   22    4     -4.33      4.02
   22   22    4     22.75     -5.77
   21   23    4      9.13      4.42
   19   23    4     -9.99      1.67
   17   23    4     23.91    -12.00
   15   23    4     57.45      8.11
   13   23    4    -31.40     -4.45
   11   23    4     27.46    -13.01
    9   23    4     27.90      4.13
    7   23    4     -3.06    -11.20
    5   23    4     69.85      9.50
    3   23    4     12.09     -5.03
    1   23    4     26.52     -1.53
   23   23    4     17.14     -1.82
   22   24    4     -2.78     -0.25
   20   24    4     -1.33     -9.59
   18   24    4     16.10      2.26
   16   24    4     16.52     -7.90
   14   24    4      6.02    -19.20
   12   24    4     10.68    -15.47
   10   24    4     32.28     -6.29
    8   24    4     19.36    -10.17
    6   24    4     -1.04    -20.14
    4   24    4     -6.55      3.59
    2   24    4     34.33     36.15
    0   24    4     20.59     -0.54
   24   24    4     27.21     -9.85
   23   25    4      3.60     -1.00
   21   25    4     -9.78      4.35
   19   25    4     12.24     -8.74
   17   25    4     34.80     39.15
   15   25    4    -18.73     -8.20
   13   25    4     31.41      7.49
   11   25    4     10.99     11.73
    9   25    4     -3.78     10.90
    7   25    4     52.24     18.73
    5   25    4      3.23     -7.89
    3   25    4     55.89    -13.09
    1   25    4     22.40    -23.82
   25   25    4     -3.54      0.73
   24   26    4     -4.01    -12.50
   22   26    4      0.13     -7.99
   20   26    4     18.87     -5.74
   18   26    4      5.32     -7.49
   16   26    4     10.16    -19.54
   14   26    4     20.83     -7.12
   12   26    4     -1.78    -25.78
   10   26    4     22.59    -18.23
    8   26    4      6.25     -8.73
    6   26    4     25.50    -19.43
    4   26    4     24.76      3.69
    2   26    4    -10.34     16.85
    0   26    4     71.61      6.29
   26   26    4     22.25     -4.32
   25   27    4     -0.90     -6.29
   23   27    4     -0.46      0.03
   21   27    4      6.83      2.39
   19   27    4      3.12     23.31
   17   27    4      3.18      8.53
   15   27    4     18.92     20.97
   13   27    4     17.25     17.53
   11   27    4     -0.24     -3.39
    9   27    4     13.11     19.98
    7   27    4     24.10    -19.77
    5   27    4     38.13      9.46
    3   27    4     -0.05     -7.13
    1   27    4     32.49    -17.76
   27   27    4     -1.44      0.14
   26   28    4     -4.67      8.22
   24   28    4      0.00     -1.40
   22   28    4      1.47     -2.74
   20   28    4     -5.39     11.17
   18   28    4      2.17     -5.01
   16   28    4     15.81    -15.90
   14   28    4      1.39    -14.37
   12   28    4      1.57      0.61
   10   28    4    -11.87    -31.41
    8   28    4     36.98     -7.28
    6   28    4     10.66    -15.49
    4   28    4      5.16      1.64
    2   28    4     38.84     18.52
    0   28    4    -52.07      2.42
   25   29    4     -1.18      5.94
   23   29    4      4.64     10.10
   21   29    4      3.57      3.24
   19   29    4      3.93      1.07
   17   29    4      9.04     14.24
   15   29    4     13.72      9.10
   13   29    4     -2.52     -1.48
   11   29    4      9.05      1.69
    9   29    4     27.49    -15.55
    7   29    4     -5.53     -0.21
    5   29    4     19.70      0.32
    3   29    4     43.07     10.34
    1   29    4     30.68     -1.36
   24   30    4      3.52      2.47
   22   30    4      0.14      6.56
   20   30    4      5.77      1.57
   18   30    4     -5.65      6.44
   16   30    4     14.60     -2.46
   14   30    4     -3.88     -1.37
   12   30    4    -13.32     -9.84
   10   30    4     16.32      0.33
    8   30    4     -8.97    -16.50
    6   30    4     -0.49     -6.43
    4   30    4     29.70     12.29
    2   30    4    -12.05      5.85
    0   30    4     19.71      6.63
   21   31    4      0.21      4.03
   19   31    4     15.25      2.72
   17   31    4      9.35     -0.34
   15   31    4     -8.48      4.00
   13   31    4     17.19      2.66
   11   31    4      7.83     -1.34
    9   31    4     -6.12     -5.39
    7   31    4      9.00     -0.34
    5   31    4     14.09      9.10
    3   31    4     35.31      5.50
    1   31    4     -5.93     -6.62
   20   32    4      0.66      7.19
   18   32    4     13.93     15.87
   16   32    4     -0.81     -6.11
   14   32    4      2.54    -13.96
   12   32    4      9.17     -9.49
   10   32    4      2.86     -2.25
    8   32    4      0.68     -6.61
    6   32    4     21.30     -0.10
    4   32    4     -0.78     -7.58
    2   32    4     15.29     23.72
    0   32    4     22.08      2.09
   19   33    4      9.51      6.71
   17   33    4     -5.41      3.98
   15   33    4      2.38      4.73
   13   33    4     -0.32     -1.44
   11   33    4     10.17      2.50
    9   33    4     -9.19     -2.05
    7   33    4      3.65      2.04
    5   33    4      8.51     -3.25
    3   33    4     -6.48     -2.61
    1   33    4      8.74     17.89
   16   34    4     -0.40      0.97
   14   34    4     -2.55    -19.55
   12   34    4      8.21    -10.39
   10   34    4     -2.06     -1.84
    8   34    4      4.59      0.32
    6   34    4      5.52     -0.80
    4   34    4     14.49      3.88
    2   34    4      9.58     -8.33
    0   34    4      0.16     -0.56
   15   35    4      1.10     -0.93
   13   35    4      0.59      1.70
   11   35    4     -0.57      1.36
    9   35    4     13.66      1.78
    7   35    4      1.02    -12.21
    5   35    4     -7.99      0.19
    3   35    4     12.49     11.13
    1   35    4      7.95      0.44
   12   36    4     -3.25      2.36
   10   36    4      3.30      0.00
    8   36    4     -6.98      1.02
    6   36    4     11.82     18.28
    4   36    4     11.70      2.41
    2   36    4      6.09    -12.94
    0   36    4     -3.36     -0.86
    9   37    4      8.25     -2.49
    7   37    4     -2.55      1.67
    5   37    4     -5.90     -5.17
    3   37    4      3.44      4.23
    1   37    4      6.31      1.14
    4   38    4      7.92      1.83
    2   38    4      6.52     -1.74
    0   38    4     15.40     -3.56
    1    2    5     25.99    -39.53
    2    3    5     62.64      7.51
    0    3    5   -226.30   -213.16
    1    4    5    -21.39   -128.50
    4    5    5     68.31    -30.52
    2    5    5    -38.54    -10.16
    5    6    5     69.79    -29.62
    3    6    5     -4.56    -33.50
    6    7    5      6.21    -28.84
    4    7    5    -61.33     36.82
    2    7    5      8.20    -17.26
    0    7    5     31.82      0.56
    7    8    5     24.22    -19.83
    5    8    5     46.01     56.51
    3    8    5     33.49   -109.12
    1    8    5     25.92    -18.83
    8    9    5    -72.88     22.18
    6    9    5    -43.44    -19.01
    4    9    5      9.22      3.23
    2    9    5     12.95      5.78
    0    9    5    -26.44    -11.16
    9   10    5      8.77     29.78
    7   10    5    -17.46      2.67
    5   10    5    -19.97    -29.84
    3   10    5     24.87     12.84
    1   10    5      2.73    -54.25
   10   11    5    -20.90     35.85
    8   11    5    -34.14    -39.45
    6   11    5    -24.74    -19.92
    4   11    5     14.63    -18.64
    2   11    5     -4.54    -28.11
    0   11    5    -31.92    -19.34
   11   12    5    -32.33     29.09
    9   12    5     -8.33    -50.60
    7   12    5     23.45     58.25
    5   12    5     16.41      1.85
    3   12    5    -40.67      6.14
    1   12    5     -9.52     39.24
   12   13    5     19.14     12.62
   10   13    5    -65.43    -25.99
    8   13    5     -2.12      8.25
    6   13    5     25.56    -12.71
    4   13    5    -19.36    -30.93
    2   13    5    -40.29    -28.08
    0   13    5     19.76     -0.29
   13   14    5     -0.67    -15.53
   11   14    5    -11.44    -20.28
    9   14    5     -7.86     30.32
    7   14    5     32.35    -35.24
    5   14    5      7.34     42.03
    3   14    5    -16.56      1.80
    1   14    5    -18.41    -10.11
   14   15    5     23.45    -12.53
   12   15    5    -33.16     -9.25
   10   15    5     -7.40     19.80
    8   15    5    -35.04     14.45
    6   15    5      6.05      2.06
    4   15    5     -0.43      7.99
    2   15    5    -20.12     38.59
    0   15    5     -4.27     -6.69
   15   16    5      1.55    -10.45
   13   16    5    -28.69     -9.98
   11   16    5     19.27     -1.02
    9   16    5      7.10    -32.40
    7   16    5    -31.80     29.96
    5   16    5    -21.89    -21.21
    3   16    5      2.50    -17.01
    1   16    5    -49.34     38.90
   16   17    5     29.77     -3.23
   14   17    5    -20.58     10.02
   12   17    5    -14.80    -12.25
   10   17    5     10.32      7.92
    8   17    5    -15.85     19.77
    6   17    5    -20.93    -34.51
    4   17    5    -13.24     36.94
    2   17    5      1.86      7.35
    0   17    5    -21.78      0.24
   17   18    5     -7.14      5.50
   15   18    5    -26.93    -15.41
   13   18    5     -4.85     12.76
   11   18    5      1.59    -25.00
    9   18    5    -17.94      7.08
    7   18    5    -31.36      0.03
    5   18    5    -10.89      7.54
    3   18    5      3.39     -3.45
    1   18    5    -40.41    -51.89
   18   19    5     12.05      4.80
   16   19    5    -36.20      6.16
   14   19    5     -4.94      9.84
   12   19    5     21.94     18.07
   10   19    5    -38.32     -0.96
    8   19    5    -19.40      4.27
    6   19    5     -3.21     16.23
    4   19    5    -24.50    -17.60
    2   19    5    -37.62     14.57
    0   19    5    -33.66      0.81
   19   20    5     12.88      2.83
   17   20    5    -22.30    -11.14
   15   20    5     -8.05     27.68
   13   20    5      9.70     -3.06
   11   20    5    -17.10      1.23
    9   20    5    -23.00      1.83
    7   20    5     22.80    -13.88
    5   20    5      0.09      5.92
    3   20    5     -3.59     -1.61
    1   20    5    -25.87     23.88
   20   21    5     -8.70      2.74
   18   21    5    -25.47      0.21
   16   21    5    -22.19    -30.59
   14   21    5      9.09     -4.62
   12   21    5    -13.02      0.26
   10   21    5    -19.28      5.73
    8   21    5    -11.46      8.55
    6   21    5      3.10     -9.88
    4   21    5     -9.46     33.22
    2   21    5    -36.59    -15.38
    0   21    5     -9.90      3.25
   21   22    5      5.84      6.85
   19   22    5    -30.11    -10.33
   17   22    5     -1.40     18.34
   15   22    5      0.54     -3.45
   13   22    5    -20.95     17.34
   11   22    5    -28.88      9.53
    9   22    5     22.82    -16.51
    7   22    5      3.95     15.34
    5   22    5    -21.79     -6.98
    3   22    5    -15.71    -10.82
    1   22    5     -6.73     11.98
   22   23    5    -12.23     -7.12
   20   23    5    -27.52      4.97
   18   23    5     -6.82    -13.70
   16   23    5     13.18    -20.68
   14   23    5    -21.67     -6.71
   12   23    5     -7.78    -14.43
   10   23    5     -2.35      0.26
    6   23    5     -7.66      8.72
    4   23    5     11.12    -16.41
    2   23    5     -7.04     10.16
    0   23    5    -44.54      5.35
    8   23    5    -15.01      6.84
   23   24    5      0.13      3.29
   21   24    5     -1.12     -2.17
   19   24    5     -8.58     17.05
   17   24    5    -13.84      5.58
   15   24    5     -3.96     22.40
   13   24    5    -29.36    -12.22
   11   24    5      3.92    -17.18
    9   24    5      5.32     29.80
    7   24    5    -17.46    -17.70
    5   24    5    -13.80    -11.28
    3   24    5     10.92     -3.47
    1   24    5     11.79     -8.60
   24   25    5     -1.83      6.84
   22   25    5    -21.71      3.60
   20   25    5    -13.73    -11.10
   18   25    5      8.46     -1.66
   16   25    5    -12.89     16.91
   14   25    5    -11.84    -23.23
   12   25    5     -5.35     13.78
   10   25    5    -35.35      0.21
    8   25    5    -29.42    -36.85
    6   25    5     -0.01      2.47
    4   25    5     -9.06    -19.25
    2   25    5    -23.36     12.38
    0   25    5    -27.71     -2.55
   25   26    5      1.33     -1.36
   23   26    5    -10.04     -4.37
   21   26    5     -1.79      8.21
   19   26    5     -5.29      0.52
   17   26    5     -6.20      6.44
   15   26    5     -4.85     13.50
   13   26    5     -3.94    -18.37
   11   26    5    -21.27     12.68
    9   26    5     19.88    -23.78
    7   26    5     31.16     12.10
    5   26    5     -6.26    -13.77
    3   26    5    -11.73     -8.65
    1   26    5     -3.39      7.83
   26   27    5     -4.33      3.79
   24   27    5    -12.54      4.54
   22   27    5     -1.67    -16.03
   20   27    5     -9.14      5.49
   18   27    5    -16.79     19.75
   16   27    5    -22.53     -9.73
   14   27    5     -8.98     15.36
   12   27    5     -4.67    -13.54
   10   27    5    -35.69     -6.01
    8   27    5    -25.02      4.98
    6   27    5    -14.72    -50.87
    4   27    5    -20.57     18.49
    2   27    5     -1.89    -17.32
    0   27    5     27.83      1.95
   25   28    5     -5.40     -0.78
   23   28    5     -2.19     -0.45
   21   28    5    -22.38    -11.02
   19   28    5    -11.77     -7.35
   17   28    5     -9.85     -2.44
   15   28    5      3.25     -2.17
   13   28    5    -28.42      8.79
   11   28    5     -7.96     -1.80
    9   28    5      6.80     -5.31
    7   28    5     10.20     -1.87
    5   28    5     14.59      4.05
    3   28    5     -1.78    -14.78
    1   28    5    -16.79     17.70
   24   29    5     -1.77     -8.28
   22   29    5      0.83      3.06
   20   29    5     -5.57     11.19
   18   29    5      7.79     -0.57
   16   29    5     -0.17     11.98
   14   29    5     -1.60     -6.41
   12   29    5    -14.38      7.03
   10   29    5      3.22     11.32
    8   29    5    -25.01    -33.56
    6   29    5    -22.40     23.73
    4   29    5     -0.93    -16.64
    2   29    5      5.52      2.43
    0   29    5     -8.78     -2.04
   23   30    5     -3.91     -0.54
   21   30    5     -5.49      2.16
   19   30    5    -17.64     -2.46
   17   30    5      0.93     -2.08
   15   30    5     -4.89     -0.50
   13   30    5    -10.46      6.75
   11   30    5     -4.40     -8.62
    9   30    5     -3.01     -2.75
    7   30    5     -7.03    -20.39
    5   30    5      6.06    -14.46
    3   30    5     12.98     24.75
    1   30    5    -15.49     -6.89
   22   31    5      3.30     -6.59
   20   31    5     -4.00      3.25
   18   31    5      3.42     -3.87
   16   31    5      2.65     -0.01
   14   31    5    -14.00     -2.58
   12   31    5      1.73     -2.05
   10   31    5     -0.81    -12.26
    8   31    5    -12.88      9.85
    6   31    5    -12.09     -1.65
    4   31    5      9.28     13.27
    2   31    5     -2.56      9.62
    0   31    5      0.70      0.38
   19   32    5     14.40     12.56
   17   32    5     -1.70     14.87
   15   32    5     -7.57      2.65
   13   32    5     -1.71     -1.01
   11   32    5     -6.09      0.70
    9   32    5     -9.47    -13.30
    7   32    5     -4.32      2.74
    5   32    5     11.45     -7.94
    3   32    5    -10.85     -1.23
    1   32    5      1.84     23.33
   18   33    5    -17.93      2.36
   16   33    5    -17.75    -11.59
   14   33    5     -0.27     -8.04
   12   33    5      7.61     -6.43
   10   33    5     -6.26    -10.08
    8   33    5     -5.44     -3.77
    6   33    5      5.66      1.50
    4   33    5     -6.30     19.83
    2   33    5     -2.35     -0.20
    0   33    5     -4.44      3.53
   17   34    5      8.16      6.21
   15   34    5     -7.82      8.71
   13   34    5      1.07      7.42
   11   34    5     -3.90      3.01
    9   34    5     -5.11     13.95
    7   34    5     -4.59     -2.87
    5   34    5      4.22      8.73
    3   34    5      9.32      3.37
    1   34    5     -6.76     -8.01
   14   35    5     -4.69     -9.12
   12   35    5     -0.39    -12.75
   10   35    5      3.49     -8.72
    8   35    5      3.81      5.14
    6   35    5    -11.09      2.62
    4   35    5     -2.07     -0.61
    2   35    5     -2.91      4.39
    0   35    5      0.60      1.50
   11   36    5     -6.84     17.65
    9   36    5      2.25      4.95
    7   36    5     -6.22      0.79
    5   36    5      3.48     -2.66
    3   36    5      6.68      8.92
    1   36    5      0.49      4.95
    8   37    5      5.50     -7.53
    6   37    5     -4.46      8.97
    4   37    5     -0.36     -1.22
    2   37    5      2.77     -8.10
    0   37    5     -4.80      0.19
    3   38    5     -5.38      7.48
    1   38    5      6.41      3.07
    1    1    6    -46.83      8.32
    0    2    6     -0.80     44.91
    2    2    6   -174.45    -34.12
    1    3    6    -83.21     45.16
    3    3    6    182.30     32.52
    2    4    6    -39.23     17.11
    0    4    6    -89.81      3.73
    4    4    6    -40.58     23.04
    3    5    6     40.50      3.09
    1    5    6    -27.74      9.93
    5    5    6     79.14      1.31
    4    6    6    -46.03     -9.78
    2    6    6      5.07    -25.91
    0    6    6     24.23     43.06
    6    6    6     89.41     30.79
    5    7    6     45.66    -12.30
    3    7    6    -37.51     53.85
    1    7    6      5.01    -29.16
    7    7    6    -21.26      7.15
    6    8    6     27.38      2.76
    4    8    6     10.40    -44.01
    2    8    6      2.77     34.28
    0    8    6     85.54      4.62
    8    8    6    -47.83     -1.86
    7    9    6     62.73      0.32
    5    9    6    -37.88     10.05
    3    9    6     16.71      3.19
    1    9    6    -27.38     -8.22
    9    9    6    -61.53     13.96
    8   10    6     -4.27    -10.38
    6   10    6   -107.86     24.25
    4   10    6     46.36    -14.40
    2   10    6     25.17    -49.11
    0   10    6    -34.78      3.00
   10   10    6      1.20    -10.88
    9   11    6     26.76     11.20
    7   11    6    -62.87     -2.28
    5   11    6     65.69     15.90
    3   11    6     -5.77    -15.76
    1   11    6    -26.76    -13.61
   11   11    6    -87.45     35.98
   10   12    6     -7.68    -52.06
    8   12    6    -20.09     -9.55
    6   12    6     14.81     -0.79
    4   12    6    -69.97    -33.07
    2   12    6     -3.82    -27.93
    0   12    6    -13.79      8.85
   12   12    6     -0.25    -12.87
   11   13    6    -24.62      2.27
    9   13    6    -81.98     45.93
    7   13    6     44.77     -8.73
    5   13    6    -41.12     -5.19
    3   13    6      9.10     16.46
    1   13    6    -17.68     14.16
   13   13    6     33.79     13.80
   12   14    6     -6.39    -20.62
   10   14    6    -25.83    -26.15
    8   14    6     15.51      0.39
    6   14    6     22.23     -2.67
    4   14    6     -0.13     -6.53
    2   14    6    -41.53     24.30
    0   14    6    -44.54      6.35
   14   14    6      4.57     -5.62
   13   15    6    -19.96    -17.74
   11   15    6      3.47      2.46
    9   15    6      9.52     15.90
    7   15    6    -53.30    -10.41
    5   15    6     -1.75      6.16
    3   15    6    -65.62     10.57
    1   15    6      8.60    -42.23
   15   15    6      4.86      8.66
   14   16    6     -9.65    -10.63
   12   16    6    -12.87    -12.29
   10   16    6    -16.56      3.24
    8   16    6      5.25      6.96
    6   16    6    -18.27      8.68
    4   16    6     10.98      0.33
    2   16    6      4.66    -20.55
    0   16    6    -19.29     -1.05
   16   16    6     13.13     -9.02
   15   17    6     -2.15     11.24
   13   17    6    -39.96      6.76
   11   17    6     -8.23      6.81
    9   17    6      5.08      3.95
    7   17    6    -24.40      7.49
    5   17    6    -47.19    -14.77
    3   17    6     19.11      6.74
    1   17    6    -73.76     20.31
   17   17    6     42.87     -4.80
   16   18    6     -7.63     -7.91
   14   18    6      4.68      9.03
   12   18    6     18.99     -4.42
   10   18    6     16.17     -5.40
    8   18    6    -55.54    -16.37
    6   18    6    -35.83     -8.41
    4   18    6     -4.56    -42.11
    2   18    6    -11.12     16.94
    0   18    6    -10.65     -1.14
   18   18    6      1.16     -3.28
   17   19    6    -15.67     10.59
   15   19    6    -28.52     11.75
   13   19    6     15.44     -1.89
   11   19    6    -12.27     19.61
    9   19    6     -9.70     -5.95
    7   19    6     -3.60    -25.63
    5   19    6     35.19     -6.70
    3   19    6    -61.49     -1.51
    1   19    6    -28.04     -3.08
   19   19    6     47.36     -7.73
   18   20    6     -9.37    -14.27
   16   20    6    -21.61      6.69
   14   20    6      7.47      1.72
   12   20    6     22.23     23.76
   10   20    6    -39.59     -7.98
    8   20    6     10.04     -9.01
    6   20    6    -10.16     21.62
    4   20    6    -22.97     -0.04
    2   20    6     -1.71     -6.30
    0   20    6     -3.20     -3.60
   20   20    6     -5.87     -3.11
   19   21    6    -20.16      8.98
   17   21    6    -19.68      6.48
   15   21    6     11.73      7.69
   13   21    6      5.78     -8.36
   11   21    6      6.81    -20.04
    9   21    6    -22.92      0.12
    7   21    6     -5.85      7.36
    5   21    6     -3.36    -10.19
    3   21    6    -33.74    -22.45
    1   21    6     -2.83    -21.61
   21   21    6     23.69      4.65
   20   22    6     -0.68      0.07
   18   22    6    -15.17      7.80
   16   22    6     12.02     -2.30
   14   22    6      8.76     17.64
   12   22    6    -32.78      8.07
   10   22    6     17.97      4.02
    8   22    6     -9.52      4.57
    6   22    6     11.76     -0.72
    4   22    6      4.63     21.51
    2   22    6     -6.74      4.20
    0   22    6    -13.97     -2.73
   22   22    6     -5.02     -5.18
   21   23    6    -14.44      6.69
   19   23    6    -26.03     -5.04
   17   23    6      9.20      3.24
   15   23    6      8.11      6.64
   13   23    6     -7.33     -1.18
   11   23    6    -17.01      6.36
    9   23    6     -9.20      2.03
    7   23    6    -16.15      5.92
    5   23    6    -25.27      6.58
    3   23    6     15.99     -3.90
    1   23    6      6.29     -0.23
   23   23    6     38.81     -1.34
   22   24    6     -4.33      2.68
   20   24    6    -21.28     14.73
   18   24    6     13.37     -1.63
   16   24    6     10.36     13.51
   14   24    6    -24.42      6.42
   12   24    6     -7.43     -1.35
   10   24    6     16.31     -3.49
    8   24    6     -7.30     12.61
    6   24    6    -18.05     -9.01
    4   24    6     -3.90    -13.98
    2   24    6    -32.74      6.49
    0   24    6    -23.22      0.62
   24   24    6      8.57     -0.37
   23   25    6    -12.39     -2.11
   21   25    6     -0.65     -2.89
   19   25    6      9.44    -10.32
   17   25    6    -24.62     11.11
   15   25    6      1.85      4.33
   13   25    6      2.48     26.43
   11   25    6     -8.40     -2.66
    9   25    6    -16.39      7.40
    7   25    6     -7.12    -10.72
    5   25    6     16.84    -13.02
    3   25    6     -9.12      1.56
    1   25    6     15.14    -20.42
   25   25    6      2.07     -1.20
   24   26    6      2.48     -3.48
   22   26    6    -15.17      6.03
   20   26    6     -2.17      4.98
   18   26    6      2.76     26.48
   16   26    6    -33.35     11.51
   14   26    6     -3.27     12.13
   12   26    6      7.63     -9.71
   10   26    6    -37.02      7.10
    8   26    6      8.04     16.37
    6   26    6     -4.04     11.07
    4   26    6    -32.60    -18.62
    2   26    6     13.52      1.08
    0   26    6     -6.22     10.29
   26   26    6      1.42      0.42
   25   27    6      6.61     -9.01
   23   27    6     -7.10      5.41
   21   27    6      6.53     -2.26
   19   27    6     -5.46      3.46
   17   27    6      8.70     -5.68
   15   27    6     -3.47      4.15
   13   27    6      3.93     11.92
   11   27    6    -16.41     25.54
    9   27    6     -5.97    -11.36
    7   27    6      5.41    -31.31
    5   27    6     -0.65     -1.44
    3   27    6    -22.72    -10.51
    1   27    6      2.50     -7.31
   24   28    6      2.20     -2.03
   22   28    6     10.20     -4.88
   20   28    6     13.48      6.54
   18   28    6    -25.79     -4.90
   16   28    6     14.27     11.49
   14   28    6      6.53      6.45
   12   28    6    -19.08     12.58
   10   28    6     12.84     -8.69
    8   28    6     -7.17     11.15
    6   28    6     -1.40     -1.79
    4   28    6      4.92      2.22
    2   28    6    -17.23      5.06
    0   28    6     26.72     -0.10
   23   29    6     -2.49      1.88
   21   29    6     -7.98      6.75
   19   29    6      3.80      3.23
   17   29    6      7.38      3.97
   15   29    6     -5.75      1.98
   13   29    6     -9.80     10.93
   11   29    6     -3.34      1.78
    9   29    6     -3.47      7.36
    7   29    6      3.52     -0.45
    5   29    6    -19.03      1.28
    3   29    6     40.74      8.17
    1   29    6    -12.56     -1.01
   22   30    6     20.24     -5.29
   20   30    6      7.22    -18.71
   18   30    6     13.33      6.92
   16   30    6      8.51     -8.31
   14   30    6     -1.60      4.78
   12   30    6     12.01      3.40
   10   30    6      0.08      3.03
    8   30    6     -5.51     -7.35
    6   30    6    -18.92     -6.37
    4   30    6     -3.85      2.31
    2   30    6      5.15      5.40
    0   30    6    -27.01     -0.50
   21   31    6      4.98     -5.53
   19   31    6      3.90     10.24
   17   31    6     -1.14      9.18
   15   31    6      5.48      6.96
   13   31    6     -5.20      0.63
   11   31    6     -0.18     -0.58
    9   31    6      4.15    -10.39
    7   31    6    -10.09      2.67
    5   31    6     27.23      7.02
    3   31    6     -4.27     -1.95
    1   31    6      3.57     -5.65
   20   32    6     13.19      1.42
   18   32    6     18.44     -1.94
   16   32    6     -0.22     -1.13
   14   32    6     -1.82     -5.91
   12   32    6     19.22      1.58
   10   32    6     -5.24      7.70
    8   32    6    -16.52     -4.40
    6   32    6     -0.66     -3.50
    4   32    6     -9.63      4.54
    2   32    6     -8.23      7.89
    0   32    6     -8.56     -1.70
   17   33    6    -15.29      2.07
   15   33    6     -9.14     -0.01
   13   33    6      1.38     -8.18
   11   33    6     -8.44      0.02
    9   33    6    -10.28     -0.29
    7   33    6     11.20    -15.19
    5   33    6    -12.67     -2.07
    3   33    6      7.36      4.51
    1   33    6      3.29     10.33
   16   34    6    -12.76     -8.50
   14   34    6      3.56    -14.43
   12   34    6      2.58     -5.19
   10   34    6      2.15      8.89
    8   34    6     -8.47     -1.51
    6   34    6     -1.94     10.16
    4   34    6     -1.84     -7.71
    2   34    6     -5.33      4.23
    0   34    6     15.48      1.55
   13   35    6    -12.82      1.69
   11   35    6      0.73     -1.50
    9   35    6     -3.43     -7.12
    7   35    6     -6.19     -0.77
    5   35    6     -4.82      0.04
    3   35    6      2.78     12.58
    1   35    6     -3.85     -6.98
   12   36    6     -0.31      0.22
   10   36    6      2.83     -8.80
    8   36    6     -4.72     10.67
    6   36    6     -7.17      2.37
    4   36    6     -3.73      5.37
    2   36    6      6.08     -5.99
    0   36    6      1.83     -1.01
    7   37    6     -2.49     -4.62
    5   37    6     -1.56      4.33
    3   37    6     -6.48      0.40
    1   37    6     -4.41      5.81
    1    2    7    -70.57    -95.05
    2    3    7     12.16     23.73
    0    3    7   -185.21    -83.00
    3    4    7    -38.44    -27.32
    1    4    7    -16.85     10.89
    4    5    7     62.68     50.45
    2    5    7    -39.08      3.74
    0    5    7    -12.20     -8.33
    5    6    7    -45.52     19.44
    3    6    7     -5.19      8.23
    1    6    7     10.99      4.33
    6    7    7     85.16     41.68
    4    7    7    -31.97    -50.95
    2    7    7     20.75      7.41
    0    7    7      8.67     14.47
    7    8    7     -7.76    -20.00
    5    8    7     35.13     12.52
    3    8    7    -19.81     -1.52
    1    8    7     26.46     18.18
    8    9    7      8.47      5.59
    6    9    7    -24.72     -5.73
    4    9    7     54.17     28.78
    2    9    7     -7.52    -46.37
    0    9    7     19.40      0.32
    9   10    7      8.75    -38.80
    7   10    7      4.08     -3.05
    5   10    7    -12.04     13.23
    3   10    7     35.95     -7.03
    1   10    7    -12.10     14.64
   10   11    7     18.06    -48.52
    8   11    7    -29.29     24.72
    6   11    7     -8.33    -29.26
    4   11    7    -15.75      3.11
    2   11    7     20.40     -8.07
    0   11    7    -52.37    -11.20
   11   12    7      5.05    -23.14
    9   12    7     -4.42     51.46
    7   12    7     31.41     18.93
    5   12    7     31.40    -24.27
    3   12    7     13.57     28.77
    1   12    7     -6.08     -8.83
   12   13    7     19.71     -6.37
   10   13    7     -5.60     29.41
    8   13    7     -9.15    -63.64
    6   13    7    -17.35     38.73
    4   13    7     -8.30      5.27
    2   13    7    -35.15     -9.61
    0   13    7     37.55      2.35
   13   14    7     20.68    -10.23
   11   14    7    -29.24     -7.45
    9   14    7     15.97     -9.42
    7   14    7     41.98     46.98
    5   14    7     18.54      9.08
    3   14    7      2.88    -32.19
    1   14    7     47.70     26.80
   14   15    7     20.88    -35.33
   12   15    7     -6.64     -0.95
   10   15    7     16.07      5.55
    8   15    7     -5.86     60.19
    6   15    7     -9.08    -26.76
    4   15    7     -8.30     11.48
    2   15    7      8.63     45.56
    0   15    7     19.07     -1.19
   15   16    7     46.60      7.40
   13   16    7    -17.78     31.32
   11   16    7     25.22    -10.79
    9   16    7     33.14    -28.61
    7   16    7      2.96      0.82
    5   16    7     23.15     39.27
    3   16    7     15.14     18.47
    1   16    7      3.49    -16.26
   16   17    7     34.43     -3.47
   14   17    7     -8.34    -17.19
   12   17    7     -0.27     -0.20
   10   17    7     43.85     33.60
    8   17    7     -1.06     -1.33
    6   17    7    -14.73      4.82
    4   17    7      9.29    -20.48
    2   17    7      6.05     12.49
    0   17    7      9.62      9.24
   17   18    7     23.92    -14.23
   15   18    7    -10.04      8.94
   13   18    7     21.03      7.71
   11   18    7     23.74      3.82
    9   18    7     10.77     -8.75
    7   18    7     40.77     20.76
    5   18    7      6.54     22.36
    3   18    7     42.19    -14.20
    1   18    7     13.37      9.43
   18   19    7     22.39     -7.82
   16   19    7     -2.85      8.86
   14   19    7     16.05     25.89
   12   19    7     27.61      0.75
   10   19    7      0.98    -24.02
    8   19    7    -16.67     14.27
    6   19    7     24.58    -49.12
    4   19    7    -14.95     37.22
    2   19    7     -2.44    -21.73
    0   19    7      1.39     -2.81
   19   20    7     36.81      2.73
   17   20    7    -25.03     11.22
   15   20    7     -1.05    -27.89
   13   20    7     44.83     32.44
   11   20    7      5.52      3.02
    9   20    7      2.69     -5.71
    7   20    7     41.53     12.52
    5   20    7      7.10      6.33
    3   20    7     18.47     -2.64
    1   20    7     23.11    -19.40
   20   21    7     22.37    -21.08
   18   21    7     15.76     -3.11
   16   21    7      8.59      4.34
   14   21    7     19.90     -1.62
   12   21    7      9.81     -1.38
   10   21    7    -17.34     11.43
    8   21    7     31.14    -40.87
    6   21    7      4.36     19.10
    4   21    7     13.17    -16.55
    2   21    7     14.23     23.62
    0   21    7     14.75     -2.17
   21   22    7     19.69      2.04
   19   22    7    -23.56     26.60
   17   22    7      6.52    -33.96
   15   22    7     23.27     23.48
   13   22    7     -2.08     15.24
   11   22    7     -0.38    -18.73
    9   22    7     16.47     23.04
    7   22    7     16.39     10.84
    5   22    7      1.35     28.87
    3   22    7     -9.87     11.66
    1   22    7     -2.08      2.50
   22   23    7     14.37      0.16
   20   23    7     12.06     -7.85
   18   23    7      6.81     -0.84
   16   23    7     22.07     -2.57
   14   23    7     -5.83    -11.15
   12   23    7      9.66      5.39
   10   23    7     32.93    -13.64
    8   23    7    -12.42     15.15
    6   23    7     -5.35    -14.53
    4   23    7     28.11     -9.70
    2   23    7      7.59    -23.34
    0   23    7     -9.78      0.04
   23   24    7      4.38     -3.04
   21   24    7     -7.30     14.79
   19   24    7     -0.70     -8.42
   17   24    7     15.97     25.16
   15   24    7     -9.21     18.02
   13   24    7     -1.08    -27.65
   11   24    7     -4.77     14.25
    9   24    7      8.84    -20.22
    7   24    7      2.28     26.33
    5   24    7    -11.96      6.51
    3   24    7     13.59      2.59
    1   24    7     -3.83     21.51
   24   25    7      2.75      3.97
   22   25    7      3.08      5.07
   20   25    7     10.46     -3.34
   18   25    7     10.72      0.92
   16   25    7      0.80      4.09
   14   25    7     -8.25      9.99
   12   25    7     10.26      4.49
   10   25    7     -3.73     12.40
    8   25    7     -6.45    -16.07
    6   25    7     -1.22    -20.84
    4   25    7    -10.04      9.03
    2   25    7     -1.33    -11.62
    0   25    7      9.59     -1.71
   25   26    7     16.14      0.60
   23   26    7     -1.24     13.66
   21   26    7     10.07     -3.44
   19   26    7     13.02     -4.42
   17   26    7    -11.22      1.79
   15   26    7      3.72      4.33
   13   26    7     -5.44      2.17
   11   26    7     -2.04    -17.17
    9   26    7      3.10      3.37
    7   26    7     28.99    -11.66
    5   26    7     -2.14    -11.74
    3   26    7    -31.52    -16.44
    1   26    7     14.25     -8.20
   26   27    7     -2.77      4.55
   24   27    7    -10.90     -9.84
   22   27    7      3.44     -2.38
   20   27    7     10.30     11.80
   18   27    7     -2.55      8.74
   16   27    7    -10.87     10.50
   14   27    7     20.64      0.23
   12   27    7      3.95      5.68
   10   27    7    -21.20     -2.18
    8   27    7      1.78    -13.51
    6   27    7     18.44      6.80
    4   27    7      1.46    -12.35
    2   27    7     18.88     14.87
    0   27    7     35.50      2.57
   25   28    7     -1.62      3.29
   23   28    7     13.91     -0.01
   21   28    7      3.00     -6.36
   19   28    7     -1.07     -9.36
   17   28    7     -0.84     -1.60
   15   28    7     -7.28      4.42
   13   28    7     -3.41     13.36
   11   28    7      0.74     -9.94
    9   28    7     21.38      1.33
    7   28    7      2.83     -5.15
    5   28    7     -7.20    -19.61
    3   28    7     10.97     -4.45
    1   28    7      2.72     -9.22
   24   29    7      0.98     -0.15
   22   29    7     25.18     -4.39
   20   29    7      5.43      4.73
   18   29    7     18.05     -1.67
   16   29    7     28.12     -9.53
   14   29    7     10.56      1.24
   12   29    7     -2.66     -4.60
   10   29    7     17.45      0.36
    8   29    7      4.10     -1.28
    6   29    7      3.67     -5.93
    4   29    7     20.12     13.84
    2   29    7      9.78    -18.20
    0   29    7      2.39      1.46
   21   30    7      0.77      2.66
   19   30    7      7.35     -3.34
   17   30    7     13.69     -0.57
   15   30    7      5.96      7.34
   13   30    7      0.24     -6.58
   11   30    7     13.10     22.44
    9   30    7      5.81    -17.24
    7   30    7     -7.04    -11.36
    5   30    7     14.20     -3.71
    3   30    7      9.50     -2.52
    1   30    7     18.31     19.53
   20   31    7     19.32     -5.65
   18   31    7      3.74     -9.11
   16   31    7     -4.29      1.58
   14   31    7     -1.14     -0.47
   12   31    7      4.81     10.47
   10   31    7      8.66     -0.93
    8   31    7      3.25      4.10
    6   31    7      4.34      2.78
    4   31    7      5.65     -0.90
    2   31    7      0.51      3.93
    0   31    7     -2.05      4.16
   19   32    7     27.94      5.84
   17   32    7      8.61      0.37
   15   32    7      3.68     -8.90
   13   32    7     13.37      0.56
   11   32    7      3.19    -19.23
    9   32    7     -7.79      0.71
    7   32    7      5.25      4.18
    5   32    7      5.32    -10.75
    3   32    7     10.29      6.06
    1   32    7     28.41     -4.87
   18   33    7    -22.43     13.76
   16   33    7    -12.94      6.57
   14   33    7      1.73     -0.02
   12   33    7      5.73      6.48
   10   33    7      2.69     -5.43
    8   33    7      1.68     -8.22
    6   33    7      6.33     -3.14
    4   33    7      5.77     -1.56
    2   33    7     -2.36      1.01
    0   33    7      4.64      3.07
   15   34    7     -6.18      0.69
   13   34    7      6.09     -4.46
   11   34    7     -0.50    -10.45
    9   34    7      5.24      2.98
    7   34    7      0.85      0.17
    5   34    7      4.11     10.10
    3   34    7      7.40     -7.24
    1   34    7     11.80      9.52
   12   35    7      1.60     -2.42
   10   35    7     -6.86      4.38
    8   35    7      8.37     -8.04
    6   35    7      0.94     -8.02
    4   35    7      2.88      6.54
    2   35    7     12.95     -1.21
    0   35    7      3.26     -0.24
   11   36    7      9.23      9.35
    9   36    7     19.33     -9.61
    7   36    7     -1.51     -1.32
    5   36    7      0.12    -10.77
    3   36    7      0.82      5.43
    1   36    7      5.01      3.64
    6   37    7     -3.93      4.42
    4   37    7      3.04      1.03
    2   37    7      2.58     -8.85
    0   37    7      0.40     -2.53
    1    1    8      3.20     19.84
    0    2    8   -201.04    -14.26
    2    2    8    -38.90      6.70
    1    3    8    -10.46     30.90
    3    3    8    -28.22     30.07
    2    4    8    -77.12      4.44
    0    4    8    -25.87     -0.02
    4    4    8     -6.60     40.58
    3    5    8    -12.71      8.92
    1    5    8    -56.67    -18.29
    5    5    8     27.83     20.26
    4    6    8    -37.42    -20.54
    2    6    8    -21.96     25.09
    0    6    8     22.85     18.98
    6    6    8     29.06     20.65
    5    7    8    -29.76     24.83
    3    7    8      5.69     21.18
    1    7    8      9.61     34.09
    7    7    8    103.31      1.06
    6    8    8      3.15    -28.22
    4    8    8     -9.99      2.77
    2    8    8      6.28     28.88
    0    8    8    -19.64    -11.37
    8    8    8     98.70      2.42
    7    9    8    -86.54     25.39
    5    9    8     67.19     -6.92
    3    9    8    -22.14      9.57
    1    9    8      5.82    -29.26
    9    9    8     68.05    -14.18
    8   10    8     20.68     10.34
    6   10    8     19.20      9.02
    4   10    8     14.86    -12.75
    2   10    8      0.48     35.53
    0   10    8    -29.76     -5.07
   10   10    8     35.61      7.48
    9   11    8    -22.26     -0.50
    7   11    8     10.73    -24.45
    5   11    8    -25.13     14.58
    3   11    8     38.36    -45.59
    1   11    8    -24.38      8.37
   11   11    8     47.45    -18.34
   10   12    8      9.02      1.49
    8   12    8     -2.65      5.06
    6   12    8    -31.85     34.17
    4   12    8      0.12      6.26
    2   12    8      6.34      1.80
    0   12    8     15.50      0.82
   12   12    8    -12.24      5.13
   11   13    8    -23.75    -14.05
    9   13    8      5.51    -18.16
    7   13    8      9.97     -4.22
    5   13    8     13.04    -42.41
    3   13    8    -48.60      5.55
    1   13    8     17.30     -9.79
   13   13    8     -3.09    -11.06
   12   14    8     37.84      8.82
   10   14    8    -28.53     -3.33
    8   14    8      4.92     20.38
    6   14    8      6.81     -2.27
    4   14    8    -28.39     38.33
    2   14    8     22.26      3.92
    0   14    8     -8.22     -4.96
   14   14    8      4.28     -2.82
   13   15    8    -29.54    -13.43
   11   15    8      0.39    -19.55
    9   15    8      6.15     19.71
    7   15    8     34.18    -14.68
    5   15    8    -38.83      2.62
    3   15    8      8.27    -10.58
    1   15    8      1.03     -6.59
   15   15    8     -5.96     -5.61
   14   16    8    -26.00      2.37
   12   16    8    -25.80    -29.43
   10   16    8     22.75      9.22
    8   16    8      0.13     -3.11
    6   16    8     -8.62      4.59
    4   16    8     11.84    -15.11
    2   16    8      1.64     -3.54
    0   16    8     26.75     -4.17
   16   16    8     49.59      0.58
   15   17    8     -7.41      6.67
   13   17    8     -5.10     15.90
   11   17    8     17.30      0.40
    9   17    8     38.61     -1.73
    7   17    8    -33.53      3.70
    5   17    8     31.86    -12.62
    3   17    8    -10.29     10.10
    1   17    8      7.82     -7.79
   17   17    8     17.82    -14.47
   16   18    8    -12.12    -10.89
   14   18    8      5.75     -3.40
   12   18    8      4.36     11.74
   10   18    8    -24.56    -24.25
    8   18    8     38.33    -20.36
    6   18    8    -14.55    -16.68
    4   18    8     -6.77    -23.11
    2   18    8     26.23     -5.20
    0   18    8    -13.41     -1.80
   18   18    8     39.20      8.01
   17   19    8     -2.64     -3.30
   15   19    8    -21.02     10.25
   13   19    8      1.25     10.55
   11   19    8     31.39     14.11
    9   19    8     -4.42    -19.45
    7   19    8      1.81    -25.51
    5   19    8      2.69      3.22
    3   19    8     26.30     -3.28
    1   19    8      5.61     -0.13
   19   19    8     14.80    -12.87
   18   20    8    -13.48    -14.19
   16   20    8     -8.21     -5.80
   14   20    8     33.95      4.99
   12   20    8      4.16     -2.64
   10   20    8     -2.60      6.49
    8   20    8      8.00    -22.11
    6   20    8     46.78      2.05
    4   20    8     -7.59     -0.63
    2   20    8    -16.20    -13.02
    0   20    8     70.22     -1.79
   20   20    8     19.88     12.56
   19   21    8     13.85      3.65
   17   21    8    -18.23      9.55
   15   21    8      3.04     -3.18
   13   21    8     21.74    -15.17
   11   21    8    -14.01     -1.66
    9   21    8     11.89    -30.55
    7   21    8     -5.83      9.90
    5   21    8      6.74     12.91
    3   21    8     -9.61     -2.38
    1   21    8     28.93     -9.54
   21   21    8      3.48     -3.50
   20   22    8    -25.67     -0.55
   18   22    8    -12.94      7.20
   16   22    8     18.48      2.00
   14   22    8     10.14      1.17
   12   22    8     -1.64      2.69
   10   22    8      4.09    -14.30
    8   22    8      3.99     -2.17
    6   22    8      2.34     -8.66
    4   22    8     -5.15     -2.08
    2   22    8      8.15      2.12
    0   22    8     -3.73     -1.96
   22   22    8     13.80      0.47
   21   23    8      9.16     -1.59
   19   23    8    -14.17     -0.69
   17   23    8     16.60      3.89
   15   23    8     22.94    -17.65
   13   23    8    -40.30     14.04
   11   23    8     24.57    -12.46
    9   23    8     27.28      9.84
    7   23    8    -20.17      7.51
    5   23    8     13.91     25.48
    3   23    8    -10.48     12.21
    1   23    8     17.12     -5.05
   23   23    8      3.08      1.41
   22   24    8      1.44      1.85
   20   24    8    -19.42      2.10
   18   24    8      4.37     -9.23
   16   24    8     -3.26      6.42
   14   24    8     -2.29      0.82
   12   24    8      7.78     -8.60
   10   24    8     -8.19      0.82
    8   24    8    -10.37     -9.65
    6   24    8    -12.17      5.18
    4   24    8     -5.88     -4.16
    2   24    8     -6.62      4.91
    0   24    8    -31.42     -1.11
   24   24    8     13.44     -1.41
   23   25    8     -7.61      2.34
   21   25    8    -15.39     -3.37
   19   25    8      7.28    -10.14
   17   25    8     -4.26      7.93
   15   25    8    -18.36     12.76
   13   25    8     21.30     -5.73
   11   25    8      0.01     -0.71
    9   25    8     -5.61     -0.36
    7   25    8     26.70     11.36
    5   25    8    -24.43     -5.79
    3   25    8      1.30     -9.39
    1   25    8    -12.37     11.35
   25   25    8    -10.59      1.32
   24   26    8     -6.63      1.93
   22   26    8    -15.40      4.21
   20   26    8     12.13     10.52
   18   26    8     -7.94     -2.30
   16   26    8    -12.92     -9.15
   14   26    8     14.51     -0.12
   12   26    8     -0.99     -6.00
   10   26    8      9.51     -9.57
    8   26    8     -8.76     -8.68
    6   26    8      0.16      5.49
    4   26    8     -3.60      3.67
    2   26    8    -11.28     -4.34
    0   26    8     41.89      7.37
   26   26    8      0.56     -1.45
   25   27    8      9.58     -3.96
   23   27    8    -12.72     12.42
   21   27    8      6.78     -5.13
   19   27    8      8.03     11.56
   17   27    8    -11.84     -1.76
   15   27    8      2.84      4.20
   13   27    8      9.73      6.31
   11   27    8    -15.59      1.25
    9   27    8      2.39      3.22
    7   27    8      8.43     -7.85
    5   27    8     -1.51     -8.30
    3   27    8    -25.08      7.37
    1   27    8     -5.19    -14.53
   24   28    8      3.17     -2.18
   22   28    8     -5.40      0.18
   20   28    8     -7.46     -3.15
   18   28    8      3.62     -9.00
   16   28    8     11.87     -9.01
   14   28    8      1.40     -3.91
   12   28    8     21.38     -0.21
   10   28    8     -4.41     -9.25
    8   28    8     21.06      1.28
    6   28    8      7.38    -20.89
    4   28    8    -25.98     -2.47
    2   28    8     11.94      4.27
    0   28    8      3.54      0.55
   23   29    8      8.85     -1.53
   21   29    8      5.06     14.92
   19   29    8     -2.20      2.14
   17   29    8     -4.61      8.12
   15   29    8      7.82      2.31
   13   29    8     -8.30      4.31
   11   29    8      6.46      5.62
    9   29    8     17.15      1.69
    7   29    8     -7.79      7.95
    5   29    8      9.94     15.32
    3   29    8      6.92     -9.28
    1   29    8     -7.42     10.25
   22   30    8      4.19     -7.52
   20   30    8      4.89    -10.27
   18   30    8      8.93     -0.85
   16   30    8     -0.80      5.94
   14   30    8     -0.02     -1.68
   12   30    8     10.56    -13.10
   10   30    8      8.02     13.44
    8   30    8     -8.75     -9.10
    6   30    8    -12.99      0.91
    4   30    8      6.16    -11.78
    2   30    8     -7.26      0.90
    0   30    8     -5.42     -1.43
   19   31    8    -12.39      8.37
   17   31    8     -0.13     -1.34
   15   31    8     -7.89     -1.51
   13   31    8     -1.21      8.50
   11   31    8     11.04     -8.32
    9   31    8      3.87     -2.04
    7   31    8     12.04     10.37
    5   31    8    -13.06      3.14
    3   31    8      3.50      3.88
    1   31    8    -11.57    -16.42
   18   32    8      6.21     12.65
   16   32    8     -1.70      4.73
   14   32    8     -1.66     -3.30
   12   32    8      4.15      6.66
   10   32    8     -1.27      5.15
    8   32    8     -6.42     -3.89
    6   32    8      7.65     -3.74
    4   32    8     -4.26      4.53
    2   32    8     -5.47     -1.53
    0   32    8     10.20     -0.92
   17   33    8    -22.55     -6.63
   15   33    8     -1.69     -2.41
   13   33    8     -2.59     -1.98
   11   33    8    -18.07     14.83
    9   33    8     -7.96      8.18
    7   33    8     -1.90     -5.64
    5   33    8     -2.14      0.59
    3   33    8     -6.54      5.86
    1   33    8      2.52      8.74
   14   34    8     -0.79     -7.51
   12   34    8      3.67     -7.55
   10   34    8     10.57      1.38
    8   34    8     14.88     -4.79
    6   34    8     -3.49     -2.13
    4   34    8    -10.65     -3.41
    2   34    8      6.74      1.55
    0   34    8      7.58      7.10
   11   35    8     -1.58     -4.23
    9   35    8    -13.93     -0.01
    7   35    8     -4.32      3.24
    5   35    8      1.38     -4.17
    3   35    8      4.43      3.62
    1   35    8      2.95     -7.67
    8   36    8      5.24      6.06
    6   36    8     -4.64      5.35
    4   36    8     -8.43     -2.44
    2   36    8     -3.63     -1.41
    0   36    8      2.37     -0.09
    3   37    8      0.13     -0.16
    1   37    8      4.80      5.33
    1    2    9      3.43     39.68
    2    3    9     -4.79     25.20
    0    3    9      2.73    -26.22
    3    4    9     25.00     27.36
    1    4    9    -30.04    -40.16
    4    5    9    -46.73     18.01
    2    5    9     38.84     33.24
    0    5    9    -16.87    -19.52
    5    6    9      5.97    -23.54
    3    6    9    -50.58      8.81
    1    6    9     30.03     20.25
    6    7    9     11.61     14.08
    4    7    9    -21.07     33.62
    2    7    9    -47.11    -20.84
    0    7    9     41.08      9.65
    7    8    9     -4.50    -18.53
    5    8    9     -1.58      7.65
    3    8    9     22.61    -27.61
    1    8    9     24.56     40.06
    8    9    9     -5.74     33.08
    6    9    9     29.16     -7.82
    4    9    9    -19.21     -3.36
    2    9    9    -12.28     17.68
    0    9    9     14.39      7.00
    9   10    9     13.13      7.81
    7   10    9    -19.01    -14.85
    5   10    9    -36.16    -12.85
    3   10    9     44.25     33.17
    1   10    9    -31.10    -21.47
   10   11    9     26.53     41.29
    8   11    9     10.55    -22.98
    6   11    9    -21.48     13.51
    4   11    9     -5.19      6.29
    2   11    9     -1.49    -21.42
    0   11    9    -11.87      2.01
   11   12    9      1.48     46.46
    9   12    9      6.31    -18.04
    7   12    9     -3.99     18.86
    5   12    9     -0.79     10.26
    3   12    9    -11.74      6.83
    1   12    9    -25.53     29.14
   12   13    9      5.12    -10.71
   10   13    9    -20.57    -55.51
    8   13    9    -22.58     56.73
    6   13    9    -26.57      4.36
    4   13    9    -35.41      9.33
    2   13    9    -19.05     27.68
    0   13    9     18.42      6.85
   13   14    9      8.23      4.57
   11   14    9    -45.35     -0.35
    9   14    9      1.92     33.13
    7   14    9     12.94     -8.88
    5   14    9    -16.53     -5.20
    3   14    9    -31.11      9.92
    1   14    9     29.97    -13.57
   14   15    9     -9.92    -11.55
   12   15    9    -32.92    -19.03
   10   15    9      6.66      4.47
    8   15    9    -10.30    -25.62
    6   15    9    -22.05     36.33
    4   15    9    -29.22     18.04
    2   15    9    -14.78      5.91
    0   15    9     43.75      7.47
   15   16    9     16.80     10.21
   13   16    9    -42.03     -4.10
   11   16    9    -15.23     28.74
    9   16    9     35.57    -15.26
    7   16    9     -5.31      5.64
    5   16    9    -26.18      1.57
    3   16    9     -5.39    -10.68
    1   16    9     -6.28     32.83
   16   17    9      9.18      1.43
   14   17    9    -42.82     -4.54
   12   17    9    -32.56      3.11
   10   17    9     36.43     -4.81
    8   17    9      0.66     -0.45
    6   17    9     -0.85     -6.50
    4   17    9     26.45     10.41
    2   17    9     28.74     -5.71
    0   17    9     -8.51      9.45
   17   18    9      1.82     -0.85
   15   18    9    -17.40    -26.60
   13   18    9    -11.87     17.55
   11   18    9     10.74    -12.45
    9   18    9     -3.86     -4.43
    7   18    9     28.10     -1.03
    5   18    9    -12.84      0.35
    3   18    9     -6.16     13.53
    1   18    9     10.47     -7.34
   18   19    9      6.38      8.05
   16   19    9    -24.80     10.04
   14   19    9     -8.01     -4.60
   12   19    9      3.92     18.81
   10   19    9    -11.69    -10.83
    8   19    9     -7.13    -15.09
    6   19    9     24.44     11.37
    4   19    9      2.80    -16.31
    2   19    9      6.91     14.64
    0   19    9     38.08      3.52
   19   20    9      9.69      9.62
   17   20    9    -42.20    -18.79
   15   20    9    -16.33     -0.96
   13   20    9      9.04    -10.91
   11   20    9    -12.54     -8.31
    9   20    9      4.30    -18.27
    7   20    9     15.79    -25.37
    5   20    9      6.00      9.18
    3   20    9      5.96     -6.74
    1   20    9     21.57     12.62
   20   21    9      6.62     -7.31
   18   21    9     -1.61      7.13
   16   21    9    -14.98    -13.50
   14   21    9    -15.88     11.14
   12   21    9    -10.06      8.47
   10   21    9    -35.59      2.73
    8   21    9      2.38      4.39
    6   21    9    -11.76    -19.74
    4   21    9    -16.26     25.54
    2   21    9      4.76     -7.94
    0   21    9     17.54     -4.10
   21   22    9      3.17      1.76
   19   22    9    -43.65      2.53
   17   22    9      5.07      6.45
   15   22    9     -7.63      1.05
   13   22    9     -6.03      1.27
   11   22    9      5.19     -2.88
    9   22    9     -1.40    -15.92
    7   22    9     20.99     10.35
    5   22    9     -9.86     11.95
    3   22    9     32.70      3.92
    1   22    9    -18.59    -12.48
   22   23    9     -2.12     -3.93
   20   23    9    -17.85      7.96
   18   23    9    -20.02    -12.72
   16   23    9      5.77      5.54
   14   23    9    -34.66     -6.39
   12   23    9    -24.52    -11.41
   10   23    9      9.16     -3.46
    8   23    9    -16.06      2.53
    6   23    9    -26.86     -2.84
    4   23    9      1.04      0.21
    2   23    9      2.02      4.02
    0   23    9    -17.47     -0.26
   23   24    9     -0.06     -4.44
   21   24    9    -27.92      6.25
   19   24    9     -2.39     20.30
   17   24    9     -5.41     -0.92
   15   24    9     -7.34     14.08
   13   24    9    -22.11      0.89
   11   24    9     -2.34     -4.79
    9   24    9     22.41     10.31
    7   24    9    -31.39    -10.47
    5   24    9     -0.64      0.81
    3   24    9     -6.30      5.52
    1   24    9     -3.78    -10.19
   24   25    9     -5.15    -10.72
   22   25    9    -10.06     12.80
   20   25    9     -2.74    -17.25
   18   25    9      7.48      4.27
   16   25    9    -22.30      1.23
   14   25    9    -14.58     -9.02
   12   25    9      0.08      4.59
   10   25    9     -0.76    -10.81
    8   25    9     -0.58    -13.26
    6   25    9     -1.94     14.58
    4   25    9    -11.23     -6.24
    2   25    9    -10.19      6.14
    0   25    9     -0.53    -10.44
   25   26    9     13.39     -4.14
   23   26    9    -21.92     11.21
   21   26    9     -4.18     12.12
   19   26    9      0.89    -11.24
   17   26    9    -13.35      2.73
   15   26    9     -9.27      8.47
   13   26    9      4.71     11.21
   11   26    9    -12.33      8.56
    9   26    9    -20.04     -1.69
    7   26    9     20.62     -6.93
    5   26    9    -23.07     -8.44
    3   26    9    -18.71     -4.04
    1   26    9     18.90     -3.13
   24   27    9     -6.29     -2.75
   22   27    9     -4.52     -5.07
   20   27    9     -3.09     12.16
   18   27    9     -5.15      9.40
   16   27    9    -13.88     -2.74
   14   27    9      2.83      7.80
   12   27    9      6.04    -13.86
   10   27    9    -16.08     -7.85
    8   27    9      9.36     13.18
    6   27    9     13.97    -19.84
    4   27    9    -21.02      3.68
    2   27    9    -13.74    -22.62
    0   27    9     -2.24     -4.74
   23   28    9     -7.21     -4.45
   21   28    9      3.22      4.99
   19   28    9     -3.76     -6.45
   17   28    9      4.11      9.08
   15   28    9      9.54      4.49
   13   28    9     -3.31      3.93
   11   28    9     -2.86      9.70
    9   28    9      7.25    -10.37
    7   28    9     -7.98     -4.34
    5   28    9     -2.28      2.74
    3   28    9      2.30    -12.26
    1   28    9     15.07     16.90
   22   29    9     12.09      4.65
   20   29    9     -8.89      3.26
   18   29    9    -14.22      2.20
   16   29    9      3.40     -2.30
   14   29    9    -16.98    -11.62
   12   29    9    -22.83      8.31
   10   29    9      7.95      6.82
    8   29    9     -0.82     -2.37
    6   29    9    -14.45      6.92
    4   29    9      1.97    -20.32
    2   29    9    -15.34     -3.31
    0   29    9    -12.96     -4.01
   21   30    9     -0.10     -6.66
   19   30    9      3.34      8.80
   17   30    9     18.11    -11.02
   15   30    9     -1.74      5.47
   13   30    9     -6.87      7.95
   11   30    9      4.98     -1.51
    9   30    9     -2.69     12.95
    7   30    9     -1.57     -6.20
    5   30    9     -1.37    -15.55
    3   30    9      5.69     17.54
    1   30    9    -10.31    -23.87
   18   31    9    -11.78     -8.16
   16   31    9    -17.08      1.64
   14   31    9    -10.63      0.17
   12   31    9    -12.79     16.08
   10   31    9     -9.78      0.07
    8   31    9    -16.98      7.94
    6   31    9     -5.43     -1.52
    4   31    9    -16.09      3.97
    2   31    9      6.29      0.49
    0   31    9      5.08      1.44
   17   32    9    -16.27      5.78
   15   32    9     -5.55      3.08
   13   32    9     -7.89     -2.19
   11   32    9     -9.99     13.00
    9   32    9     -3.88      7.16
    7   32    9    -10.13      6.94
    5   32    9      2.42      7.61
    3   32    9    -16.59    -16.58
    1   32    9     -1.64     10.85
   16   33    9    -21.97     -0.08
   14   33    9      5.52      6.47
   12   33    9      7.35     -5.55
   10   33    9    -23.68     -6.25
    8   33    9    -11.13     -0.91
    6   33    9     -6.91     -1.83
    4   33    9    -10.28     -1.52
    2   33    9     -6.60     -6.79
    0   33    9      9.14     -0.22
   13   34    9     -7.46      8.11
   11   34    9    -17.86     10.69
    9   34    9     -1.49      6.80
    7   34    9     11.21      2.10
    5   34    9    -12.44      5.89
    3   34    9     -1.14     -4.76
    1   34    9      2.76      5.64
   10   35    9    -11.77      4.59
    8   35    9     -4.59      8.94
    6   35    9     -5.52     -4.00
    4   35    9     -3.04     -4.53
    2   35    9     -5.44     15.46
    0   35    9     -8.38      4.17
    7   36    9     -6.38     -6.53
    5   36    9      0.41     -2.74
    3   36    9     -0.16      4.45
    1   36    9      1.08    -13.01
    1    1   10     77.99      4.71
    0    2   10    135.32    -27.98
    2    2   10    -36.48    -12.16
    1    3   10     17.12    -46.14
    3    3   10     81.04     21.78
    2    4   10     62.24     16.30
    0    4   10     -8.92    -11.75
    4    4   10    -16.06     -9.89
    3    5   10    -26.27    -36.54
    1    5   10     52.76     27.31
    5    5   10     20.50     35.54
    4    6   10     28.30      6.85
    2    6   10    -14.90      8.57
    0    6   10     25.35     -0.24
    6    6   10    -59.52    -12.16
    5    7   10      2.73    -34.34
    3    7   10     13.67     63.39
    1    7   10     54.79      3.78
    7    7   10     31.13     10.27
    6    8   10     56.89     12.38
    4    8   10    -46.25    -31.87
    2    8   10      9.30    -24.03
    0    8   10    -49.56     -0.56
    8    8   10     -1.20     -4.45
    7    9   10     26.21    -23.60
    5    9   10    -14.50     18.75
    3    9   10     20.42     -5.67
    1    9   10     24.60     14.77
    9    9   10     24.33      3.63
    8   10   10     49.12     15.49
    6   10   10    -34.67     -0.95
    4   10   10     62.91    -16.24
    2   10   10    -16.15     -6.96
    0   10   10     -6.56     -3.24
   10   10   10      6.87     -1.94
    9   11   10     44.67    -12.39
    7   11   10    -73.59     27.46
    5   11   10     37.51    -13.89
    3   11   10     -6.01      9.92
    1   11   10     -4.01     -0.33
   10   12   10    -19.21     11.13
    8   12   10    -12.41    -21.37
    6   12   10     21.56      8.57
    4   12   10    -44.74     -4.60
    2   12   10     27.27      2.52
    0   12   10     25.62     -0.65
   12   12   10     33.47      4.01
   11   13   10    -10.08    -14.12
    9   13   10    -45.13     27.76
    7   13   10     32.21    -25.04
    5   13   10    -48.71     17.45
    3   13   10      3.66    -12.80
    1   13   10      3.09     -7.27
   13   13   10      1.68     -4.60
   12   14   10    -17.80     15.04
   10   14   10     42.61     12.28
    8   14   10     21.24      7.13
    6   14   10    -32.30    -18.05
    4   14   10    -27.83      3.86
    2   14   10      6.75      8.49
    0   14   10    -11.52     -6.27
   14   14   10     -8.24     -6.04
   13   15   10    -13.93     -5.13
   11   15   10    -32.94     -6.72
    9   15   10    -23.74     -9.49
    7   15   10     -6.55     28.32
    5   15   10     11.50     -1.18
    3   15   10    -34.49     -5.97
    1   15   10     31.82     -8.85
   15   15   10     21.04     -1.53
   14   16   10    -19.99    -12.58
   12   16   10     -3.77    -10.38
   10   16   10     11.82      5.97
    8   16   10     37.18      0.59
    6   16   10    -10.09    -23.80
    4   16   10     -0.67    -14.96
    2   16   10     -6.58      6.19
    0   16   10      7.88     -5.80
   16   16   10     18.23     -5.51
   15   17   10     -8.01      8.08
   13   17   10     -6.15     16.06
   11   17   10     20.79    -13.58
    9   17   10     -8.12      5.82
    7   17   10     -1.19      1.85
    5   17   10    -16.84     -8.96
    3   17   10     26.59     -3.27
    1   17   10     10.65    -14.67
   17   17   10     54.52     -2.68
   16   18   10     14.82    -18.05
   14   18   10    -27.11     -4.53
   12   18   10      0.09     -0.58
   10   18   10     15.27     -4.46
    8   18   10      4.63    -16.00
    6   18   10     10.41    -22.49
    4   18   10      9.83     10.84
    2   18   10     15.50    -12.34
    0   18   10      5.61     -0.92
   18   18   10     15.19     -2.33
   17   19   10     -2.66     -8.67
   15   19   10     -1.68      3.31
   13   19   10     28.70     11.28
   11   19   10    -20.75     13.74
    9   19   10     17.75    -17.59
    7   19   10     -8.10    -17.02
    5   19   10     23.39     -6.68
    3   19   10     -4.31     -7.15
    1   19   10     19.86     -9.76
   19   19   10     46.88     -3.15
   18   20   10     19.43    -12.20
   16   20   10    -27.75     -9.72
   14   20   10     24.82     -6.99
   12   20   10     17.51      6.00
   10   20   10    -22.25      7.56
    8   20   10     12.63    -10.38
    6   20   10     -9.17     14.71
    4   20   10    -17.72      7.18
    2   20   10     16.47     -3.90
    0   20   10      7.25     -2.23
   20   20   10     18.51      3.09
   19   21   10    -10.78      7.46
   17   21   10     -3.45      3.75
   15   21   10     22.91    -12.13
   13   21   10    -14.93      7.87
   11   21   10      5.64    -16.31
    9   21   10     -2.52    -16.59
    7   21   10     11.45     -6.26
    5   21   10      6.03     -5.16
    3   21   10     -5.23      5.94
    1   21   10     21.85      4.45
   21   21   10     15.75     -5.34
   20   22   10    -14.25     -6.36
   18   22   10     -6.68      1.14
   16   22   10     10.67     -0.24
   14   22   10     -0.47     -9.70
   12   22   10    -27.38     -5.37
   10   22   10     11.06     13.40
    8   22   10    -29.06     -4.18
    6   22   10    -11.39     -9.56
    4   22   10     -3.31      2.04
    2   22   10    -15.21     17.61
    0   22   10     14.86     -1.32
   22   22   10      7.43     -2.21
   21   23   10      0.07      4.46
   19   23   10     -4.96      7.11
   17   23   10      9.90     -0.58
   15   23   10    -18.48     -8.99
   13   23   10    -13.29      3.81
   11   23   10      5.32      3.24
    9   23   10     17.62    -12.81
    7   23   10    -16.26      9.87
    5   23   10    -17.45     11.74
    3   23   10      9.59    -11.61
    1   23   10     -5.64     11.28
   23   23   10     28.23      0.24
   22   24   10     -6.79      2.46
   20   24   10     -1.70     -4.73
   18   24   10     -6.56     -8.03
   16   24   10     17.28      5.65
   14   24   10    -19.93      3.26
   12   24   10    -15.04     -4.59
   10   24   10     -0.63      8.21
    8   24   10    -21.38     -9.23
    6   24   10     -7.14      3.31
    4   24   10     17.59     10.85
    2   24   10     -3.21     -3.44
    0   24   10     -7.41     -1.70
   24   24   10    -10.35     -1.31
   23   25   10      2.72      6.61
   21   25   10    -17.03      3.62
   19   25   10      5.65     -0.17
   17   25   10     -2.16     10.65
   15   25   10    -10.25      4.48
   13   25   10      2.43     -8.34
   11   25   10     10.59     -4.69
    9   25   10     -7.05      4.71
    7   25   10     -7.69      5.63
    5   25   10     -8.59     -6.29
    3   25   10    -16.92      3.60
    1   25   10     -4.68     -1.61
   25   25   10     18.42     -0.91
   24   26   10    -13.88     -4.83
   22   26   10     -6.26     -8.01
   20   26   10      8.03     15.81
   18   26   10     10.98      1.87
   16   26   10    -13.86     -5.62
   14   26   10      3.59     -3.60
   12   26   10     12.89     12.08
   10   26   10    -18.54     -8.17
    8   26   10      5.84    -13.70
    6   26   10     -1.29     -2.36
    4   26   10    -29.89     -3.17
    2   26   10     16.75     -0.72
    0   26   10     11.50      8.15
   23   27   10    -15.22     11.33
   21   27   10     -2.44     -6.22
   19   27   10     15.44      9.90
   17   27   10      6.44      0.22
   15   27   10      7.40     -5.19
   13   27   10      1.72     -0.27
   11   27   10     -4.99     -2.70
    9   27   10      3.05     -2.22
    7   27   10      0.48      3.87
    5   27   10      8.56     -7.63
    3   27   10    -11.40      7.71
    1   27   10      0.27     19.16
   22   28   10     -3.70      3.77
   20   28   10      1.96      9.77
   18   28   10    -15.68     -2.87
   16   28   10      4.70      1.18
   14   28   10     14.95     10.02
   12   28   10    -12.39     -4.13
   10   28   10      3.52      6.64
    8   28   10     -4.42      0.53
    6   28   10     -1.98     -9.15
    4   28   10      1.47     -9.17
    2   28   10    -17.37     -9.19
    0   28   10     20.14      3.75
   21   29   10    -10.44     -2.42
   19   29   10      2.31     -4.83
   17   29   10     22.82     -7.53
   15   29   10     -1.30     -0.07
   13   29   10      7.01      5.74
    9   29   10      9.49      0.75
    7   29   10     11.54     -9.38
    5   29   10    -14.42     -6.07
    3   29   10     18.21      3.70
    1   29   10      0.42      4.71
   11   29   10      4.05     -9.96
   20   30   10     -8.03      3.82
   18   30   10      1.70     13.87
   16   30   10      0.30      6.31
   14   30   10     -9.10     -7.85
   12   30   10      2.36     -8.41
   10   30   10     -6.08     13.96
    8   30   10    -10.20      2.52
    6   30   10      0.98      3.26
    4   30   10     10.08      2.55
    2   30   10      9.61    -10.06
    0   30   10    -11.62     -3.36
   19   31   10      5.18    -10.98
   17   31   10     -7.92     -2.84
   15   31   10      3.16     -4.44
   13   31   10     -7.11     -0.86
   11   31   10      9.25      5.72
    9   31   10      9.47    -19.76
    7   31   10     -2.23      8.64
    5   31   10     -0.54     -5.54
    3   31   10    -16.56    -17.19
    1   31   10     11.91     -3.71
   16   32   10      2.77      0.73
   14   32   10      3.89     -5.45
   12   32   10      3.10      3.13
   10   32   10     -2.87     20.35
    8   32   10     10.37     -5.28
    6   32   10      5.57     -2.84
    4   32   10     12.94      3.65
    2   32   10      5.13      2.76
    0   32   10      1.33      1.52
   15   33   10     -4.11      1.34
   13   33   10      3.82      8.57
   11   33   10    -19.13    -11.61
    9   33   10    -11.26     18.18
    7   33   10      1.17     -7.80
    5   33   10     -6.80     -9.71
    3   33   10     -2.38      2.70
    1   33   10      2.73    -10.65
   12   34   10     -1.73     11.89
   10   34   10     16.32      6.32
    8   34   10     12.74     -7.95
    6   34   10      9.30     -4.95
    4   34   10      0.00      0.94
    2   34   10      1.04      1.82
    0   34   10      7.68     20.37
    9   35   10    -12.98     -7.73
    7   35   10     -1.61      8.68
    5   35   10     -0.65     -7.52
    3   35   10      5.10     -6.63
    1   35   10     -1.05     -5.66
    4   36   10      1.48     -3.80
    2   36   10      2.65     -3.04
    0   36   10      6.78      1.22
    0    1   11     31.99     -4.71
    1    2   11      9.22    -29.60
    2    3   11     31.40    -14.16
    0    3   11    -59.30      3.47
    3    4   11    -15.22      7.04
    1    4   11     33.41     70.65
    4    5   11     -5.19     25.49
    2    5   11    -35.08     -8.33
    0    5   11     15.77     -9.55
    5    6   11    -15.54      9.40
    3    6   11     -0.01     12.02
    1    6   11     -3.13    -33.52
    6    7   11     21.08     48.19
    4    7   11    -62.57     10.92
    2    7   11      5.08      1.46
    0    7   11     69.26     -2.53
    7    8   11      9.84      0.97
    5    8   11     10.61    -40.66
    3    8   11    -15.75    -21.27
    1    8   11     -7.79     28.79
    8    9   11     22.83     -1.52
    6    9   11      1.47      3.10
    4    9   11     13.44     38.46
    2    9   11     31.75     -7.68
    0    9   11     54.57      4.64
    9   10   11      1.64    -31.02
    7   10   11     -1.53     -1.62
    5   10   11     -4.83    -16.30
    3   10   11     14.77    -22.76
    1   10   11    -29.03     -8.24
   10   11   11     57.98     -1.88
    8   11   11     -3.64     29.31
    6   11   11      3.11    -21.04
    4   11   11     23.87     -9.75
    2   11   11     11.63     -1.28
    0   11   11     -1.37     -0.10
   11   12   11      7.57      5.66
    9   12   11     25.56     -8.38
    7   12   11    -10.11      6.01
    5   12   11    -15.52     39.14
    3   12   11     21.12      2.07
    1   12   11     -5.22    -15.07
   12   13   11     23.94    -13.37
   10   13   11    -35.11    -17.38
    8   13   11      4.47     10.46
    6   13   11     12.14     -0.69
    4   13   11    -39.89     -3.81
    2   13   11    -20.93     20.97
    0   13   11     18.33      0.77
   13   14   11     20.03     12.60
   11   14   11    -23.21      1.96
    9   14   11     -0.07    -12.08
    7   14   11      6.42     35.22
    5   14   11     -8.17     -1.81
    3   14   11    -30.05      4.00
    1   14   11     35.05     -3.73
   14   15   11      6.31      4.56
   12   15   11    -19.75    -25.13
   10   15   11      1.25     29.54
    8   15   11      9.75     -4.18
    6   15   11    -11.26    -20.79
    4   15   11    -13.51     16.36
    2   15   11    -13.32      9.52
    0   15   11     18.53     -0.04
   15   16   11     11.77     28.57
   13   16   11    -46.79      8.02
   11   16   11     -1.12     -1.00
    9   16   11     31.21     16.92
    7   16   11    -17.71     -8.66
    5   16   11     -9.42     17.46
    3   16   11     13.48     -6.42
    1   16   11     -0.06     -8.92
   16   17   11     25.98    -11.01
   14   17   11    -11.96    -41.89
   12   17   11    -19.57     30.75
   10   17   11     29.97     -7.86
    8   17   11      1.71    -18.98
    6   17   11     13.78     22.60
    4   17   11     20.82    -25.08
    2   17   11     -0.20      4.65
    0   17   11     -2.81      4.76
   17   18   11     17.65     -4.35
   15   18   11     -2.27     23.17
   13   18   11     -7.12      6.30
   11   18   11     16.72      5.13
    9   18   11      7.06     -4.45
    7   18   11     -6.38     14.12
    5   18   11    -13.28     -1.56
    3   18   11     14.81     -5.31
    1   18   11      4.40     39.61
   18   19   11     23.90      4.51
   16   19   11     -3.88     -7.16
   14   19   11      3.02     -8.50
   12   19   11     16.74    -30.21
   10   19   11     -8.65     18.27
    8   19   11      3.44      0.16
    6   19   11     17.51    -17.05
    4   19   11     -8.47     16.09
    2   19   11      1.70      8.29
    0   19   11      2.01      8.54
   19   20   11     10.97     -6.84
   17   20   11    -24.75      9.73
   15   20   11     -9.02     -8.90
   13   20   11     18.72      5.18
   11   20   11      6.79     10.87
    9   20   11    -16.81    -13.85
    7   20   11      9.98     -8.18
    5   20   11     -8.67     -7.94
    3   20   11     -5.02      3.39
    1   20   11     11.25    -11.49
   20   21   11     23.16      6.63
   18   21   11      2.92    -14.34
   16   21   11     -3.43     -9.34
   14   21   11     -3.41    -11.59
   12   21   11    -14.32     14.14
   10   21   11    -18.25     -6.41
    8   21   11    -14.48      5.78
    6   21   11     -8.30      4.87
    4   21   11     -2.78     -4.69
    2   21   11    -12.23     28.66
    0   21   11      1.19      6.20
   21   22   11      4.77     -8.63
   19   22   11    -21.84     11.20
   17   22   11     -2.36     -7.95
   15   22   11      3.80     16.01
   13   22   11    -12.68      5.28
   11   22   11      3.71     -0.20
    9   22   11     12.86     23.51
    7   22   11    -28.31     -9.84
    5   22   11     -6.80      2.84
    3   22   11     -0.11     -6.77
    1   22   11    -13.85    -21.54
   22   23   11     14.64      9.72
   20   23   11    -23.11      1.82
   18   23   11     -5.88      1.56
   16   23   11      7.73     -8.29
   14   23   11    -22.85     -4.46
   12   23   11     -5.92     -4.66
   10   23   11      0.01    -16.55
    8   23   11      2.03      2.72
    6   23   11    -27.10    -15.83
    4   23   11     18.40      5.44
    2   23   11     12.92      8.37
    0   23   11    -19.69     -2.37
   23   24   11     -2.99      3.76
   21   24   11     -2.97      7.09
   19   24   11      5.52     -5.31
   17   24   11     10.05     14.34
   15   24   11    -20.51     -3.91
   13   24   11    -28.79     -2.58
   11   24   11      6.18     22.38
    9   24   11      9.82     -5.06
    7   24   11    -27.85     -4.34
    5   24   11    -30.34     -0.50
    3   24   11      6.92      1.18
    1   24   11    -10.54     14.64
   24   25   11     16.02      6.25
   22   25   11     -5.13      1.00
   20   25   11     -0.62      9.66
   18   25   11      9.30      1.83
   16   25   11    -12.06     -6.02
   12   25   11      9.10     -6.54
   10   25   11     11.65     -0.83
    8   25   11      4.77      3.56
    6   25   11     10.13     -3.57
    4   25   11     -5.71     -2.15
    2   25   11      8.23    -16.64
    0   25   11      7.24     -4.69
   14   25   11     -1.51      9.30
   23   26   11     -4.82     -6.72
   21   26   11      0.88      9.50
   19   26   11     11.10     -3.12
   17   26   11     -5.36    -12.60
   15   26   11      0.66     -0.61
   13   26   11      7.59      3.68
   11   26   11     -9.61     -6.53
    9   26   11     -9.81      2.39
    7   26   11     10.35     -4.83
    5   26   11     -8.01     -1.96
    3   26   11     -9.96      8.37
    1   26   11      8.05     -9.68
   22   27   11     -4.92     11.81
   20   27   11      6.52      3.21
   18   27   11     11.05      2.59
   16   27   11      4.32      9.95
   14   27   11     13.44     -1.48
   12   27   11      2.54     13.47
   10   27   11      1.15      8.20
    8   27   11     10.82     -3.71
    6   27   11      8.37     10.63
    4   27   11     -7.91    -12.71
    2   27   11     -5.15      9.59
    0   27   11     14.13     -1.65
   21   28   11      7.25     -2.50
   19   28   11      3.97     10.44
   17   28   11      1.11    -18.03
   15   28   11     11.75    -12.87
   13   28   11     10.62     -7.71
   11   28   11      1.22     -8.79
    9   28   11      1.10      9.04
    7   28   11      8.11     -6.56
    5   28   11      2.75     -3.87
    3   28   11     -1.60     -6.71
    1   28   11      4.60    -15.59
   20   29   11     -3.23     -2.84
   18   29   11     21.67     12.62
   16   29   11     20.21     -6.25
   14   29   11    -22.40     -5.42
   12   29   11      2.96      4.82
   10   29   11     -0.43     -3.45
    8   29   11     13.17     10.45
    6   29   11     -3.47     -8.98
    4   29   11      2.66     14.67
    2   29   11     10.59      8.33
    0   29   11     -0.61     -0.03
   19   30   11    -11.89    -15.68
   17   30   11      6.33     -4.54
   15   30   11      8.35    -10.01
   13   30   11     -5.64    -10.44
   11   30   11      9.10     17.73
    9   30   11     11.79      6.13
    7   30   11     -9.75     -1.65
    5   30   11     13.04     -3.44
    3   30   11      9.04    -16.71
    1   30   11     -3.12      5.85
   18   31   11     10.82     -0.53
   16   31   11      0.93      1.79
   14   31   11     15.67     -3.80
   12   31   11     -6.41     -6.33
   10   31   11     14.84     -6.71
    8   31   11     -8.29     -0.87
    6   31   11      2.51      0.88
    4   31   11      0.60     -5.58
    2   31   11     -0.54     -3.19
    0   31   11      4.02     -1.74
   15   32   11      5.68     -5.70
   13   32   11      8.41      2.77
   11   32   11      5.85      9.29
    9   32   11     -9.04     -1.47
    7   32   11      9.55     -8.41
    5   32   11     -4.56      6.96
    3   32   11     -4.95     13.90
    1   32   11      9.38     -0.58
   14   33   11      4.02     -8.16
   12   33   11     16.63      8.36
   10   33   11     -3.73     -1.91
    8   33   11      3.32      9.90
    6   33   11     -0.68     -1.07
    4   33   11    -10.31    -20.79
    2   33   11     -9.04    -11.94
    0   33   11    -11.01     -4.82
   11   34   11    -13.64     -1.70
    9   34   11      3.68     -3.64
    7   34   11      9.33     -1.75
    5   34   11      2.15      6.52
    3   34   11     -9.32      0.54
    1   34   11      2.76      1.49
    6   35   11     -6.60     -9.87
    4   35   11     -1.79     -6.33
    2   35   11     -4.79     10.26
    0   35   11    -16.00     -2.44
    1    1   12    -35.29      8.31
    0    2   12    -77.65    -25.01
    2    2   12     14.92      8.83
    1    3   12    -36.92      7.86
    3    3   12    -47.54     -2.62
    2    4   12    -39.92     14.86
    0    4   12    -10.59      7.89
    4    4   12    -26.15     11.43
    3    5   12     23.77     11.46
    1    5   12    -32.26    -39.15
    5    5   12    -86.85     16.03
    4    6   12    -69.12     -7.02
    2    6   12    -61.16      6.30
    0    6   12     22.62     -4.70
    6    6   12     18.62     -3.54
    5    7   12      0.40      8.84
    3    7   12    -37.97      1.39
    1    7   12     19.53     15.97
    7    7   12     12.33     -0.21
    6    8   12    -20.42      2.21
    4    8   12    -33.17     -9.98
    2    8   12    -21.13    -32.39
    0    8   12    -58.74      0.04
    8    8   12     45.93      0.64
    7    9   12    -18.68      3.61
    5    9   12     21.60     -7.38
    3    9   12     17.86     -8.55
    1    9   12    -22.02    -23.33
    9    9   12     42.12     -3.44
    8   10   12    -21.42     17.93
    6   10   12    -27.38     24.51
    4   10   12     -3.61     -7.82
    2   10   12      2.87      7.08
    0   10   12    -16.23     -7.82
   10   10   12     54.64     -4.79
    9   11   12    -18.65    -21.77
    7   11   12      3.43    -25.74
    5   11   12      8.62     24.12
    3   11   12     29.82    -28.60
    1   11   12     -4.08     -9.65
   11   11   12     16.34     -4.78
   10   12   12     13.03     17.89
    8   12   12    -16.31    -12.56
    6   12   12    -20.79     14.55
    4   12   12      3.24    -15.98
    2   12   12     -4.35    -11.23
    0   12   12    -21.27     -6.73
   12   12   12     10.70      2.90
   11   13   12     10.25     -0.46
    9   13   12     -5.94    -21.79
    7   13   12      1.51    -32.27
    5   13   12      5.50    -10.34
    3   13   12    -19.69      8.65
    1   13   12     37.96      3.06
   13   13   12     10.90     -4.33
   12   14   12    -13.17      5.11
   10   14   12    -26.49      8.54
    8   14   12     10.06     27.11
    6   14   12     17.93     -8.05
    4   14   12    -10.67     -6.47
    2   14   12    -15.22    -20.87
    0   14   12      9.33     -8.51
   14   14   12     16.97      2.87
   13   15   12     -2.13      0.72
   11   15   12    -15.45     -3.68
    9   15   12      7.48    -17.39
    7   15   12     11.40    -18.08
    5   15   12    -27.18      4.19
    3   15   12     13.42     16.61
    1   15   12      4.14     -4.14
   15   15   12     15.26     -1.37
   14   16   12    -34.19     -3.87
   12   16   12      2.79     -3.22
   10   16   12     13.61      3.58
    8   16   12     -3.30     14.94
    6   16   12      0.09     -0.27
    4   16   12      3.24    -17.02
    2   16   12     14.99     -5.50
    0   16   12    -19.61     -1.98
   16   16   12     52.23     -0.12
   15   17   12      8.04     18.84
   13   17   12    -10.20    -18.05
   11   17   12      6.96     -1.60
    9   17   12      6.32      8.40
    7   17   12     -3.54      4.08
    5   17   12     11.43    -12.77
    3   17   12     -1.21      4.74
    1   17   12      6.30      2.49
   17   17   12      9.03      1.42
   16   18   12    -23.71     -6.73
   14   18   12     -6.51     10.84
   12   18   12     13.71     23.27
   10   18   12     10.36    -11.79
    8   18   12     13.89     -6.58
    6   18   12    -14.61    -16.23
    4   18   12     21.18     17.13
    2   18   12      1.07    -27.33
    0   18   12    -19.94      1.96
   18   18   12     44.45      0.31
   17   19   12      3.91      6.60
   15   19   12    -12.32    -10.42
   13   19   12     17.75     31.63
   11   19   12      0.11    -22.15
    9   19   12    -11.12     12.91
    7   19   12     -4.10      7.47
    5   19   12      0.20     -9.50
    3   19   12     -3.44     -9.42
    1   19   12      5.91      4.67
   19   19   12     20.13     -1.09
   18   20   12    -23.85      0.03
   16   20   12     -2.95     -3.26
   14   20   12     19.17      6.30
   12   20   12     12.77     12.23
   10   20   12      5.39     16.33
    8   20   12    -11.80    -14.95
    6   20   12     20.84     -0.89
    4   20   12    -15.81      1.38
    2   20   12    -17.60      8.92
    0   20   12      8.44      0.57
   20   20   12     13.64      1.54
   19   21   12     14.91     -4.12
   17   21   12     -7.22     -6.50
   15   21   12    -12.19     12.75
   13   21   12     15.03     -4.24
   11   21   12    -13.10     14.01
    9   21   12     -1.43     -2.10
    7   21   12     -5.97      3.70
    5   21   12    -27.81     -4.35
    3   21   12     -0.67     12.80
    1   21   12     -2.56      9.63
   21   21   12      0.03     -4.45
   20   22   12     -8.79      4.10
   18   22   12    -14.12     -6.54
   16   22   12      0.06     -1.12
   14   22   12     -6.66      2.11
   12   22   12     -3.05    -12.71
   10   22   12     -3.50     14.61
    8   22   12      5.97      0.53
    6   22   12     -5.30    -17.34
    4   22   12     -9.46      5.24
    2   22   12     -0.75      3.61
    0   22   12    -18.22     -4.55
   22   22   12     24.67     -0.25
   21   23   12     14.90     -8.59
   19   23   12    -11.81     -8.93
   17   23   12     -0.44     -0.21
   15   23   12      0.79     -6.35
   13   23   12    -40.47     14.58
   11   23   12     21.15      9.57
    9   23   12      0.19      3.55
    7   23   12    -38.44      3.60
    5   23   12      7.10      2.70
    3   23   12     10.11      3.69
    1   23   12    -22.61      2.33
   23   23   12      2.33      1.48
   22   24   12      4.30      3.37
   20   24   12      1.76     12.93
   18   24   12     -0.55     -0.79
   16   24   12      1.24      7.80
   14   24   12    -11.79      3.50
   12   24   12    -15.26      4.36
   10   24   12     14.43      9.74
    8   24   12     -1.05      1.72
    6   24   12    -12.77      4.29
    4   24   12     -6.56    -12.41
    2   24   12      0.61     -7.81
    0   24   12     -2.44     -4.98
   24   24   12      5.64      2.04
   23   25   12      0.82      5.31
   21   25   12    -20.52     -9.12
   19   25   12      4.33      3.51
   17   25   12      5.26      0.26
   15   25   12    -10.89      2.18
   13   25   12     17.39     -2.00
   11   25   12      1.62     -6.63
    9   25   12     -3.27      2.73
    7   25   12      1.62     -5.24
    5   25   12     -7.40     -6.74
    3   25   12     -5.50      7.00
    1   25   12     -6.60     17.43
   22   26   12     -9.00      3.61
   20   26   12     11.66     -4.33
   18   26   12      3.67      3.97
   16   26   12     -6.05     -2.58
   14   26   12     -2.91      1.16
   12   26   12      6.26     11.38
   10   26   12      4.46      2.63
    8   26   12     -9.43     -2.91
    6   26   12      7.67     -0.24
    4   26   12     -4.38     -2.89
    2   26   12    -12.88     -5.62
    0   26   12     37.30      5.87
   21   27   12     -1.52      9.27
   19   27   12      9.76      2.96
   17   27   12     -1.04     -0.66
   15   27   12     -7.62     -8.53
   13   27   12      8.02     -5.41
   11   27   12     -2.43     10.20
    9   27   12      2.47     -4.08
    7   27   12      6.58      4.32
    5   27   12     -9.48      0.30
    3   27   12    -10.80      0.60
    1   27   12     -4.50     12.76
   20   28   12     -0.42     -7.74
   18   28   12      3.74     -9.87
   16   28   12     15.72     -1.71
   14   28   12     20.52      0.01
   12   28   12      5.34    -13.71
   10   28   12     -4.18     -7.20
    8   28   12     14.69     12.05
    6   28   12     11.59     -3.51
    4   28   12      5.87     -0.01
    2   28   12     17.74      1.34
    0   28   12     -7.08     -1.57
   19   29   12    -15.41     -0.41
   17   29   12     -6.34     -0.37
   15   29   12      8.40    -14.89
   13   29   12    -18.33     14.45
   11   29   12      3.62     16.75
    9   29   12      6.29      4.12
    7   29   12    -10.93      6.85
    5   29   12      7.96     -4.36
    3   29   12     -0.71      6.33
    1   29   12      2.93      8.67
   18   30   12      7.06     -7.76
   16   30   12     23.38      3.17
   14   30   12      3.74    -18.39
   12   30   12      8.92    -24.62
   10   30   12     20.20     -0.31
    8   30   12      2.56    -15.93
    6   30   12     -0.89      7.04
    4   30   12     10.11     -2.24
    2   30   12      0.14      0.54
    0   30   12      7.59     -3.71
   15   31   12    -14.44      4.34
   13   31   12      4.20      7.75
   11   31   12     -4.73      3.86
    9   31   12     -1.62     15.99
    7   31   12     12.06     13.75
    5   31   12     -8.29      2.64
    3   31   12      9.82      5.63
    1   31   12      6.17    -18.20
   14   32   12     14.28     -2.82
   12   32   12      9.56     -0.88
   10   32   12     10.13      5.61
    8   32   12      7.82     -8.17
    6   32   12      7.58    -11.35
    4   32   12      0.44      6.60
    2   32   12     -0.24    -14.30
    0   32   12      6.92     -0.45
   11   33   12    -11.50      1.62
    9   33   12     -4.79      7.91
    7   33   12     -3.57      0.06
    5   33   12     -1.58      2.99
    3   33   12     -8.34     -9.37
    1   33   12     -6.53      9.50
    8   34   12      7.79     -7.26
    6   34   12     -3.29     -5.61
    4   34   12      3.71     -3.75
    2   34   12     -0.43      1.68
    0   34   12     -0.09      7.74
    3   35   12     -0.67      4.71
    1   35   12     -8.78     -8.87
    0    1   13     -9.58     -2.00
    1    2   13     28.36     54.93
    2    3   13     -0.10     -7.74
    0    3   13    -13.35     11.01
    3    4   13     34.51     25.45
    1    4   13      8.69    -40.91
    4    5   13    -17.86    -17.53
    2    5   13     14.66      7.79
    0    5   13      6.49      2.02
    5    6   13     14.79     -2.94
    3    6   13    -38.24     -5.04
    1    6   13     -0.82     53.56
    6    7   13      9.45    -16.07
    4    7   13    -29.36     40.90
    2    7   13      9.08    -58.72
    0    7   13     68.22     -6.31
    7    8   13     26.15     19.87
    5    8   13    -23.32     18.33
    3    8   13    -29.45     37.49
    1    8   13      2.97     -9.26
    8    9   13    -19.95    -16.59
    6    9   13     18.67     30.15
    4    9   13     16.08    -28.62
    2    9   13     19.24    -45.43
    0    9   13    -17.17      6.06
    9   10   13     23.44      9.40
    7   10   13    -60.65     -8.97
    5   10   13    -13.88      2.38
    3   10   13     20.08     -6.94
    1   10   13     -6.82     14.13
   10   11   13     12.76     11.92
    8   11   13      8.88     -1.12
    6   11   13    -22.00     -7.15
    4   11   13     46.25      1.13
    2   11   13    -26.31    -48.49
    0   11   13    -34.39     -1.99
   11   12   13     13.19    -23.26
    9   12   13    -33.92    -50.71
    7   12   13     -9.50     28.54
    5   12   13     -3.92    -21.87
    3   12   13      0.07     23.82
    1   12   13     29.16    -22.50
   12   13   13     21.00      4.20
   10   13   13    -39.71    -22.41
    8   13   13     -6.82     17.03
    6   13   13     27.67      1.65
    4   13   13    -23.97     10.12
    2   13   13      4.74     18.52
    0   13   13      5.61     -2.25
   13   14   13      6.51    -14.17
   11   14   13    -25.29    -23.82
    9   14   13     -9.64     15.52
    7   14   13     15.18    -36.47
    5   14   13    -10.68     18.82
    3   14   13     -9.67    -16.70
    1   14   13     -9.46     -3.08
   14   15   13     10.74    -20.15
   12   15   13    -38.84      1.14
   10   15   13     -3.54      1.99
    8   15   13     13.24     -0.25
    6   15   13     -0.52     13.72
    4   15   13     -6.24      7.21
    2   15   13      5.62     12.67
    0   15   13     32.10      0.17
   15   16   13     -4.49     14.93
   13   16   13    -32.84     24.49
   11   16   13      3.14      9.69
    9   16   13     23.08    -11.25
    7   16   13    -23.43     22.02
    5   16   13     17.70    -10.56
    3   16   13     12.34     -2.38
    1   16   13    -24.29     14.47
   16   17   13     26.38     -4.85
   14   17   13    -23.45      5.04
   12   17   13    -14.78    -24.15
   10   17   13     13.82     16.39
    8   17   13    -13.50    -15.50
    6   17   13      4.48      6.43
    4   17   13     12.19    -14.04
    2   17   13     -7.62     -2.82
    0   17   13    -24.60      1.20
   17   18   13     18.94     10.30
   15   18   13     -1.10     14.26
   13   18   13      2.78      8.12
   11   18   13     24.03    -10.08
    9   18   13     -6.02      8.67
    7   18   13     -8.27     -2.05
    5   18   13    -11.44      7.92
    3   18   13     10.55     13.52
    1   18   13      8.53     -5.80
   18   19   13     -2.70      5.19
   16   19   13    -16.53     19.91
   14   19   13      0.11    -16.16
   12   19   13     11.09     17.76
   10   19   13     -7.21      7.85
    8   19   13      8.63      4.74
    6   19   13     14.20      9.86
    4   19   13      7.21    -16.64
    2   19   13     -8.09     16.97
    0   19   13      0.02      6.83
   19   20   13     23.68     10.23
   17   20   13    -27.46    -12.76
   15   20   13     13.78     20.69
   13   20   13     27.90    -27.96
   11   20   13     -7.67     -1.01
    9   20   13    -13.78     -4.82
    7   20   13      5.37    -11.95
    5   20   13      0.69    -12.82
    3   20   13    -21.01     -4.87
    1   20   13      7.59     11.87
   20   21   13      8.51     -3.93
   18   21   13     -2.67    -11.35
   16   21   13    -19.85    -11.28
   14   21   13     -0.93     17.93
   12   21   13      2.99     11.48
   10   21   13     -7.58     -1.41
    8   21   13      1.30     25.72
    6   21   13     -3.20     -2.26
    4   21   13     10.11     13.86
    2   21   13      4.99      3.68
    0   21   13      1.94      5.64
   21   22   13     30.53      3.79
   19   22   13    -14.46     -4.59
   17   22   13     12.26     21.78
   15   22   13     20.35    -11.69
   13   22   13      0.94     16.35
   11   22   13      2.84     15.48
    9   22   13      5.16      3.83
    7   22   13    -15.00     -1.19
    5   22   13      0.76    -20.03
    3   22   13      5.14     -6.82
    1   22   13     -7.32      9.25
   22   23   13      3.61      1.26
   20   23   13     -9.71     -7.44
   18   23   13    -14.29     -7.96
   16   23   13      7.60      3.86
   14   23   13      3.36      4.25
   12   23   13    -18.23     -4.73
   10   23   13     15.93     -6.41
    8   23   13     -1.05     -5.77
    6   23   13    -21.76      1.56
    4   23   13      0.06     -2.82
    2   23   13      2.65      7.39
    0   23   13     -4.95     -1.66
   23   24   13      8.70     -3.17
   21   24   13      2.79      2.45
   19   24   13     19.33     -1.94
   17   24   13     10.22     -6.65
   15   24   13     -7.24     14.07
   13   24   13    -10.90     -0.01
   11   24   13     11.19      6.76
    9   24   13     12.65     15.29
    7   24   13    -10.15    -14.52
    5   24   13     -9.43      1.75
    3   24   13     17.76      5.47
    1   24   13      6.69    -10.61
   22   25   13     -7.65      9.07
   20   25   13     -2.09      0.44
   18   25   13      7.13      6.38
   16   25   13     -4.44      3.06
   14   25   13     -9.30     -4.84
   12   25   13      9.58     13.63
   10   25   13    -12.23      8.96
    8   25   13      1.30     -7.41
    6   25   13      1.85      3.17
    4   25   13     -0.20    -13.84
    2   25   13      0.05     -5.55
    0   25   13     -6.65     -4.74
   21   26   13      7.84     -0.30
   19   26   13      5.66     -6.35
   17   26   13     -6.70     -4.77
   15   26   13      6.47     -2.84
   13   26   13      6.31     -3.01
   11   26   13     -5.18    -11.12
    9   26   13      4.04     -2.13
    7   26   13     13.90      7.54
    5   26   13     -1.39      0.92
    3   26   13    -10.17      1.18
    1   26   13     17.01     -8.25
   20   27   13      3.41      9.04
   18   27   13      9.05     -4.31
   16   27   13      2.46    -10.79
   14   27   13      1.96      3.62
   12   27   13     -1.07     10.56
   10   27   13    -15.11     12.06
    8   27   13     -2.36     14.41
    6   27   13     15.23    -18.34
    4   27   13     -7.52      9.68
    2   27   13      5.36      9.90
    0   27   13     13.85      0.81
   19   28   13     -5.21     -4.13
   17   28   13      5.12    -13.85
   15   28   13      5.05     -1.93
   13   28   13     -0.07    -10.69
   11   28   13     -0.26     -4.00
    9   28   13     -0.85     -4.65
    7   28   13      9.56      4.41
    5   28   13      4.86     10.60
    3   28   13     -0.38      0.83
    1   28   13      0.47      4.28
   18   29   13     18.95      6.72
   16   29   13     -3.51    -13.47
   14   29   13     -1.74    -11.01
   12   29   13     -6.78     -8.73
   10   29   13      0.37      7.08
    8   29   13     -0.77      7.25
    6   29   13     -8.00      0.98
    4   29   13     11.35     -0.11
    2   29   13      3.24      5.18
    0   29   13      4.05      0.43
   17   30   13      4.98     -0.48
   15   30   13     -2.56      2.97
   13   30   13     -3.02      8.39
   11   30   13     -3.71     -4.51
    9   30   13     12.51     13.16
    7   30   13      3.52     -2.88
    5   30   13     -7.55     19.84
    3   30   13     12.28      5.46
    1   30   13      2.24     -8.63
   14   31   13     -1.01    -29.40
   12   31   13     12.21      0.33
   10   31   13     -1.84     -3.76
    8   31   13     -6.23     -6.65
    6   31   13     -1.77     -3.27
    4   31   13      2.91     -9.60
    2   31   13      4.35     -1.19
    0   31   13     -8.02     -1.64
   13   32   13     -6.69      1.34
   11   32   13      6.10     15.71
    9   32   13      2.79    -12.47
    7   32   13    -10.24      3.30
    5   32   13      3.28      1.84
    3   32   13    -19.02      5.49
    1   32   13      7.97     10.44
   10   33   13     -1.86      2.55
    8   33   13     -4.21     10.93
    6   33   13      1.13      0.16
    4   33   13     -3.53      1.70
    2   33   13     -0.76    -10.51
    0   33   13     -5.85     -2.13
    5   34   13     -5.69     -5.29
    3   34   13     -1.61     -0.75
    1   34   13     -3.11     -3.84
    1    1   14      8.47      0.61
    0    2   14     50.37     -2.40
    2    2   14    -52.79      1.46
    1    3   14    -69.48     12.14
    3    3   14     91.86     13.67
    2    4   14     60.63     24.25
    0    4   14     10.82     10.42
    4    4   14    -30.85      2.79
    3    5   14    -58.12     16.17
    1    5   14     17.81     17.62
    5    5   14     27.45     13.30
    4    6   14     10.72     19.19
    2    6   14    -12.67    -11.35
    0    6   14     76.92      3.59
    6    6   14      7.67     13.12
    5    7   14    -38.04     16.12
    3    7   14     21.02      9.59
    1    7   14    -11.94    -26.96
    7    7   14     12.19      0.10
    6    8   14     37.54      8.45
    4    8   14    -41.37    -22.41
    2    8   14    -13.86      4.88
    0    8   14     20.92     -2.98
    8    8   14    -15.35     15.80
    7    9   14     -9.83     13.96
    5    9   14     -1.79     20.38
    3    9   14     11.75    -20.15
    1    9   14     -1.93     -3.31
    9    9   14    -21.88     -2.48
    8   10   14    -21.12     18.96
    6   10   14    -79.88      4.42
    4   10   14     38.91      8.65
    2   10   14     36.48     -5.36
    0   10   14    -39.14    -32.17
   10   10   14    -11.94      6.75
    9   11   14    -22.54    -22.67
    7   11   14    -41.47     -3.60
    5   11   14     11.11     21.58
    3   11   14     31.00     -9.25
    1   11   14      9.44    -12.62
   11   11   14     38.70      3.96
   10   12   14    -18.99     26.23
    8   12   14    -63.32    -13.34
    6   12   14     15.29      3.48
    4   12   14      9.57    -32.84
    2   12   14      8.33    -17.37
    0   12   14      6.30     -4.19
   12   12   14    -20.52      6.90
   11   13   14    -30.41      3.41
    9   13   14     13.72    -22.40
    7   13   14     16.95    -22.00
    5   13   14     -4.05     21.07
    3   13   14     12.52    -15.52
    1   13   14     47.93      9.51
   13   13   14     26.93      5.66
   12   14   14     -9.20      3.34
   10   14   14    -56.57      7.26
    8   14   14     -7.89      8.24
    6   14   14     30.55    -12.30
    4   14   14     -9.45    -11.99
    2   14   14      3.04      5.01
    0   14   14     20.23     -4.70
   14   14   14      9.24      9.98
   13   15   14    -30.55      2.57
   11   15   14     -6.53     -0.32
    9   15   14      2.92     -9.56
    7   15   14      0.97      4.55
    5   15   14     32.25     -0.12
    3   15   14      6.78      9.86
    1   15   14     20.22    -25.84
   15   15   14     23.67      4.67
   14   16   14     19.33     -4.27
   12   16   14    -17.43      8.24
   10   16   14     -9.54     -3.22
    8   16   14     20.68     16.79
    6   16   14    -27.05    -26.67
    4   16   14     21.74     22.89
    2   16   14    -12.32     -3.73
    0   16   14     13.74     -1.17
   16   16   14      9.05      3.68
   15   17   14      1.94     12.02
   13   17   14    -25.69      5.96
   11   17   14      3.57      2.96
    9   17   14     22.31      4.10
    7   17   14      2.08     23.35
    5   17   14     -9.16      4.37
    3   17   14     43.25    -24.11
    1   17   14    -18.61     -8.87
   17   17   14    -10.69      8.74
   16   18   14     16.62      4.79
   14   18   14    -26.71      9.95
   12   18   14     16.52      8.57
   10   18   14     24.25      8.84
    8   18   14    -29.20      0.01
    6   18   14     25.34      7.65
    4   18   14      3.28      3.65
    2   18   14     17.15      4.04
    0   18   14    -21.19     -5.22
   18   18   14     -2.10      1.06
   17   19   14     -9.62      1.91
   15   19   14    -30.35      8.36
   13   19   14     31.89     10.68
   11   19   14    -12.92     -1.61
    9   19   14     -4.15      3.38
    7   19   14     11.70     -5.03
    5   19   14     10.24     -5.01
    3   19   14    -17.24    -12.21
    1   19   14      9.25      1.15
   19   19   14     15.12     -0.94
   18   20   14     -8.83     13.82
   16   20   14    -19.88      5.49
   14   20   14     24.16     16.66
   12   20   14     19.72      8.63
   10   20   14    -24.17     18.87
    8   20   14     12.18     21.57
    6   20   14      8.31      9.52
    4   20   14     -5.21     20.08
    2   20   14      5.17     -8.67
    0   20   14     17.24     -4.83
   20   20   14    -19.82      0.66
   19   21   14      2.72     -9.54
   17   21   14    -13.48     -2.34
   15   21   14     13.22     -1.11
   13   21   14     -4.75     13.00
   11   21   14      6.90      4.50
    9   21   14    -11.71      3.41
    7   21   14     17.33     -5.18
    5   21   14      2.35     -6.43
    3   21   14     -9.02     14.76
    1   21   14      5.86      2.41
   21   21   14     30.37     -3.49
   20   22   14      4.70     13.36
   18   22   14    -23.37    -19.15
   16   22   14     12.16      3.94
   14   22   14     -4.79      4.45
   12   22   14    -10.33     -3.18
   10   22   14     10.47     14.08
    8   22   14     -0.48      6.65
    6   22   14     -3.49     10.48
    4   22   14      6.50      8.13
    2   22   14     -6.59     18.21
    0   22   14    -11.46    -12.89
   22   22   14     -0.32      0.18
   21   23   14      7.29    -14.37
   19   23   14      1.53      1.76
   17   23   14      1.67      0.59
   15   23   14     -7.29      4.40
   13   23   14      3.23      5.54
   11   23   14     -4.13     11.42
    9   23   14      6.75     18.30
    7   23   14     -4.38      4.71
    5   23   14     -9.61      0.01
    3   23   14     23.31    -11.06
    1   23   14    -25.25     -3.99
   23   23   14     16.15     -1.49
   22   24   14     -2.38     12.74
   20   24   14     -6.42     -2.35
   18   24   14      6.54      8.01
   16   24   14      5.02     -1.67
   14   24   14      0.28     14.30
   12   24   14     -9.99      2.97
   10   24   14     13.32     -3.68
    8   24   14     -4.50      5.01
    6   24   14     -5.20     -4.59
    4   24   14     -6.89     20.55
    2   24   14     -0.44      3.96
    0   24   14    -11.45      0.79
   21   25   14      0.83     -9.12
   19   25   14     -5.09      2.58
   17   25   14      0.38      8.59
   15   25   14     -0.49     -5.82
   11   25   14     -3.56      9.36
    9   25   14     -2.34      2.76
    7   25   14     -5.60     12.14
    5   25   14     -1.16    -13.44
    3   25   14    -33.86    -10.42
    1   25   14      4.38      1.37
   13   25   14      5.36     -1.88
   20   26   14     -2.15      2.54
   18   26   14      5.80     -5.28
   16   26   14     -3.85      9.02
   14   26   14     -6.38      8.65
   12   26   14     11.65      1.69
   10   26   14    -14.16     -8.40
    8   26   14      2.97     -4.26
    6   26   14      9.72      0.52
    4   26   14      5.94      0.53
    2   26   14      1.84     15.80
    0   26   14     -3.24      1.97
   19   27   14     14.42     -0.38
   17   27   14     -8.43     -0.63
   15   27   14      4.81     -8.48
   13   27   14     -5.35     -2.01
   11   27   14    -10.95      0.41
    9   27   14    -11.73      8.49
    7   27   14      2.85      5.01
    5   27   14    -14.64      2.57
    3   27   14    -15.27     -4.18
    1   27   14     -4.22      8.54
   18   28   14     -3.78     -1.25
   16   28   14      1.71      5.29
   14   28   14      7.91     -6.18
   12   28   14    -11.09     -5.21
   10   28   14      7.11      1.35
    8   28   14      4.24     -8.75
    6   28   14      9.17      6.35
    4   28   14     12.16     -7.16
    2   28   14     -4.82      1.40
    0   28   14      8.88     -0.27
   17   29   14     16.21     -6.95
   15   29   14     -0.92     -1.97
   13   29   14      8.65     -1.06
   11   29   14     -5.07      0.20
    9   29   14     -6.30     -3.27
    7   29   14     -5.32      6.44
    5   29   14     -3.87      6.70
    3   29   14      7.41     20.14
    1   29   14     -3.24      0.23
   14   30   14     -8.49     -7.13
   12   30   14     -5.66     -3.74
    8   30   14      5.44      4.33
    6   30   14     -4.87     -9.04
    4   30   14     -6.38     -0.43
    2   30   14     -1.67      0.71
    0   30   14     -3.99      0.06
   10   30   14     11.93     -2.58
   13   31   14     -1.61     -5.48
   11   31   14     12.65     -3.19
    9   31   14    -10.84      0.08
    7   31   14     -4.16      8.27
    5   31   14      6.72     10.23
    3   31   14     -7.18     -0.35
    1   31   14      5.72     -1.01
   10   32   14     -0.30      4.47
    8   32   14      5.77      0.14
    6   32   14      4.78     10.58
    4   32   14     -1.76      2.92
    2   32   14      4.69     -3.42
    0   32   14     -2.56     -1.44
    7   33   14     -5.09     -9.35
    5   33   14     -8.85     -9.29
    3   33   14     -4.90     -4.09
    1   33   14     -3.85     -1.83
    0    1   15    -21.00    -12.35
    1    2   15     -4.72      9.01
    2    3   15     16.79    -49.82
    0    3   15    -57.22      4.82
    3    4   15     33.00     -9.34
    1    4   15      0.92     78.57
    4    5   15     26.29     32.88
    2    5   15     12.44     -2.28
    0    5   15      8.94     16.48
    5    6   15      2.63     -5.82
    3    6   15    -32.75     36.07
    1    6   15      9.63    -53.01
    6    7   15     56.90     44.14
    4    7   15    -44.26     -3.90
    2    7   15      3.56     25.73
    0    7   15     71.11     -0.52
    7    8   15     11.07      8.31
    5    8   15     -7.80     29.76
    3    8   15    -23.29     -2.46
    1    8   15      8.98     35.86
    8    9   15      8.82      1.51
    6    9   15    -30.07    -17.25
    4    9   15     27.51     25.01
    2    9   15      9.64    -57.79
    0    9   15    -35.05      2.61
    9   10   15     18.37     -7.79
    7   10   15    -63.06     23.90
    5   10   15     -4.63    -19.62
    3   10   15     15.54      2.92
    1   10   15    -14.81     -7.32
   10   11   15     11.85    -29.77
    8   11   15    -23.04    -11.01
    6   11   15    -21.55      6.41
    4   11   15     29.12    -29.11
    2   11   15      9.41      0.10
    0   11   15    -21.90     -0.89
   11   12   15     12.75    -25.50
    9   12   15    -50.45     30.97
    7   12   15      0.32      6.51
    5   12   15     -1.92     -1.31
    3   12   15    -12.38      1.95
    1   12   15     25.05     -3.09
   12   13   15     -0.96     16.28
   10   13   15    -39.23    -30.69
    8   13   15    -18.87    -16.73
    6   13   15     20.89     -6.49
    4   13   15      1.23     41.81
    2   13   15      0.88    -25.80
    0   13   15     31.60     -3.10
   13   14   15     30.44     -8.93
   11   14   15    -27.98     -4.34
    9   14   15      9.26     13.01
    7   14   15     34.43      7.14
    5   14   15    -10.42    -34.36
    3   14   15    -23.20     24.21
    1   14   15     -3.59     13.10
   14   15   15     -0.83     20.03
   12   15   15    -12.57    -22.25
   10   15   15    -20.59      1.04
    8   15   15      7.09     -8.16
    6   15   15     -3.44     24.89
    4   15   15     -3.47    -20.63
    2   15   15      6.78     -5.02
    0   15   15    -25.32     -6.31
   15   16   15     11.79      6.01
   13   16   15    -31.45      3.65
   11   16   15     27.97      7.00
    9   16   15     20.81      4.21
    7   16   15     -5.50    -17.00
    5   16   15     -7.04     24.02
    3   16   15     10.61     14.01
    1   16   15    -34.78     16.94
   16   17   15     18.17     10.31
   14   17   15     -5.05    -23.53
   12   17   15     -6.54     -3.21
   10   17   15      1.69    -12.59
    8   17   15    -18.10    -17.09
    6   17   15     -3.63      7.18
    4   17   15     -2.73    -28.24
    2   17   15    -18.71    -15.87
    0   17   15    -26.73     -1.49
   17   18   15     -3.62      5.54
   15   18   15      0.31     14.26
   13   18   15      2.97     -2.79
   11   18   15     -5.35     -8.64
    9   18   15     -4.07     15.10
    7   18   15    -11.20     20.78
    5   18   15    -11.70      5.74
    3   18   15    -10.98     -0.06
    1   18   15    -14.11      1.88
   18   19   15      0.26     11.97
   16   19   15    -25.43    -21.57
   14   19   15      0.92      8.27
   12   19   15     11.33     -9.01
   10   19   15     -3.89     -8.37
    8   19   15     -1.81     -1.06
    6   19   15     -1.63    -12.79
    4   19   15     -4.74      9.59
    2   19   15    -11.11      1.19
    0   19   15     13.29      0.38
   19   20   15    -11.78    -26.69
   17   20   15    -10.71     -2.99
   15   20   15    -11.49     -8.40
   13   20   15     14.63    -10.95
   11   20   15    -10.12     -2.14
    9   20   15    -21.38     -2.97
    7   20   15      7.17     22.49
    5   20   15     19.39    -14.78
    3   20   15    -30.46     -4.10
    1   20   15    -14.94      0.00
   20   21   15      4.44     10.47
   18   21   15    -25.47      4.54
   16   21   15    -11.74      6.12
   14   21   15     18.54    -17.07
   12   21   15     -0.22      7.29
   10   21   15    -12.88     -4.87
    8   21   15     -3.00     -9.12
    6   21   15      3.90     11.08
    4   21   15    -18.11     -1.85
    2   21   15     -4.64     18.33
    0   21   15     19.33      7.42
   21   22   15      0.12    -10.88
   19   22   15     -2.51     -3.61
   17   22   15    -22.86    -10.78
   15   22   15     15.33      5.55
   13   22   15      3.31      3.44
   11   22   15     -4.18      1.75
    9   22   15      9.60     15.12
    7   22   15     -8.77    -14.54
    5   22   15     -5.41     10.93
    3   22   15     -1.78     -1.92
    1   22   15    -14.38     -6.95
   22   23   15      0.38     -2.11
   20   23   15    -20.72     -5.04
   18   23   15     -6.01      5.37
   16   23   15     13.56      1.74
   14   23   15     11.63    -11.65
   12   23   15     -4.93    -13.20
   10   23   15      0.66    -12.25
    8   23   15      7.11      2.63
    6   23   15    -14.68      1.74
    4   23   15     -0.04      3.49
    2   23   15     -0.30      0.89
    0   23   15     -5.22     -2.91
   21   24   15      3.06      6.98
   19   24   15    -11.81    -11.11
   17   24   15      0.61     -1.52
   15   24   15     -3.87      6.48
   13   24   15    -25.64      7.45
   11   24   15      5.58     15.75
    9   24   15      1.37    -16.42
    7   24   15    -12.87      8.09
    5   24   15    -10.79     -4.48
    3   24   15      5.16     -0.83
    1   24   15    -13.69      9.94
   20   25   15      2.89      4.22
   18   25   15      5.38      4.38
   16   25   15      0.92     -4.00
   14   25   15      3.52    -10.03
   12   25   15      2.05    -16.88
   10   25   15     -4.39      6.35
    8   25   15      6.98      1.48
    6   25   15     10.37      3.18
    4   25   15      1.36      3.96
    2   25   15     -4.16     -5.05
    0   25   15      7.74      0.58
   19   26   15     -6.43     -3.45
   17   26   15     -3.90     -3.22
   15   26   15     -8.18      5.89
   13   26   15     -0.94      4.62
   11   26   15    -18.57     -3.02
    9   26   15    -15.95      6.53
    7   26   15      7.54    -14.88
    5   26   15      1.99     -4.98
    3   26   15     -8.81      6.40
    1   26   15      8.81     -5.56
   18   27   15     -6.36     -2.89
   16   27   15     -8.32     -4.89
   14   27   15     -5.39     -4.95
   12   27   15      4.12      1.53
   10   27   15     -3.02     -5.64
    8   27   15      0.51      4.15
    6   27   15      8.11     19.75
    4   27   15     -6.48      7.30
    2   27   15     -2.10      7.84
    0   27   15      7.66      0.50
   17   28   15      4.45      1.48
   15   28   15     10.20     -8.43
   13   28   15      6.41     -6.42
   11   28   15    -10.79     -4.96
    9   28   15     -4.46     -0.59
    7   28   15      2.21    -14.02
    5   28   15      8.91     -0.74
    3   28   15      5.94      7.94
    1   28   15      2.16      8.23
   14   29   15    -12.75      5.96
   12   29   15     -8.18     -4.11
   10   29   15      4.01    -10.21
    8   29   15     -1.15     20.30
    6   29   15      2.43      5.50
    4   29   15     -9.20      9.73
    2   29   15     -0.61     -2.86
    0   29   15    -18.14      0.35
   13   30   15     -5.09    -11.62
   11   30   15      8.72      1.71
    9   30   15     12.85     -5.71
    7   30   15     -9.16      5.47
    5   30   15     -5.98      8.63
    3   30   15      6.33     -1.33
    1   30   15     -1.16      4.19
   10   31   15     -8.54     -4.61
    8   31   15      6.13    -13.25
    6   31   15     -9.38     -2.07
    4   31   15      4.34      1.23
    2   31   15     -8.75     -1.65
    0   31   15     -3.26     -0.28
    7   32   15     -3.73      0.86
    5   32   15    -11.79      6.19
    3   32   15     -4.59      1.53
    1   32   15     -6.35     -7.17
    2   33   15     -4.78     -0.63
    0   33   15      2.74     -1.50
    0    0   16     86.38    -19.61
    1    1   16    -50.82     -4.32
    0    2   16    -84.85     -6.52
    2    2   16     -7.93    -15.85
    1    3   16     -4.95     21.48
    3    3   16     28.58      9.26
    2    4   16    -29.47     -1.60
    0    4   16    -33.45      6.72
    4    4   16     43.28    -15.62
    3    5   16     45.15     44.78
    1    5   16      2.92     34.66
    5    5   16    -29.14      8.51
    4    6   16    -51.16    -11.60
    2    6   16    -23.13     -1.20
    0    6   16     52.43     10.61
    6    6   16     89.79      0.33
    5    7   16      1.88     21.17
    3    7   16    -35.02     25.77
    1    7   16     27.71      1.20
    7    7   16     45.74     -0.41
    6    8   16     10.57      6.39
    4    8   16    -16.21     -4.43
    2    8   16     -2.53      0.92
    0    8   16     -8.33      5.14
    8    8   16     48.91     13.23
    7    9   16    -16.70      3.02
    5    9   16     -1.87      1.54
    3    9   16     31.90      5.58
    1    9   16     -1.78     -9.83
    9    9   16     23.30    -10.44
    8   10   16    -31.14     24.54
    6   10   16    -26.64     33.54
    4   10   16     43.68     10.10
    2   10   16     30.01      8.73
    0   10   16      7.45    -12.07
   10   10   16     35.58     10.90
    9   11   16     15.15      9.60
    7   11   16     -7.19    -26.59
    5   11   16    -11.52     15.45
    3   11   16     32.80     -6.69
    1   11   16      2.55     13.48
   11   11   16     27.06     -1.48
   10   12   16     -2.02     18.26
    8   12   16      3.42     -0.22
    6   12   16      9.07      4.80
    4   12   16     16.54    -30.99
    2   12   16     35.33     -6.38
    0   12   16      6.45     -0.19
   12   12   16     15.65     14.84
   11   13   16     14.01     12.10
    9   13   16    -13.93      7.71
    7   13   16     30.58     16.82
    5   13   16     39.15     -8.80
    3   13   16    -24.68     17.42
    1   13   16     39.01      5.30
   13   13   16     34.47      0.85
   12   14   16     13.66      9.24
   10   14   16    -22.61    -13.20
    8   14   16     27.19     -3.36
    6   14   16     31.04     -5.77
    4   14   16    -10.38      4.04
    2   14   16    -10.37    -21.28
    0   14   16     44.41      1.64
   14   14   16     26.96     22.56
   13   15   16     17.85    -14.58
   11   15   16    -24.80     16.19
    9   15   16     25.26     -0.61
    7   15   16     19.22    -11.65
    5   15   16     13.56      9.77
    3   15   16     26.63     -9.85
    1   15   16      3.75     -3.06
   15   15   16     41.45     -2.17
   14   16   16      5.71     10.78
   12   16   16    -17.70     -3.25
   10   16   16     40.01      7.93
    8   16   16      0.32      3.81
    6   16   16      4.45    -16.09
    4   16   16     11.00     -1.45
    2   16   16      4.95      4.89
    0   16   16    -12.95     -0.16
   16   16   16     25.61     13.73
   15   17   16      0.07     -1.13
   13   17   16    -24.13     14.46
   11   17   16     12.76     -2.68
    9   17   16     34.38     -2.83
    7   17   16    -14.45      4.61
    5   17   16     13.58     -7.06
    3   17   16      2.30     -9.91
    1   17   16     -5.51    -23.83
   17   17   16     -2.11      6.11
   16   18   16      0.59     -5.29
   14   18   16     -7.40    -12.98
   12   18   16     24.48     14.42
   10   18   16     -3.01    -11.76
    8   18   16      7.82      8.28
    6   18   16      5.87      1.48
    4   18   16     21.63      8.09
    2   18   16      2.09     -8.40
    0   18   16    -11.66     -3.41
   18   18   16      8.55      1.48
   17   19   16    -13.63     10.18
   15   19   16     -9.11      7.31
   13   19   16     12.71     -4.36
   11   19   16      6.24     12.13
    9   19   16    -24.07     -2.32
    7   19   16     27.08    -21.09
    5   19   16     -0.21     -0.82
    3   19   16     -5.59    -19.54
    1   19   16      6.00      4.44
   19   19   16      7.30     -1.03
   18   20   16     -9.21     -5.02
   16   20   16     -3.14     -0.53
   14   20   16      5.49      4.78
   12   20   16      4.05     -6.70
   10   20   16     -9.18     18.72
    8   20   16     -9.81      8.82
    6   20   16     20.22     19.68
    4   20   16    -21.96     -3.32
    2   20   16    -11.81    -10.33
    0   20   16     25.18     -5.79
   20   20   16     -2.37      4.49
   19   21   16      4.19      5.97
   17   21   16     -7.69     -2.26
   15   21   16     -1.87     -0.08
   13   21   16     23.97    -11.08
   11   21   16    -13.16      4.60
    9   21   16     -0.40      0.62
    7   21   16     18.23    -14.74
    5   21   16      4.10    -14.65
    3   21   16     15.22     10.19
    1   21   16      6.50    -10.14
   21   21   16      1.26     -1.27
   20   22   16     -0.09     -2.09
   18   22   16     -0.81    -11.14
   16   22   16      9.42    -18.02
   14   22   16    -11.51     15.35
   12   22   16     -6.72      8.44
   10   22   16     -1.45     -7.59
    8   22   16     15.87      6.42
    6   22   16    -15.49      2.67
    4   22   16     -2.26      8.59
    2   22   16      6.01     -2.23
    0   22   16    -32.33     -8.97
   22   22   16     10.65      1.72
   21   23   16      1.91      1.65
   19   23   16    -17.86      0.25
   17   23   16      1.21     10.07
   15   23   16     17.47    -13.18
   13   23   16    -17.67      1.78
   11   23   16      3.49     -8.54
    9   23   16     15.83     -0.90
    7   23   16     -9.84     -5.48
    5   23   16      9.98     -0.65
    3   23   16     11.09     -8.65
    1   23   16     -9.62     -0.08
   20   24   16      5.48      0.14
   18   24   16      3.82     -8.41
   16   24   16     -5.95     -0.72
   14   24   16      7.92      2.54
   12   24   16      2.81     -0.38
   10   24   16     11.17      2.58
    8   24   16     -2.83     -0.65
    6   24   16      0.79     -5.91
    4   24   16      2.68      2.81
    2   24   16      5.67      2.23
    0   24   16     -6.08     -0.74
   19   25   16      4.27      5.53
   17   25   16      1.94     -4.68
   15   25   16     -5.01      0.37
   13   25   16      8.05      0.31
   11   25   16     -9.78     -3.46
    9   25   16     -0.50     -5.71
    7   25   16     10.93      3.50
    5   25   16     -1.81      3.92
    3   25   16     -5.80     -1.42
    1   25   16      2.18     -7.49
   18   26   16      1.01      0.42
   16   26   16     -0.67     -8.81
   14   26   16     -1.89     -2.54
   12   26   16      6.61      2.52
   10   26   16      3.00     -5.77
    8   26   16     -5.86      5.97
    6   26   16     14.78     -5.78
    4   26   16      9.34     -6.40
    2   26   16     -5.14     -0.15
    0   26   16     12.06     -0.40
   17   27   16      2.18      0.74
   15   27   16     -5.91      1.41
   11   27   16      1.83     -1.72
    9   27   16     -3.12      3.28
    7   27   16     12.27      6.11
    5   27   16      6.99      1.44
    3   27   16     -4.11     -3.31
    1   27   16      2.63     11.27
   13   27   16     -7.28      0.76
   14   28   16     -8.88     -1.59
   12   28   16      0.60      3.32
   10   28   16     -7.27      6.06
    8   28   16      6.19     -4.73
    6   28   16      0.98      2.54
    4   28   16      1.32     -2.16
    2   28   16      7.39      4.20
    0   28   16     -0.89     -0.13
   13   29   16      0.72     -4.54
   11   29   16      6.74      0.06
    9   29   16     15.83     -8.52
    7   29   16      1.28      7.55
    5   29   16      5.72      2.17
    3   29   16      9.49      7.67
    1   29   16      0.82     -4.30
   10   30   16      3.30      8.08
    8   30   16      1.69     -2.07
    6   30   16    -11.49      6.97
    4   30   16      4.06      0.82
    2   30   16     -3.74     -3.78
    0   30   16     -2.21      0.23
    7   31   16     11.15      3.45
    3   31   16      2.44      1.93
    1   31   16      1.65     -1.66
    5   31   16      2.86      4.10
    2   32   16     -2.24     -1.56
    0   32   16      1.41      0.34
    0    1   17     -8.57     -0.39
    1    2   17     -9.05     36.04
    2    3   17     14.74      5.64
    0    3   17    -70.60      9.68
    3    4   17     50.14     21.58
    1    4   17    -17.23    -25.89
    4    5   17     -8.68     -5.98
    2    5   17     -1.23     20.15
    0    5   17     -3.64     24.05
    5    6   17     25.81     28.16
    3    6   17    -51.30      3.30
    1    6   17     32.73     25.59
    6    7   17     13.97    -27.06
    4    7   17    -14.13     20.62
    2    7   17    -22.12     -4.14
    0    7   17     42.35      3.07
    7    8   17     35.82     34.08
    5    8   17    -31.06     37.41
    3    8   17    -13.79      6.49
    1    8   17     12.44     -8.11
    8    9   17     21.81      1.06
    6    9   17     -7.60    -28.39
    4    9   17    -11.60    -24.67
    2    9   17     19.03     18.41
    0    9   17    -31.19     -3.62
    9   10   17     32.20     17.95
    7   10   17    -53.10      1.83
    5   10   17      3.67    -17.03
    3   10   17     20.18     -7.32
    1   10   17    -22.20     -8.12
   10   11   17     22.83      4.07
    8   11   17    -23.52    -17.16
    6   11   17    -29.98    -19.97
    4   11   17     33.74      5.66
    2   11   17     -2.76    -15.53
    0   11   17      6.65      7.81
   11   12   17     10.92     17.50
    9   12   17    -34.32    -16.59
    7   12   17      0.16     24.90
    5   12   17     -3.75    -14.62
    3   12   17    -14.53    -12.27
    1   12   17     17.43      1.08
   12   13   17      7.37      2.87
   10   13   17    -45.96    -14.61
    8   13   17    -16.16    -14.75
    6   13   17     34.31    -11.52
    4   13   17    -28.05     -8.22
    2   13   17      6.52      5.24
    0   13   17     18.04     -4.57
   13   14   17      9.80      6.55
   11   14   17     -0.55    -26.53
    9   14   17      9.26     25.86
    7   14   17     23.18    -36.41
    5   14   17    -14.38    -32.46
    3   14   17    -23.33    -13.75
    1   14   17      6.11     -2.86
   14   15   17      3.42     -4.37
   12   15   17    -18.30      8.79
   10   15   17    -17.66     -7.04
    8   15   17      6.33    -11.09
    6   15   17     -7.39     -0.74
    4   15   17      8.58      4.12
    2   15   17    -11.34      2.14
    0   15   17      8.07     -6.77
   15   16   17      2.64     -3.08
   13   16   17     -2.23     -2.68
   11   16   17      5.30     -9.57
    9   16   17     12.87    -42.96
    7   16   17     11.66     -4.81
    5   16   17     -9.23    -15.45
    3   16   17     19.82    -20.38
    1   16   17    -16.89      7.01
   16   17   17      5.10     -5.81
   14   17   17     -6.96     -8.10
   12   17   17     -1.15    -17.66
   10   17   17      4.32     21.79
    8   17   17     -8.54    -10.49
    6   17   17    -15.06     -9.71
    4   17   17      6.25      1.44
    2   17   17     26.37     -0.38
    0   17   17    -25.35    -10.79
   17   18   17      6.85      2.52
   15   18   17     -4.38      6.83
   13   18   17      1.30      1.96
   11   18   17      2.98    -12.73
    9   18   17     -6.45     -6.87
    7   18   17    -13.37    -13.69
    5   18   17     13.56    -12.89
    3   18   17      8.26     -3.27
    1   18   17     -2.44    -24.54
   18   19   17     10.99      3.84
   16   19   17    -16.11    -13.66
   14   19   17     -7.79    -11.85
   12   19   17     -2.98      8.04
   10   19   17    -10.33     -3.94
    8   19   17      0.53     11.25
    6   19   17      9.41     11.83
    4   19   17     -4.19    -15.15
    2   19   17      0.17     -1.90
    0   19   17     46.32     -0.16
   19   20   17      7.05      3.02
   17   20   17      3.84     -9.38
   15   20   17      1.52      1.31
   13   20   17     24.29      4.36
   11   20   17      7.51    -10.45
    9   20   17    -13.96    -15.86
    7   20   17     15.01     -9.75
    5   20   17      7.21     -5.95
    3   20   17    -15.30    -13.69
    1   20   17     16.26      2.77
   20   21   17     -4.68     -3.30
   18   21   17     -4.62     -1.26
   16   21   17     -1.68     -0.23
   14   21   17      3.98      0.36
   12   21   17    -12.36      1.95
   10   21   17    -12.57      4.26
    8   21   17     -5.72      2.40
    6   21   17      9.69     -9.88
    4   21   17      3.40     11.43
    2   21   17     -1.56     -7.77
    0   21   17      3.39     -1.29
   21   22   17      3.96      3.29
   19   22   17     -3.49      3.45
   17   22   17     -4.66      7.18
   15   22   17     17.54     -8.82
   13   22   17     15.25     -4.67
   11   22   17      6.86     -1.34
    9   22   17     10.21    -13.03
    7   22   17     -7.61     -5.08
    5   22   17      2.97     -4.25
    3   22   17      2.18    -11.21
    1   22   17     14.50     -0.51
   20   23   17     -0.76      0.00
   18   23   17     -2.96     -4.58
   16   23   17      8.41      1.73
   14   23   17      1.45     -0.46
   12   23   17    -10.13     -1.45
   10   23   17     12.34      0.31
    8   23   17     -1.37     -1.92
    6   23   17    -13.21      6.07
    4   23   17     12.94     -5.10
    2   23   17     -3.67      3.09
    0   23   17     -0.36    -10.17
   19   24   17      1.24      4.20
   17   24   17      9.97     -4.86
   15   24   17      3.60      1.55
   13   24   17     -2.56     -1.47
   11   24   17      3.90     -4.99
    9   24   17     -5.76     -7.86
    7   24   17      7.96     -4.98
    5   24   17     -0.84     -8.20
    3   24   17     12.94     -0.20
    1   24   17      0.21     -8.21
   18   25   17      8.18     -8.54
   16   25   17      6.30     -1.43
   14   25   17     -3.28     -4.69
   12   25   17      0.15     -1.10
   10   25   17     -0.28     -0.87
    8   25   17      3.67     -3.06
    6   25   17     -0.02      8.64
    4   25   17     -7.19     -9.69
    2   25   17      6.09      0.98
    0   25   17     -3.95      1.95
   17   26   17      4.48      4.81
   15   26   17      1.24      3.32
   13   26   17     -2.44     -1.00
   11   26   17     -0.89      7.16
    9   26   17     -9.49     -6.71
    7   26   17     -7.33     -7.17
    5   26   17     13.15     -2.24
    3   26   17     -2.96      0.78
    1   26   17     10.26      5.88
   12   27   17      0.78      4.70
   10   27   17     -0.67     -2.10
    8   27   17      6.73      4.35
    6   27   17     -7.30      1.08
    4   27   17      0.24      9.14
    2   27   17    -11.65     -2.88
    0   27   17     -1.80      0.09
   14   27   17      3.80      9.48
   11   28   17     -2.68     -7.61
    9   28   17     -3.82      0.13
    7   28   17     -6.42     -8.64
    5   28   17     -3.37      5.56
    3   28   17      7.75     -4.85
    1   28   17      4.50     -1.54
   13   28   17      4.64     -7.61
    6   29   17      0.91      7.57
    4   29   17     -5.24     -1.52
    2   29   17      0.99     -1.95
    0   29   17    -18.56     -1.64
    8   29   17     -3.24     15.17
   10   29   17     14.18     -2.02
    7   30   17      6.75      2.96
    5   30   17     -4.63      3.45
    3   30   17     -8.56      2.02
    2   31   17      6.33      2.93
    0    0   18     58.66     10.93
    1    1   18    -15.73     -7.13
    0    2   18     13.59      0.29
    2    2   18    -23.20      4.35
    1    3   18    -39.04     22.56
    3    3   18     70.25     -5.46
    2    4   18     15.21     -2.20
    0    4   18    -55.07     10.24
    4    4   18     30.43     -8.97
    3    5   18    -22.02     41.27
    1    5   18     -0.25     32.75
    5    5   18     17.06     -6.67
    4    6   18    -60.01    -12.34
    2    6   18    -12.22    -47.82
    0    6   18     34.91      6.85
    6    6   18     22.30      1.41
    5    7   18    -22.55     15.69
    3    7   18    -50.29     33.01
    1    7   18     -8.12      3.01
    7    7   18     54.14     -7.97
    6    8   18     15.25     17.70
    4    8   18    -45.66    -17.25
    2    8   18    -26.17     20.19
    0    8   18     41.52     10.61
    8    8   18      6.30      1.80
    7    9   18     -9.19     -9.78
    5    9   18    -24.53      8.49
    3    9   18     28.91     12.61
    1    9   18    -18.62      3.93
    9    9   18      1.21     -8.52
    8   10   18     14.88     12.77
    6   10   18    -63.55     42.90
    4   10   18     25.43     14.66
    2   10   18     16.33     24.61
    0   10   18    -44.19     -2.08
   10   10   18     24.39      1.58
    9   11   18     28.66      6.86
    7   11   18    -37.04    -10.85
    5   11   18     12.87    -10.50
    3   11   18      6.04      1.00
    1   11   18    -11.29     25.03
   11   11   18     21.47     -3.01
   10   12   18      0.53     -0.27
    8   12   18    -10.54     18.98
    6   12   18     21.07    -12.71
    4   12   18    -41.06     -2.79
    2   12   18    -19.42     -9.87
    0   12   18      2.52     -2.63
   12   12   18     12.16      4.84
   11   13   18    -15.01     -0.89
    9   13   18    -37.68     12.12
    7   13   18     37.44     10.28
    5   13   18    -10.63      2.30
    3   13   18    -35.43     18.28
    1   13   18      4.91      2.94
   13   13   18     36.79      3.04
   12   14   18      2.56     -6.15
   10   14   18    -18.51     -1.88
    8   14   18     12.26    -13.40
    6   14   18     -8.52     15.42
    4   14   18    -26.64      6.09
    2   14   18    -30.38    -19.44
    0   14   18     -8.97      4.52
   14   14   18      1.24      9.39
   13   15   18     -4.30    -13.80
   11   15   18    -28.54     14.73
    9   15   18      1.24     17.29
    7   15   18    -17.25    -15.88
    5   15   18     17.07     -5.96
    3   15   18    -26.25     22.09
    1   15   18     -6.57     12.01
   15   15   18     17.20      0.90
   14   16   18    -18.63      8.31
   12   16   18    -20.65      8.52
   10   16   18     16.04     -5.08
    8   16   18    -17.46     -3.00
    6   16   18    -27.78     -6.36
    4   16   18     -1.05      9.87
    2   16   18     -5.23     -2.01
    0   16   18    -27.62     -0.90
   16   16   18    -21.57     18.65
   15   17   18     -1.69    -10.41
   13   17   18    -31.58     -7.59
   11   17   18     -3.12     16.22
    9   17   18     12.90     -6.81
    7   17   18      0.42      6.59
    5   17   18    -27.41      9.66
    3   17   18     14.00      0.72
    1   17   18    -13.00      7.03
   17   17   18     -5.85      4.86
   16   18   18     -0.05      0.58
   14   18   18    -22.25     17.27
   12   18   18     -1.20      6.00
   10   18   18    -14.52     -7.54
    8   18   18    -24.14     -5.26
    6   18   18     -5.11     10.52
    4   18   18      4.80      4.59
    2   18   18     -9.33      3.14
    0   18   18      0.15     -1.24
   18   18   18    -11.89      6.62
   17   19   18     -1.91      3.14
   15   19   18     -9.14     -3.49
   13   19   18      7.06     -5.83
   11   19   18     -4.50     -8.36
    9   19   18     -3.24     14.45
    7   19   18      1.27     -2.18
    5   19   18      7.95      0.98
    3   19   18    -26.95      2.12
    1   19   18     -5.81      8.16
   19   19   18      3.50      1.15
   18   20   18     17.44     -6.43
   16   20   18     -7.61      2.59
   14   20   18     -6.53     -2.34
   12   20   18      2.14     10.22
   10   20   18    -25.10      7.20
    8   20   18    -24.26      8.79
    6   20   18      2.21      2.82
    4   20   18    -22.16     -1.20
    2   20   18      0.64     -3.71
    0   20   18      3.34     -7.03
   20   20   18     -6.09      8.39
   19   21   18     -8.13     -1.55
   17   21   18     -9.82      4.82
   15   21   18     -2.36      1.51
   13   21   18     -6.92     -2.69
   11   21   18     -0.14     12.96
    9   21   18     -7.89     -2.24
    7   21   18      2.22      2.04
    5   21   18     -1.21      1.29
    3   21   18     -9.51     11.88
    1   21   18     -3.75     -8.07
   21   21   18      0.23     -0.08
   20   22   18      2.41      0.93
   18   22   18      3.02      1.30
   16   22   18      9.62     -3.79
   14   22   18     -3.85      0.75
   12   22   18     -6.48     -3.63
   10   22   18     -1.61     -0.30
    8   22   18      6.61     -9.52
    6   22   18    -28.60     -0.86
    4   22   18    -13.05     -2.78
    2   22   18      0.01     -2.33
    0   22   18      6.43     -3.74
   19   23   18     -6.44     -1.77
   17   23   18     -0.38     -5.25
   15   23   18      4.78      5.87
   13   23   18    -12.39      7.25
   11   23   18    -10.20     -5.69
    9   23   18     10.25      4.66
    7   23   18    -11.81     -6.45
    5   23   18    -10.11     14.58
    3   23   18     30.50     -1.67
    1   23   18    -18.61     18.89
   18   24   18     -4.76     11.85
   16   24   18     -1.67     -4.59
   14   24   18     -2.06      6.88
   12   24   18     -3.87      2.53
   10   24   18      8.11    -14.38
    8   24   18     -4.90     -0.19
    6   24   18     -9.61     -6.12
    4   24   18     -2.08      7.38
    2   24   18      6.12     -9.26
    0   24   18    -14.84     -5.81
   15   25   18      6.34     -0.17
   13   25   18      0.40      0.15
   11   25   18      1.54      1.57
    9   25   18      3.79     -4.96
    7   25   18    -12.77      6.55
    5   25   18      3.12     -4.36
    3   25   18     -4.86     14.86
    1   25   18     -1.31    -10.43
   14   26   18     -5.77      0.58
   12   26   18     10.52     -0.12
    8   26   18     -1.69      5.39
    6   26   18     14.97     -0.87
    4   26   18     -3.86      4.09
    2   26   18    -11.68     -0.78
    0   26   18    -11.02     -0.59
   10   26   18     -5.32     -1.70
   11   27   18      4.86     -1.21
    9   27   18    -11.23      5.94
    7   27   18     -3.11     -4.30
    5   27   18    -10.05      1.08
    3   27   18    -13.18    -12.89
    1   27   18     -1.35      0.05
   13   27   18      1.54     10.26
   10   28   18      0.13      9.53
    8   28   18     -1.56    -11.60
    6   28   18     -2.80     14.23
    4   28   18     -9.34      5.92
    2   28   18    -12.24      5.67
    0   28   18     -1.11     -1.18
    7   29   18     -8.56      4.05
    5   29   18     -7.77     -8.47
    3   29   18      3.04      0.46
    1   29   18    -10.61      4.83
    2   30   18     -1.35     -8.60
    0   30   18    -14.36      0.25
    0    1   19     37.08      5.61
    1    2   19     -1.03      2.72
    2    3   19     27.40    -22.71
    0    3   19    -39.92      3.98
    3    4   19     56.28      5.50
    1    4   19    -24.20     12.91
    4    5   19     11.13     13.58
    2    5   19      2.94    -22.85
    0    5   19    -10.92     24.29
    5    6   19      0.58     -7.87
    3    6   19    -44.10      1.31
    1    6   19     46.82     18.78
    6    7   19     40.84     16.54
    4    7   19    -23.91      0.78
    2    7   19     -7.78     32.99
    0    7   19     42.49     -6.20
    7    8   19     21.10     12.54
    5    8   19    -15.11      6.40
    3    8   19      1.91     10.84
    1    8   19     24.68    -22.10
    8    9   19     28.85      5.72
    6    9   19     -6.60    -26.49
    4    9   19     24.75     26.10
    2    9   19     12.30    -10.36
    0    9   19    -32.46      5.04
    9   10   19     52.32      2.73
    7   10   19    -33.88     -9.61
    5   10   19      9.10     14.17
    3   10   19     27.58    -17.47
    1   10   19     -5.18      9.25
   10   11   19     15.83      3.18
    8   11   19     -6.40      1.97
    6   11   19     -7.81      1.45
    4   11   19      8.03     -9.53
    2   11   19      4.97      7.85
    0   11   19      3.24     -2.27
   11   12   19     21.63      7.49
    9   12   19    -17.73     -6.24
    7   12   19     17.05      9.30
    5   12   19     -3.89    -10.33
    3   12   19     -8.25     10.31
    1   12   19     -3.54    -11.68
   12   13   19     -0.25      9.35
   10   13   19    -19.49     15.51
    8   13   19    -10.03     -6.60
    6   13   19     15.34     -7.17
    4   13   19    -30.43    -17.22
    2   13   19    -19.03      1.33
    0   13   19     32.75     -3.54
   13   14   19     17.46     17.53
   11   14   19     -8.90     -3.29
    9   14   19     -6.58     -2.07
    7   14   19     10.73      2.39
    5   14   19    -12.22    -15.84
    3   14   19    -29.35    -17.56
    1   14   19     -9.84      6.78
   14   15   19     -7.67      4.92
   12   15   19     -6.15     -0.21
   10   15   19    -10.71     -2.49
    8   15   19      0.39     -5.90
    6   15   19    -21.01    -19.19
    4   15   19    -11.10      4.53
    2   15   19      4.07      9.13
    0   15   19    -12.57    -10.52
   15   16   19      5.01     -2.31
   13   16   19    -11.40      4.86
   11   16   19      2.48     -8.02
    9   16   19      7.45      2.23
    7   16   19     -8.79      2.36
    5   16   19    -11.95     11.82
    3   16   19      8.31      2.69
    1   16   19    -16.36    -10.18
   16   17   19     -1.59      2.61
   14   17   19      1.25     -8.42
   12   17   19     -0.45      3.83
   10   17   19      8.12      7.45
    8   17   19     -6.68    -11.08
    6   17   19    -17.15     -5.75
    4   17   19      8.67     -1.48
    2   17   19      0.54     14.61
    0   17   19    -12.64     -3.44
   17   18   19      4.40    -11.80
   15   18   19     -6.14     -3.85
   13   18   19      0.35      4.67
   11   18   19      5.02      8.45
    9   18   19     -6.21     -3.24
    7   18   19     -6.31     -5.13
    5   18   19      6.44      0.10
    3   18   19     -1.21     -3.19
    1   18   19     -3.90      3.19
   18   19   19      2.81     -2.56
   16   19   19     -4.16     -0.27
   14   19   19     -3.68      1.12
   12   19   19      4.68      5.40
   10   19   19     11.59      0.91
    8   19   19      2.11     20.69
    6   19   19      6.49      3.69
    4   19   19    -17.01      4.68
    2   19   19     -0.63    -13.27
    0   19   19     33.78     -1.28
   19   20   19      2.16     -2.93
   17   20   19      4.52      2.33
   15   20   19     -5.77     -0.40
   13   20   19     15.84      3.89
   11   20   19      0.79      2.09
    9   20   19    -14.70     -4.42
    7   20   19     10.36    -13.73
    5   20   19     -2.66     -4.16
    3   20   19     -8.12      9.53
    1   20   19     -1.76     -4.02
   20   21   19     -8.65     -6.89
   18   21   19      4.82      0.35
   16   21   19      1.61     -2.22
   14   21   19      6.34      8.24
   12   21   19      4.29     -6.64
   10   21   19      4.00      8.25
    8   21   19     16.29      3.73
    6   21   19      3.16      7.81
    4   21   19     -4.04     -9.93
    2   21   19      5.68     -1.59
    0   21   19     10.17      1.82
   17   22   19      3.86     -8.82
   15   22   19      1.77      0.81
   13   22   19     -4.36      5.19
   11   22   19     -3.32      2.41
    9   22   19      5.32     -8.32
    7   22   19     -8.43      7.49
    5   22   19     -4.33      5.87
    3   22   19      4.77      3.76
    1   22   19     -8.05    -11.93
   16   23   19      1.88      0.65
   14   23   19      0.26      2.82
   12   23   19      4.24      0.97
   10   23   19     13.04     -0.14
    8   23   19     -3.44     10.68
    6   23   19     -5.65     -5.30
    4   23   19     17.69     -1.90
    2   23   19      6.30     14.86
    0   23   19      2.33     -2.00
   15   24   19      0.52     -0.71
   13   24   19     -3.07      1.66
   11   24   19      3.19     -0.77
    9   24   19      7.42     -0.97
    7   24   19      5.21     -2.58
    5   24   19     -1.42      8.17
    3   24   19     -8.54     -1.88
    1   24   19      0.14      9.25
   14   25   19      8.60      2.85
   12   25   19     -3.47      0.99
   10   25   19     -0.42      2.90
    8   25   19     -5.86      1.46
    6   25   19     -0.41      4.07
    4   25   19      2.88     -5.80
    2   25   19     -1.25      7.21
    0   25   19      9.50      9.26
   11   26   19     10.69      7.79
    9   26   19    -13.42    -11.14
    7   26   19     -2.74     -2.49
    5   26   19     -3.17      6.63
    3   26   19     -4.64      9.74
    1   26   19     -4.17     -0.98
    8   27   19      2.58      2.85
    6   27   19     -7.68      3.58
    4   27   19     -6.29     -2.51
    2   27   19     -4.58     -0.19
    0   27   19     -7.33      2.11
   10   27   19      6.27      0.51
    7   28   19    -19.88     -2.34
    5   28   19      2.75      3.43
    3   28   19     -3.06     -2.33
    1   28   19     -8.49      2.26
    0   29   19      3.41     -0.61
    0    0   20    103.11     30.05
    1    1   20     20.01     -2.44
    0    2   20      8.29     -2.70
    2    2   20     11.40     10.89
    1    3   20      8.02      6.97
    3    3   20     62.99      5.64
    2    4   20      9.19      2.29
    0    4   20    -57.18      5.39
    4    4   20     30.88     -4.35
    3    5   20      1.18      6.46
    1    5   20     27.38      3.87
    5    5   20     20.50      2.51
    4    6   20    -11.51    -17.96
    2    6   20    -12.79     -1.48
    0    6   20     26.65     18.80
    6    6   20     46.50     -0.85
    5    7   20    -26.02     26.29
    3    7   20    -32.05     11.57
    1    7   20     21.16    -11.79
    7    7   20     57.55    -16.04
    6    8   20      2.85      0.22
    4    8   20     -3.54      2.94
    2    8   20     21.10     27.17
    0    8   20     38.23     29.52
    8    8   20     43.66     13.43
    7    9   20    -16.48     10.36
    5    9   20      1.14      8.98
    3    9   20     18.48      9.29
    1    9   20      2.97     -5.97
    9    9   20     49.91    -23.63
    8   10   20      1.33     10.30
    6   10   20     -5.77     25.24
    4   10   20     26.01     22.36
    2   10   20     28.21     49.99
    0   10   20    -19.18      1.07
   10   10   20     39.45     18.04
    9   11   20     12.41      2.59
    7   11   20     12.26    -13.74
    5   11   20      3.85    -11.76
    3   11   20     25.83    -21.98
    1   11   20     -7.90      2.94
   11   11   20     43.92     -8.89
   10   12   20      2.31     -0.75
    8   12   20      8.92     15.20
    6   12   20     13.98      3.47
    4   12   20     14.76     16.80
    2   12   20    -17.13     14.43
    0   12   20     17.06     -1.12
   12   12   20     23.95      5.66
   11   13   20     -3.01     -0.90
    9   13   20     -2.34     12.83
    7   13   20      7.00      3.16
    5   13   20      9.97     -3.05
    3   13   20    -36.24     -3.01
    1   13   20     22.50      2.22
   13   13   20     28.44      3.68
   12   14   20      1.66    -16.35
   10   14   20    -12.91     -8.46
    8   14   20      3.72      6.07
    6   14   20     33.10      9.81
    4   14   20    -21.08     15.38
    2   14   20      4.71     -1.05
    0   14   20     10.89      1.51
   14   14   20     17.76      3.54
   13   15   20     -5.11     -2.57
   11   15   20      0.01     24.49
    9   15   20      3.95      9.30
    7   15   20     10.94     -4.66
    5   15   20     -5.57     11.95
    3   15   20      3.89     19.67
    1   15   20      5.19      7.22
   15   15   20     15.52     -1.49
   14   16   20     -6.92      0.05
   12   16   20     -6.35     -6.54
   10   16   20     10.02      8.65
    8   16   20     -1.66     -5.58
    6   16   20    -31.22     -6.63
    4   16   20     19.03     -1.05
    2   16   20      9.83      7.63
    0   16   20      8.01      1.07
   16   16   20      7.25      5.13
   15   17   20     -4.31     -0.21
   13   17   20      3.25    -11.72
   11   17   20      0.88     -4.51
    9   17   20     17.04     -3.90
    7   17   20     -3.30      4.51
    5   17   20     13.25      8.53
    3   17   20     23.05     17.84
    1   17   20     -0.57      5.01
   17   17   20      5.81      1.08
   16   18   20     -6.24      1.28
   14   18   20     -5.57      1.36
   12   18   20      1.88      8.03
   10   18   20      7.34      1.28
    8   18   20      0.70     -1.10
    6   18   20     -5.45      2.62
    4   18   20     -4.84      6.60
    2   18   20     27.31      0.56
    0   18   20      3.28     -6.88
   18   18   20      6.17      2.25
   17   19   20      6.63      0.28
   15   19   20     10.70     -3.30
   13   19   20      6.77     -9.48
   11   19   20      9.20    -21.68
    9   19   20      0.38     -9.64
    7   19   20     23.35      7.52
    5   19   20     12.05      3.93
    3   19   20     -6.40     -2.80
    1   19   20      4.56     10.10
   19   19   20     11.43      1.68
   18   20   20      5.53     -9.17
   16   20   20      2.34     -3.33
   14   20   20     -9.12     -4.85
   12   20   20      4.47      3.90
   10   20   20     -0.21      4.60
    8   20   20      1.40     11.11
    6   20   20      9.75      0.37
    4   20   20      7.38     -5.48
    2   20   20    -11.66      8.12
    0   20   20     28.08     -6.25
   17   21   20      5.92     -1.08
   15   21   20      3.15      1.35
   13   21   20      7.35     -7.04
   11   21   20      7.03     -1.32
    9   21   20      2.40     -1.74
    7   21   20     -1.64     -0.90
    5   21   20      9.04     13.65
    3   21   20     -8.51      9.10
    1   21   20     22.85      3.80
   16   22   20      2.53     -1.72
   14   22   20     -3.53      4.65
   12   22   20     -3.26     -2.80
   10   22   20     14.50      2.28
    8   22   20     10.00     -4.20
    6   22   20     -1.88     -7.96
    4   22   20      1.15     -0.16
    2   22   20     16.54      2.44
    0   22   20     -6.85      1.64
   15   23   20     17.98     -3.16
   13   23   20      2.24     -5.86
   11   23   20      0.61    -10.85
    9   23   20      3.24      6.30
    7   23   20     -6.51      4.11
    5   23   20     -5.00      8.60
    3   23   20     22.65      9.59
    1   23   20     16.10     14.90
   12   24   20    -10.62     14.99
   10   24   20      8.75    -12.32
    8   24   20     11.15     -3.21
    6   24   20     -3.71      0.70
    4   24   20      8.69     -1.25
    2   24   20     12.10     -3.30
    0   24   20     -6.62     -0.76
   11   25   20      5.37     -3.70
    9   25   20      0.96     -2.50
    7   25   20     -0.52     -3.69
    5   25   20     15.63      3.49
    3   25   20      8.06     20.29
    1   25   20      0.56     -5.72
    8   26   20      0.61     -1.76
    6   26   20      7.71      2.04
    4   26   20     -0.53      6.84
    2   26   20     -0.30     -1.44
    0   26   20      6.41     -1.45
    5   27   20      0.38      2.49
    3   27   20      2.87     -6.52
    1   27   20      1.55      2.90
    0    1   21     45.03     -0.32
    1    2   21    -19.05     -5.15
    2    3   21     15.78    -16.34
    0    3   21    -54.33      2.02
    3    4   21     21.36    -14.67
    1    4   21    -39.01      2.85
    4    5   21     -2.01      2.04
    2    5   21    -21.34      7.25
    0    5   21      2.88      4.21
    5    6   21    -18.91    -19.09
    3    6   21    -28.72      7.49
    1    6   21     23.98     -9.27
    6    7   21     24.48    -18.05
    4    7   21    -36.87     17.74
    2    7   21     -3.05    -15.93
    0    7   21     18.36     -2.59
    7    8   21      6.84     -6.32
    5    8   21     12.70     18.03
    3    8   21    -12.29     -1.65
    1    8   21     12.29     15.72
    8    9   21     -3.09    -28.41
    6    9   21    -16.37    -16.85
    4    9   21     12.11     -9.77
    2    9   21     -2.55      0.80
    0    9   21    -13.46      3.73
    9   10   21     34.47      5.32
    7   10   21    -15.23     -3.38
    5   10   21     -0.11    -16.90
    3   10   21     48.44     14.63
    1   10   21    -18.40     -7.77
   10   11   21      6.86     -2.52
    8   11   21     -6.24    -11.29
    6   11   21    -20.84      4.47
    4   11   21     -0.07      7.05
    2   11   21     -0.75    -12.88
    0   11   21      0.16      7.84
   11   12   21      0.52      8.37
    9   12   21     -1.21     -3.21
    7   12   21     14.53      1.20
    5   12   21     10.05     -3.92
    3   12   21    -10.93    -12.66
    1   12   21     -1.05     -2.67
   12   13   21      8.51      7.77
   10   13   21    -14.63      2.73
    8   13   21      3.78      4.96
    6   13   21     21.21     -6.00
    4   13   21    -34.41    -13.55
    2   13   21     -1.29      7.76
    0   13   21     24.92      0.88
   13   14   21      2.56      7.62
   11   14   21     -3.10      1.87
    9   14   21    -17.27      9.96
    7   14   21      1.39     -1.77
    5   14   21     -1.74    -22.71
    3   14   21     -4.57     -5.83
    1   14   21      4.01      0.65
   14   15   21      5.23     -3.61
   12   15   21     -1.93      0.87
   10   15   21     -2.86      0.48
    8   15   21     -9.04    -11.19
    6   15   21    -18.78     -8.50
    4   15   21     15.59      9.75
    2   15   21     -2.41     -1.52
    0   15   21     -0.05     -2.04
   15   16   21     -5.26      0.28
   13   16   21     -4.73      6.53
   11   16   21     -4.64     -0.47
    9   16   21      8.67     -3.61
    7   16   21     -9.34      1.21
    5   16   21     -8.23     -6.74
    3   16   21     13.92     -7.61
    1   16   21      8.14      1.28
   16   17   21      2.25     -5.49
   14   17   21      2.23     -6.72
   12   17   21     -2.79      5.61
   10   17   21      7.50      0.02
    8   17   21     -6.74     -7.66
    6   17   21     -6.88      0.55
    4   17   21      1.84      1.77
    2   17   21     -0.53      4.63
    0   17   21    -21.45     -0.81
   17   18   21      3.02     -0.93
   15   18   21     -5.71      0.79
   13   18   21     -7.55      1.73
    9   18   21      4.39     -2.69
    7   18   21     -5.67    -11.05
    5   18   21     -2.29     -5.49
    3   18   21      1.09     -4.61
    1   18   21      2.50      3.37
   11   18   21      1.46     -2.64
   18   19   21     -8.92      1.19
   16   19   21     -5.00    -10.39
   14   19   21     -3.51      0.25
   12   19   21      7.94      1.49
   10   19   21     -5.55      1.74
    8   19   21      3.52      3.26
    6   19   21      5.20     -3.98
    4   19   21    -17.03     -1.93
    2   19   21     -6.65     -2.96
    0   19   21     15.90      0.83
   17   20   21      0.31      0.01
   15   20   21      2.75     -5.98
   13   20   21     -0.04     -0.74
   11   20   21      8.87     -3.87
    9   20   21     -7.32     -0.91
    7   20   21      0.42     -4.51
    5   20   21     -0.42     -4.39
    3   20   21     -2.52     11.07
    1   20   21     -1.50     -3.28
   14   21   21     -0.26      4.13
   12   21   21     -7.32     -3.68
   10   21   21      2.49     -3.59
    8   21   21     -2.14      4.23
    6   21   21      4.26      0.94
    4   21   21     -9.93    -10.37
    2   21   21     -1.61    -14.28
    0   21   21     11.23     -0.75
   13   22   21      0.46     -9.30
   11   22   21     -1.50      6.22
    9   22   21      0.56     -3.85
    7   22   21      0.67      4.86
    5   22   21    -12.51     -1.15
    3   22   21      7.05      4.05
    1   22   21     -8.48      0.29
   12   23   21     -2.22     -6.93
    8   23   21      3.99     -3.13
    6   23   21    -13.12      0.13
    4   23   21      5.02      1.69
    2   23   21     -0.50      7.83
    0   23   21     -7.97      1.16
   10   23   21     -7.35      3.15
    9   24   21     11.18     -4.33
    7   24   21     -1.52      1.17
    5   24   21     -2.78      1.39
    3   24   21     -2.83      3.69
    1   24   21     -2.66      7.50
    8   25   21    -13.30     -0.15
    6   25   21     -8.68     -9.80
    4   25   21     -1.03     -0.10
    2   25   21      0.05      4.66
    0   25   21    -11.77      7.42
    3   26   21    -10.21      7.78
    1   26   21     -0.56      0.21
    0    0   22     55.24     26.24
    1    1   22     15.58      2.74
    0    2   22    -10.29     -2.45
    2    2   22      7.54      9.34
    1    3   22    -21.75      1.74
    3    3   22     20.97      3.71
    2    4   22     -6.37     -5.17
    0    4   22    -40.78     -3.52
    4    4   22     27.53     -3.32
    3    5   22    -26.85      1.94
    1    5   22     -8.85    -13.09
    5    5   22    -15.68      7.38
    4    6   22    -13.96    -20.80
    2    6   22     -3.64      2.67
    0    6   22     16.28      5.90
    6    6   22     17.89     -0.56
    5    7   22      4.31     -9.52
    3    7   22    -49.67      9.05
    1    7   22     -9.01     34.86
    7    7   22     13.74    -23.38
    6    8   22    -19.44     -7.51
    4    8   22    -23.15      0.23
    2    8   22     27.01     15.36
    0    8   22     37.90      4.68
    8    8   22     11.29      5.44
    7    9   22      0.49     -2.19
    5    9   22    -13.67    -10.15
    3    9   22     18.33      3.66
    1    9   22    -53.41    -50.35
    9    9   22     -1.76     -8.24
    8   10   22     -3.05     -6.78
    6   10   22    -39.64      8.87
    4   10   22     11.01     16.56
    2   10   22     -3.79     21.56
    0   10   22     -0.53      5.59
   10   10   22     20.24      3.46
    9   11   22     -7.70      0.40
    7   11   22    -16.65    -19.88
    5   11   22      8.79     -1.63
    3   11   22    -20.25    -50.01
    1   11   22    -33.37     15.04
   11   11   22      6.22      1.01
   10   12   22     -5.39     -8.04
    8   12   22    -21.11     10.45
    6   12   22     16.14    -12.25
    4   12   22    -23.60     -3.99
    2   12   22     -5.19     27.44
    0   12   22      0.10     -0.18
   12   12   22     10.88      6.40
   11   13   22    -11.80      4.86
    9   13   22    -23.33     -7.78
    7   13   22     -7.34      1.36
    5   13   22    -13.08     -5.13
    3   13   22    -32.76      2.68
    1   13   22     -8.89    -23.58
   13   13   22     11.75     -2.14
   12   14   22    -10.61    -13.25
   10   14   22    -22.87      2.75
    8   14   22      2.63      0.25
    6   14   22      1.46     -3.51
    4   14   22     -6.91     -5.67
    2   14   22    -15.04      3.00
    0   14   22     12.09      3.80
   14   14   22     -0.40      2.26
   13   15   22     -1.26      6.62
   11   15   22     -9.44     -8.60
    9   15   22      0.45      9.30
    7   15   22     -1.35    -10.03
    5   15   22    -14.59      9.25
    3   15   22     -0.08     -2.46
    1   15   22     -7.01     -5.72
   15   15   22      4.22      2.13
   14   16   22    -13.67     -3.57
   12   16   22     -6.28     -1.86
   10   16   22      1.75     -0.40
    8   16   22    -10.56     -3.14
    6   16   22    -23.61    -16.43
    4   16   22     -8.30     -6.82
    2   16   22     -1.86      4.05
    0   16   22    -29.30     -0.88
   16   16   22     -4.42     -3.13
   15   17   22      3.02      2.78
   13   17   22    -14.09    -10.41
   11   17   22     -1.30      4.33
    9   17   22     -8.14    -19.85
    7   17   22    -14.68      0.70
    5   17   22     -3.20     -2.06
    3   17   22      9.59      5.62
    1   17   22     -1.62     -0.04
   17   17   22    -15.92      0.25
   16   18   22     -4.68      1.03
   14   18   22     -8.66      0.83
   12   18   22     -1.07     -4.75
   10   18   22      7.15     -2.75
    8   18   22     -0.82     -8.89
    6   18   22    -10.68     -5.44
    4   18   22      1.50     -9.60
    2   18   22    -12.06    -12.20
    0   18   22     -6.54     -3.33
   15   19   22    -16.04     -8.45
   13   19   22      5.79     -2.43
   11   19   22     -4.16     -4.85
    9   19   22     -5.80     -1.09
    7   19   22     -3.86     -7.22
    5   19   22     -4.05      8.56
    3   19   22    -19.13     -1.38
    1   19   22      4.37      2.62
   14   20   22     -5.91     -8.38
   12   20   22     -7.02     -5.60
    8   20   22     -1.97      5.79
    6   20   22     11.10     -8.82
    4   20   22     -8.21    -18.54
    2   20   22     -2.41      8.92
    0   20   22    -11.89    -19.43
   10   20   22     -4.07     -8.21
   13   21   22      1.72     -0.57
   11   21   22     -2.91     -0.06
    9   21   22     -1.87     -8.16
    7   21   22      3.26     -3.67
    5   21   22     -7.19     19.61
    3   21   22     -8.75      9.66
    1   21   22      9.19    -10.96
   10   22   22      2.04      1.15
    8   22   22     -1.44      4.67
    6   22   22    -14.55    -18.61
    4   22   22      8.74     -7.97
    2   22   22     -9.11      8.25
    0   22   22     -0.32     -0.70
    9   23   22     -0.41     -1.96
    7   23   22    -16.75      0.70
    5   23   22      3.22      9.48
    3   23   22      2.22    -14.61
    1   23   22     -0.96     11.62
    6   24   22     -1.70    -12.02
    4   24   22    -12.96     -9.11
    2   24   22      1.62      4.36
    0   24   22      3.08     -3.69
    0    1   23     34.55      4.21
    1    2   23      6.41    -18.14
    2    3   23     11.32      4.67
    0    3   23      6.02     -2.91
    3    4   23      1.37     -3.01
    1    4   23     -9.62     -5.57
    4    5   23      5.59     15.79
    2    5   23     -3.91      6.75
    0    5   23      4.28     -0.24
    5    6   23     -8.50     -5.16
    3    6   23      0.12     -8.45
    1    6   23     15.74     10.15
    6    7   23     11.40     13.67
    4    7   23    -13.43      4.96
    2    7   23     -6.33    -10.07
    0    7   23      0.47    -19.98
    7    8   23      9.42    -19.15
    5    8   23      1.26     -7.51
    3    8   23     -2.42     10.36
    1    8   23     16.42     -5.20
    8    9   23     -6.65     -7.74
    6    9   23      2.45     -9.43
    4    9   23     11.66     -3.66
    2    9   23     -5.11      1.79
    0    9   23    -15.76     -5.43
    9   10   23     18.47     -8.99
    7   10   23     -9.36     -5.38
    5   10   23      1.82      0.39
    3   10   23     13.10     -3.80
    1   10   23     -0.89     -0.91
   10   11   23      0.81      2.89
    8   11   23      4.83      2.70
    6   11   23     -8.67    -10.98
    4   11   23      4.69     11.20
    2   11   23      9.03    -10.00
    0   11   23    -15.15      1.62
   11   12   23      0.20     -5.76
    9   12   23     -1.67      4.55
    7   12   23      6.24     11.10
    5   12   23      3.13     -1.56
    3   12   23      3.93     -1.62
    1   12   23     -5.22     -2.18
   12   13   23      3.34     12.67
   10   13   23     12.33      6.28
    8   13   23     12.26     -0.87
    6   13   23     11.39     10.53
    4   13   23     -7.78     -9.64
    2   13   23     -8.89      2.57
    0   13   23     24.18      0.71
   13   14   23     12.46      5.81
   11   14   23     -7.40     -0.81
    9   14   23     -8.09     -3.85
    7   14   23      5.80      2.38
    5   14   23      2.38     -7.78
    3   14   23     -6.26      3.92
    1   14   23     10.18      0.39
   14   15   23      2.72      0.75
   12   15   23     11.08     -0.11
   10   15   23     -4.88     -0.28
    8   15   23     -3.38      4.48
    6   15   23      4.40      2.60
    4   15   23      9.76     -0.49
    2   15   23      5.41     -1.08
    0   15   23    -10.15     -0.73
   15   16   23      2.11     -1.92
   13   16   23     -4.64      1.51
   11   16   23      8.12     13.50
    9   16   23      4.94     -2.07
    7   16   23     -8.94     -5.74
    5   16   23      4.19      0.67
    3   16   23     10.44     -3.84
    1   16   23      1.54      1.61
   14   17   23      5.50      5.56
   12   17   23     -7.26     -3.10
   10   17   23     12.05      1.95
    8   17   23      5.47      3.21
    6   17   23     -2.77     -6.87
    4   17   23     10.84      0.78
    0   17   23    -23.55      0.16
    2   17   23      0.82     -3.95
   13   18   23      6.27      6.08
   11   18   23     -2.66     -5.23
    9   18   23     -0.64      5.98
    7   18   23      1.43      0.25
    5   18   23     -9.38     11.44
    3   18   23      1.48     -3.01
    1   18   23     -4.68      1.50
   12   19   23      6.45     17.99
   10   19   23      4.52     -0.76
    8   19   23      5.73     -8.42
    6   19   23     10.86     -2.33
    4   19   23     -1.24      5.27
    2   19   23      1.27      7.12
    0   19   23      5.05     -1.04
   11   20   23      7.56     -0.51
    9   20   23     -4.97     -5.82
    7   20   23     -0.01     14.17
    5   20   23      9.20     -3.19
    3   20   23     -7.50      6.36
    1   20   23      1.73      1.78
    8   21   23     -3.69     -0.37
    6   21   23      3.87      0.51
    4   21   23      6.57     -5.45
    2   21   23     -2.44     -7.15
    0   21   23     12.24      2.65
    7   22   23      7.45      2.92
    5   22   23     -7.72     -5.71
    3   22   23      0.85      3.82
    1   22   23     -1.10     -1.63
    2   23   23     15.29      0.92
    0   23   23    -15.81      0.74
    0    0   24     84.40     23.02
    2    2   24     22.44     10.58
    1    3   24     -1.91      5.82
    3    3   24     33.25      7.14
    2    4   24      9.71     -3.05
    0    4   24    -27.13     -2.69
    4    4   24     32.91      1.71
    3    5   24      5.30     -2.21
    1    5   24     22.66     -9.41
    2    6   24     -7.23     12.73
    0    6   24     19.13      6.27
    4    6   24      4.79     -7.99
    6    6   24     26.67      0.42
    5    7   24      3.86    -11.08
    3    7   24     -9.79      1.39
    1    7   24     22.62     15.14
    7    7   24      9.63     -4.78
    6    8   24     -0.44     -8.94
    4    8   24      6.63     -1.13
    2    8   24     15.19      0.17
    0    8   24      5.73      3.36
    8    8   24      5.61      1.37
    7    9   24     -3.38      4.21
    5    9   24      3.36     -8.03
    3    9   24     19.83      6.15
    1    9   24    -10.31    -14.29
    9    9   24     11.90      2.39
    8   10   24     -7.10     -8.75
    6   10   24     -9.05      3.29
    4   10   24      7.94      3.03
    2   10   24     14.21     -9.48
    0   10   24     -7.62     -2.98
   10   10   24      5.41      2.39
    9   11   24     -2.55     -3.27
    7   11   24     -4.62     -7.09
    5   11   24      0.94      6.54
    3   11   24      2.40    -11.79
    1   11   24      5.29     11.36
   11   11   24     19.46      1.06
   10   12   24     -8.58     -9.37
    8   12   24     -3.62     -0.52
    6   12   24      2.25     10.31
    4   12   24      1.82     -8.79
    2   12   24    -11.90     -1.13
    0   12   24     24.71     -1.54
   12   12   24      2.66      4.47
   11   13   24     -1.17     -1.46
    9   13   24    -21.96     -0.96
    7   13   24     -1.02     -5.30
    5   13   24      2.94      1.34
    3   13   24     -4.79      1.50
    1   13   24     13.41     -4.36
   13   13   24     18.28     -2.46
   12   14   24      1.18    -10.89
   10   14   24     -1.48      3.17
    8   14   24     -0.99     12.58
    6   14   24     18.82    -14.60
    4   14   24    -11.14     -1.72
    2   14   24      2.86      8.73
    0   14   24      3.00      1.56
   14   14   24     -0.20      1.69
   13   15   24      2.01      1.33
   11   15   24     -9.67     -7.25
    9   15   24      2.93      0.59
    7   15   24      2.97      6.76
    5   15   24     -1.82      8.97
    3   15   24      3.90     -5.44
    1   15   24     -5.97     -4.29
   12   16   24      6.06     -1.11
   10   16   24     12.03     -5.87
    8   16   24      5.04     -6.09
    6   16   24    -17.31      2.74
    4   16   24      6.06      2.40
    2   16   24     -1.26     -0.71
    0   16   24    -14.40      2.13
   11   17   24      0.86     -2.59
    9   17   24      3.93     -2.92
    7   17   24     -5.57      2.16
    5   17   24      5.43      0.92
    3   17   24      4.22      8.49
    1   17   24     -9.36     -1.35
   10   18   24      6.09      0.07
    8   18   24     -1.64     -8.63
    6   18   24     -0.09      8.68
    4   18   24      6.66      6.54
    2   18   24     -2.51      3.37
    0   18   24      0.46     -1.74
    9   19   24     -5.27      4.91
    7   19   24     10.29     -4.53
    5   19   24      1.69     -7.82
    3   19   24     -3.87     -4.19
    1   19   24      4.70     -1.71
    6   20   24      3.31     -0.07
    4   20   24     -8.46      9.37
    2   20   24     -5.03     14.83
    0   20   24      2.81     -1.55
    1   21   24      7.04     -3.41
    2    3   25     -8.00      3.46
    1    4   25      4.25    -11.42
    4    5   25      2.24     -5.07
    2    5   25      7.39      3.57
    0    5   25      3.24      0.60
    5    6   25      1.30     -0.73
    3    6   25      5.44     -1.52
    1    6   25     -9.34      5.55
    6    7   25     -4.36      4.26
    4    7   25     -5.65     -4.79
    2    7   25    -10.65     -3.77
    0    7   25     -8.75     -3.57
    7    8   25      1.51    -12.31
    5    8   25     -9.09      1.86
    3    8   25     -3.93      6.27
    1    8   25      3.04     -2.11
    8    9   25     -1.21      0.77
    6    9   25     -5.78     -7.99
    4    9   25     -0.36      3.32
    2    9   25     -4.89      1.02
    0    9   25    -17.39     -2.30
    9   10   25      2.07     -4.07
    7   10   25     -5.66      5.91
    5   10   25      5.57      8.60
    3   10   25      4.73     -8.82
    1   10   25      3.82    -13.05
   10   11   25      5.04      2.34
    8   11   25     -6.87     -5.66
    6   11   25     -3.76      1.80
    4   11   25      5.17      1.18
    2   11   25      2.35      3.03
    0   11   25      0.56      1.59
   11   12   25     -6.31     -4.69
    9   12   25      0.01      1.38
    5   12   25      5.51     -5.50
    3   12   25      5.45      1.20
    1   12   25      7.01      1.14
    7   12   25      3.30      9.06
   12   13   25      6.54      0.98
   10   13   25     -0.93     -1.14
    8   13   25      7.30      1.03
    6   13   25      3.03      1.53
    4   13   25    -13.66      3.91
    0   13   25      3.55      1.79
    2   13   25      7.03      4.39
   11   14   25     -7.99     -2.60
    9   14   25      1.79     -2.99
    7   14   25     -3.80      1.52
    5   14   25     -8.36      8.71
    3   14   25     -3.59      1.09
    1   14   25     -0.70     -2.37
   10   15   25    -11.27     -0.71
    8   15   25      0.52      0.17
    6   15   25      1.41      3.57
    4   15   25     10.42     -0.30
    2   15   25    -10.49      2.01
    0   15   25     -7.52      0.51
    9   16   25     -5.41      2.73
    7   16   25     -4.09      7.70
    5   16   25     -2.84      4.23
    3   16   25     -3.15     -0.84
    1   16   25    -14.67      0.01
    8   17   25     -6.32      6.84
    6   17   25     -0.48      1.99
    4   17   25     -3.39     -2.92
    2   17   25      1.83      0.19
    0   17   25    -18.64      0.42
    5   18   25     -1.45      5.22
    3   18   25     -8.28     -0.55
    1   18   25    -10.41      2.12
    0    0   26    -28.38     -0.10
    0    4   26    -13.34     -0.40
    4    4   26      3.44      0.38
    2    6   26      1.92      7.17
    3    7   26     -3.49     -5.31
    1    7   26     -2.82     -2.79
    6    8   26      2.23     -2.24
    4    8   26     -7.01     -1.72
    2    8   26     -0.40     -2.20
    0    8   26    -15.05      1.06
    8    8   26     -3.02      0.18
    7    9   26      0.60     -0.70
    5    9   26     -3.40     -0.79
    1    9   26     -3.21     -7.85
    9    9   26     -5.30      1.16
    8   10   26     -3.40     -3.50
    6   10   26     -3.43      4.75
    4   10   26     -0.63      0.43
    2   10   26     -6.34    -12.12
    0   10   26      5.36     -0.01
   10   10   26      8.47      0.57
    9   11   26     -4.29     -5.91
    7   11   26     -2.29    -18.29
    5   11   26      2.73      1.31
    3   11   26      7.27     -2.41
    1   11   26      2.10      0.90
   11   11   26     23.04     -4.50
   10   12   26     -4.40     -1.91
    8   12   26     -0.50      8.29
    6   12   26    -11.43     -0.08
    4   12   26     -4.67     -6.50
    2   12   26     10.33     -7.55
    0   12   26     14.04     -0.41
    9   13   26     -3.54    -14.02
    7   13   26      4.82     -1.96
    5   13   26     10.96     -4.16
    3   13   26     -8.51    -12.78
    1   13   26     -2.35     -5.84
    8   14   26     -6.17      3.32
    6   14   26      3.77     -2.12
    4   14   26     -1.68    -11.03
    2   14   26     -2.39      8.50
    0   14   26     17.30      2.51
    5   15   26     -3.37      0.94
    3   15   26     -8.93     -9.63
    1   15   26     -8.07     -8.26
    2   16   26     -2.58     -0.29
    0   16   26    -15.06     -6.01
    3    6   27      3.08      0.72
    4    7   27     -7.06     -4.96
    3    8   27      1.04     -3.00
    1    8   27     -3.73      7.49
    5    8   27     -6.35     -4.01
    8    9   27      4.22      1.21
    6    9   27     -5.15      0.52
    4    9   27     -0.88      4.83
    2    9   27     -3.14     -4.08
    0    9   27    -22.19     -0.18
    7   10   27     -2.85      3.54
    5   10   27     -2.57     -4.81
    3   10   27      5.42     -3.30
    1   10   27      4.07     -0.24
    6   11   27      1.98      3.21
    4   11   27     -0.41     -2.82
    2   11   27      3.59      0.12
    0   11   27      4.94     -1.17
    3   12   27     -0.41      2.46
    1   12   27     11.80      3.28
    0    4   28     14.54      0.03
    1    1    0   -302.02     15.47
    0    2    0    217.42    -13.00
    2    2    0   1204.04    -28.48
    1    3    0     59.28    -38.56
    3    3    0    396.93    -58.11
    0    4    0     54.89     17.20
    2    4    0   -115.53      9.25
    4    4    0    457.69    -34.46
    6    6    0    278.01    -19.28
    0    8    0    335.52     28.57
    2    8    0     26.07     -5.63
    1    9    0     16.62    -44.84
    0   18    0      6.76     -2.15
   28   28    0     -5.58      0.51
   27   29    0      6.85      3.26
   29   29    0     17.18      2.45
   26   30    0     -4.39      1.61
   28   30    0     -0.84      3.22
   30   30    0      3.65      1.02
   25   31    0     -0.95      0.78
   27   31    0     -1.47      0.49
   29   31    0     -5.44      3.01
   31   31    0     10.82      2.00
   24   32    0     -3.57      1.75
   26   32    0      6.75      5.09
   28   32    0     14.05     -2.11
   30   32    0     10.54      1.33
   32   32    0      8.85      1.33
   21   33    0      7.54      3.41
   23   33    0      1.39      0.71
   25   33    0     12.89      1.20
   27   33    0     -8.41      3.35
   29   33    0      3.09      2.03
   31   33    0      0.14      0.86
   20   34    0      0.99      1.94
   22   34    0      3.81     -1.01
   24   34    0     -1.28      1.60
   26   34    0      8.89     -2.14
   28   34    0     15.89      1.18
   30   34    0     13.32      0.86
   17   35    0     11.09      3.32
   19   35    0      4.28      1.04
   21   35    0      2.45      1.61
   23   35    0      2.88      0.37
   25   35    0     -7.58      0.33
   27   35    0      6.01      1.52
   29   35    0     -0.65     -0.47
   16   36    0     15.28     -2.28
   18   36    0     -1.05      0.59
   20   36    0     -6.04      0.83
   22   36    0      2.94      2.14
   24   36    0      3.51     -0.88
   26   36    0      2.67      0.54
   28   36    0      5.63     -0.11
   13   37    0     -0.98     -2.88
   15   37    0      6.38     -2.00
   17   37    0      4.28      1.29
   19   37    0      1.86      0.92
   21   37    0      3.37     -1.35
   23   37    0      1.80     -0.03
   25   37    0      1.27      0.47
   10   38    0     -2.54      1.30
   12   38    0      6.78      3.94
   14   38    0      0.26      4.68
   16   38    0      0.05     -0.58
   18   38    0     13.79      0.27
   20   38    0     -4.10      1.02
   22   38    0      2.78      0.35
   24   38    0      2.39      0.92
    0    1    1    118.36      9.56
    1    2    1    290.65     48.47
    0    3    1    -93.47    -10.49
    2    3    1   -104.50    185.00
    1    4    1   -223.66   -306.37
    0    5    1   -133.14    -19.03
    3    6    1   -220.92      8.08
    0   15    1    -41.66     -6.05
   27   28    1      3.68     -8.82
   26   29    1      7.37      7.33
   28   29    1     12.23     -6.00
   25   30    1     -2.21     -1.59
   27   30    1      1.41      0.56
   29   30    1     -1.03     -3.21
   24   31    1     -1.31      0.35
   26   31    1      3.90      2.48
   28   31    1    -10.83      8.39
   30   31    1      2.86     -4.71
   23   32    1      3.75     -0.66
   25   32    1      4.27     -3.04
   27   32    1     -4.16     -1.41
   29   32    1      4.29     -2.38
   31   32    1      2.40     -2.79
   22   33    1    -10.05     -5.80
   24   33    1     -1.62     -3.02
   26   33    1     -4.03      3.55
   28   33    1      4.26     -2.37
   30   33    1     -6.78      6.19
   19   34    1     -1.38      2.87
   21   34    1     -3.19      0.01
   23   34    1     -6.58      2.73
   25   34    1     -3.68     -5.62
   27   34    1      0.54     -1.06
   29   34    1      5.58      4.39
   18   35    1     -9.03      2.91
   20   35    1     -1.75    -10.48
   22   35    1      0.75      2.83
   24   35    1     -3.22     -4.29
   26   35    1      2.75     -0.53
   28   35    1      2.74      2.02
   15   36    1      3.31      0.04
   17   36    1      5.82      1.40
   19   36    1      0.76      3.20
   21   36    1    -11.79      4.08
   23   36    1     -9.57     -2.88
   25   36    1     -3.14      3.96
   27   36    1      5.10      1.71
   12   37    1     -5.78     -7.80
   14   37    1      5.43      4.58
   16   37    1     14.04      0.32
   18   37    1    -11.22     -4.80
   20   37    1     -2.48      1.68
   22   37    1      0.59     -9.53
   24   37    1      2.34      0.78
   26   37    1     -2.08     -1.94
    9   38    1     -0.84      3.50
   11   38    1     -2.24      1.24
   13   38    1     -1.09      2.90
   15   38    1     -2.65     -0.17
   17   38    1     -4.29     -0.37
   19   38    1     -8.75     -5.06
   21   38    1    -10.55     -0.42
   23   38    1     -3.21      3.38
   25   38    1      3.89     -0.34
    0    0    2    760.97      0.85
    1    1    2     48.71     52.90
    0    2    2     67.17      4.93
    2    2    2   -269.89    -10.82
    1    3    2   -215.45     80.08
    3    3    2    260.74     23.87
    0    4    2   -471.62    -10.53
   28   28    2    -14.09     -0.52
   27   29    2      8.05      8.44
   29   29    2      9.25      1.49
   26   30    2     -7.18     -4.50
   28   30    2    -10.16     -3.47
   30   30    2     -2.76     -0.71
   25   31    2      4.93     -3.34
   27   31    2     -4.42      2.17
   29   31    2     -4.85      7.73
   31   31    2      1.78     -1.47
   22   32    2     -4.80     -1.55
   24   32    2      4.09     -1.84
   26   32    2     -6.36     -0.94
   28   32    2     -0.58     -1.52
   30   32    2      5.44      2.33
   32   32    2     -0.94      1.03
   21   33    2    -11.83     -3.45
   23   33    2      3.51     -9.26
   25   33    2      0.76     -0.68
   27   33    2      7.35      0.22
   29   33    2     -2.93      4.68
   31   33    2     -3.28      3.97
   20   34    2      3.62     -0.37
   22   34    2     10.40      1.01
   24   34    2     -9.35     -4.00
   26   34    2      0.68      0.06
   28   34    2      1.63      5.59
   30   34    2      0.25     -4.38
   17   35    2      4.36      4.99
   19   35    2     -0.42     -0.88
   21   35    2      2.08     -1.06
   23   35    2     -3.32      2.82
   25   35    2      1.23      0.57
   27   35    2     -3.60      3.67
   29   35    2      6.18     -1.67
   16   36    2     -4.24     11.04
   18   36    2      0.81    -12.65
   20   36    2     -6.75     -7.58
   22   36    2      2.77     -0.66
   24   36    2      3.19      0.97
   26   36    2     -1.01     -1.24
   13   37    2     -1.97      6.69
   15   37    2      0.02     -5.29
   17   37    2      5.40     -3.69
   19   37    2      3.28      1.08
   21   37    2      2.42      0.59
   23   37    2     -0.81      0.33
   25   37    2     -2.89      2.70
    8   38    2     -5.66      8.07
   10   38    2     -2.44     -1.54
   12   38    2      5.02     -0.12
   14   38    2     -9.11      4.32
   16   38    2      5.73      4.01
   18   38    2     -2.56      2.73
   20   38    2     -2.27     -7.23
   22   38    2      2.75     -1.59
   24   38    2      4.55      1.25
    0    1    3    105.90     41.31
   27   28    3      4.62      5.95
   26   29    3     -2.80      4.82
   28   29    3     12.22     -5.41
   25   30    3      4.22      4.59
   27   30    3      2.97      2.73
   29   30    3     -3.74      1.33
   24   31    3      1.13      3.15
   26   31    3     -0.09     12.92
   28   31    3     -5.38      1.15
   30   31    3      1.02     -0.97
   23   32    3     -2.74      3.81
   25   32    3      6.16     -3.39
   27   32    3      4.10      1.52
   29   32    3      7.58      3.10
   31   32    3     -0.51     -8.82
   22   33    3     -2.83      3.30
   24   33    3      4.22      1.39
   26   33    3     -7.16     -2.86
   28   33    3     -5.19      7.39
   30   33    3     -5.84      3.29
   19   34    3      0.88      2.07
   21   34    3      1.20     -3.22
   23   34    3     -6.04    -11.51
   25   34    3      4.35     -2.01
   27   34    3     11.68     -1.91
   29   34    3      6.21      1.98
   18   35    3      1.97      2.57
   20   35    3      5.17      4.86
   22   35    3     -2.94      7.35
   24   35    3     -2.41      1.94
   26   35    3      4.70      6.18
   28   35    3     -0.67     -0.56
   15   36    3     -2.37      4.37
   17   36    3      0.88     -2.53
   19   36    3     -7.55      0.26
   21   36    3      2.14    -13.65
   23   36    3      6.68     -5.54
   25   36    3      3.15     -5.81
   27   36    3      1.75     -0.09
   12   37    3     10.97      8.50
   14   37    3     13.41      3.03
   16   37    3     12.70      2.59
   18   37    3      3.14      3.76
   20   37    3     -0.22      3.72
   22   37    3      0.54      0.90
   24   37    3      2.54      2.44
   26   37    3      0.97     -0.52
    7   38    3     12.12     -0.02
    9   38    3     -1.64     -2.62
   11   38    3     -0.11      4.90
   13   38    3     -5.24     -1.34
   15   38    3      0.25     -0.28
   17   38    3     -6.83      0.34
   19   38    3      0.42     -8.85
   21   38    3     -0.19     -4.45
   23   38    3      4.74     -2.46
    0    0    4    470.60     57.14
    1    1    4     60.69     -6.73
    0    4    4    154.63     26.61
    4    4    4    215.82     32.99
    5    5    4     13.59     -3.82
    0    8    4    152.67      8.29
   28   28    4      6.60      1.07
   27   29    4      3.24     -4.42
   29   29    4      4.57     -0.87
   26   30    4      4.96      1.24
   28   30    4     -7.25      5.00
   30   30    4     14.53     -1.26
   23   31    4     -9.64      4.82
   25   31    4      5.22      3.02
   27   31    4      2.01      7.21
   29   31    4      1.86      3.22
   31   31    4     -1.15     -0.45
   22   32    4      3.18     -2.17
   24   32    4      5.20     -2.79
   26   32    4      2.37      5.36
   28   32    4      4.45     -2.31
   30   32    4     -1.41      1.85
   32   32    4      0.42      0.36
   21   33    4      0.27      0.53
   23   33    4     -6.83     -0.27
   25   33    4      4.44      2.26
   27   33    4      3.86      7.72
   29   33    4     -0.50      0.90
   31   33    4     -0.04      3.42
   18   34    4      6.06      1.48
   20   34    4      7.84      2.49
   22   34    4      8.05      0.12
   24   34    4      3.37      1.24
   26   34    4     -4.33      2.80
   28   34    4      1.50      1.75
   17   35    4      0.86      5.98
   19   35    4      2.08     -6.03
   21   35    4     -2.67      5.84
   23   35    4      0.09      3.88
   25   35    4     -6.34     -0.57
   27   35    4      8.78     -3.47
   14   36    4      8.45      8.31
   16   36    4      5.46      2.36
   18   36    4     -1.23     -1.88
   20   36    4      1.57     -7.19
   22   36    4      6.09     -6.71
   24   36    4      0.52      5.04
   26   36    4      1.16      3.24
   11   37    4      7.22     -7.21
   13   37    4     -6.44    -12.17
   15   37    4      1.16     -4.58
   17   37    4      8.32      0.06
   19   37    4      3.00      2.42
   21   37    4     -0.79      2.56
   23   37    4     -3.38      5.97
   25   37    4      5.33      2.24
    6   38    4     14.73     -0.26
    8   38    4      8.57      3.32
   10   38    4     -5.99     -0.91
   12   38    4      1.53      5.83
   14   38    4      5.45      5.13
   16   38    4      5.61      8.58
   18   38    4     -1.52     -2.19
   20   38    4     -2.05     -7.83
   22   38    4      3.54     -0.23
   24   38    4      2.93      2.40
    0    1    5     61.80      8.42
    3    4    5    167.10     -4.94
    0    5    5     50.39    -43.48
    1    6    5     70.13     63.70
   27   28    5      0.56     -7.77
   26   29    5     -9.21     13.38
   28   29    5      9.25      6.24
   25   30    5      1.92      4.95
   27   30    5      1.64     -8.10
   29   30    5     -2.54     -5.00
   24   31    5     -4.78     11.10
   26   31    5     -1.75      0.47
   28   31    5     -1.53      3.05
   30   31    5     -0.92     -6.29
   21   32    5      0.19      3.51
   23   32    5      3.54      8.74
   25   32    5     -3.35     -0.08
   27   32    5      2.52      1.76
   29   32    5      2.11      3.49
   31   32    5     -1.33      0.65
   20   33    5      3.03     -7.63
   22   33    5     -5.45     -6.35
   24   33    5     -3.58     -6.32
   26   33    5     -0.29     -0.70
   28   33    5     -0.13     -5.95
   30   33    5     -3.66     -2.66
   19   34    5      1.18      5.54
   21   34    5     -1.28      2.54
   23   34    5    -11.64     -3.95
   25   34    5      4.44      0.16
   27   34    5      3.41      1.97
   29   34    5     -1.90      7.69
   16   35    5     -9.69     -1.24
   18   35    5     -2.43     -2.94
   20   35    5     -3.18     -5.65
   22   35    5      2.68     -5.45
   24   35    5     -1.40      0.95
   26   35    5      2.27      2.38
   28   35    5      2.68     -2.95
   13   36    5     -8.07     10.64
   15   36    5      6.33      3.37
   17   36    5     -6.19     -2.48
   19   36    5     -3.13      2.80
   21   36    5     -3.66     -3.40
   23   36    5      3.39     -1.53
   25   36    5      0.70      0.04
   27   36    5     -3.91     -4.85
   10   37    5      2.21     -2.18
   12   37    5     -4.13     -6.65
   14   37    5     -7.25      5.14
   16   37    5      1.24     -2.73
   18   37    5      0.49     -2.09
   20   37    5      3.58     -1.30
   22   37    5      0.39     -2.67
   24   37    5      0.88      2.91
    5   38    5     -1.68      4.62
    7   38    5      8.70     -1.35
    9   38    5     -5.90      0.17
   11   38    5     -6.15     12.33
   13   38    5      4.03      8.40
   15   38    5     -1.26      1.63
   17   38    5      4.70      4.66
   19   38    5     -1.01      5.25
   21   38    5      4.57      0.89
   23   38    5      2.76      3.27
    0    0    6   -185.50    -16.55
   27   27    6     11.48     -1.78
   26   28    6     -9.43      0.03
   28   28    6      2.97      3.19
   25   29    6      4.70     -7.43
   27   29    6      8.13    -10.85
   29   29    6     -2.72     -1.89
   24   30    6      2.10     -2.11
   26   30    6      0.27     -0.59
   28   30    6      0.05     -6.82
   30   30    6      5.47      2.14
   23   31    6     -9.11     -7.30
   25   31    6      5.17      5.07
   27   31    6     -0.75     -3.73
   29   31    6      0.84     -2.89
   31   31    6      0.29     -0.18
   22   32    6     -2.96     -0.47
   24   32    6      6.76     -3.31
   26   32    6     -2.65     -6.62
   28   32    6     -3.86     -1.27
   30   32    6     -3.36     -0.31
   19   33    6      5.68     -4.79
   21   33    6      1.35     -5.90
   23   33    6     -8.35     -3.55
   25   33    6     -7.41     -4.76
   27   33    6      5.42     10.81
   29   33    6     -5.72     -5.35
   18   34    6     10.51      3.07
   20   34    6      5.75     -1.93
   22   34    6      3.91     -4.85
   24   34    6     -0.97     -3.37
   26   34    6     -0.89      2.14
   28   34    6     -0.16     -5.30
   15   35    6     -7.42     -0.88
   17   35    6     -2.77     -1.80
   19   35    6     -8.30     -3.40
   21   35    6     -2.48      0.26
   23   35    6    -11.49     -4.77
   25   35    6     -5.96      1.78
   27   35    6     -5.44     -5.79
   14   36    6     -0.27     -3.50
   16   36    6      8.22     -5.33
   18   36    6     -2.91    -13.67
   20   36    6     -1.11     -4.08
   22   36    6     -3.83     -7.40
   24   36    6      7.54     -3.68
   26   36    6      0.49     -2.06
    9   37    6      4.84      2.88
   11   37    6     -5.44     -6.80
   13   37    6     -7.95     -2.47
   15   37    6      7.58      1.82
   17   37    6      2.31      4.46
   19   37    6     -5.97     -2.58
   21   37    6     -5.92     -2.23
   23   37    6     -1.00      7.11
   25   37    6     -5.95      0.45
    0   38    6      7.57     -2.64
    2   38    6     -4.08      1.10
    4   38    6     -6.33     -0.74
    6   38    6     -2.16      5.25
    8   38    6      2.96     -1.74
   10   38    6      0.40     -4.68
   12   38    6      1.67      4.10
   14   38    6     -1.47     -0.05
   16   38    6      0.95     -3.90
   18   38    6      3.57     -3.72
   20   38    6     -3.83     -6.38
   22   38    6      4.01      1.11
    0    1    7      7.13     21.92
   27   28    7     15.54    -10.57
   26   29    7     -2.93     -0.18
   28   29    7     -5.63      2.92
   23   30    7      5.76      4.82
   25   30    7      7.62     -2.96
   27   30    7     -9.46    -11.78
   29   30    7      4.94     -3.15
   22   31    7     10.93     -6.56
   24   31    7      8.17      1.76
   26   31    7     -4.56      5.29
   28   31    7      0.81      0.28
   30   31    7     -8.31     -5.11
   21   32    7     10.45      4.69
   23   32    7      3.09      2.42
   25   32    7      2.80      3.26
   27   32    7      3.91     -2.84
   29   32    7     -0.99     -3.63
   31   32    7     -0.10      2.39
   20   33    7      5.25     -3.00
   22   33    7     11.12     -7.31
   24   33    7     -5.92     -2.61
   26   33    7     -0.50     -1.61
   28   33    7     -3.75      3.62
   30   33    7     -2.09      0.73
   17   34    7     12.74     -4.28
   19   34    7     11.12     -9.09
   21   34    7      3.31     -1.84
   23   34    7      3.01      5.72
   25   34    7      6.72      4.29
   27   34    7      5.52      1.54
   14   35    7      7.67     -2.47
   16   35    7      2.71     -4.45
   18   35    7     -9.15      4.97
   20   35    7     -4.27      1.84
   22   35    7      7.81     -3.77
   24   35    7     -1.46      1.37
   26   35    7     -3.39     -3.27
   13   36    7     -8.47     -3.30
   15   36    7     -2.90     -3.70
   17   36    7      1.19     -8.87
   19   36    7      7.41     -4.19
   21   36    7      0.31     -4.45
   23   36    7      2.24      5.32
   25   36    7      1.30      2.60
    8   37    7     -5.67     -0.31
   10   37    7      6.22     -4.08
   12   37    7     -1.88      0.31
   14   37    7     -1.78      7.25
   16   37    7      7.14     -5.73
   18   37    7      0.55     -1.14
   20   37    7      1.47      3.93
   22   37    7      4.10     -0.18
   24   37    7      1.07     -0.99
    1   38    7     11.40     -7.33
    3   38    7     -0.10     -3.77
    5   38    7     -6.36      0.12
    7   38    7     11.29     -7.48
    9   38    7      1.27     -3.37
   11   38    7      1.82     -0.28
   13   38    7      3.42      0.13
   15   38    7     -0.62     -3.88
   17   38    7      7.33      0.44
   19   38    7      1.43      0.89
   21   38    7     -0.07      2.98
   23   38    7      1.63     -0.99
    0    0    8    -63.73     18.93
   27   27    8     -0.47      0.94
   26   28    8      0.87      1.45
   28   28    8      3.46      0.02
   25   29    8     -2.70     -4.17
   27   29    8     -2.79    -10.55
   29   29    8     -2.06      0.66
   24   30    8      0.33      0.52
   26   30    8      4.66      4.70
   28   30    8     11.59     -2.28
   30   30    8      0.83     -1.71
   21   31    8      8.67     -3.43
   23   31    8      5.70     10.14
   25   31    8     -4.47     -2.88
   27   31    8     -3.40     -6.13
   29   31    8     -0.44     -4.60
   31   31    8      4.74      2.52
   20   32    8     19.20     -5.99
   22   32    8      3.13     -1.52
   24   32    8     -0.84      4.30
   26   32    8      2.41     -0.29
   28   32    8     -2.09     -0.48
   30   32    8     -7.67      2.35
   19   33    8     -8.86     -6.78
   21   33    8     -0.48     12.56
   23   33    8     -7.10      2.47
   25   33    8      3.21     -0.40
   27   33    8      0.36     -0.05
   29   33    8      0.26      0.28
   16   34    8    -12.66      4.56
   18   34    8     18.42      3.37
   20   34    8      8.45      3.21
   22   34    8     -3.08     -1.91
   24   34    8     -4.67     -1.98
   26   34    8     -3.40      7.26
   28   34    8     -2.24     -0.95
   13   35    8     -1.73      8.99
   15   35    8     -5.19      0.83
   17   35    8     -8.54     -6.57
   19   35    8     -6.67      8.17
   21   35    8     -7.18      6.49
   23   35    8     -3.47     -2.60
   25   35    8      0.94     -4.70
   27   35    8      0.42      1.23
   10   36    8     12.31    -12.72
   12   36    8      1.77     -1.50
   14   36    8     -3.78     -2.68
   16   36    8      9.72      1.53
   18   36    8      2.93     -4.30
   20   36    8     -9.33      1.46
   22   36    8     -2.98      3.71
   24   36    8      4.47      2.58
    5   37    8     -3.75      3.05
    7   37    8      1.95     -5.24
    9   37    8      7.06      0.68
   11   37    8     -5.32     -3.11
   13   37    8     -6.97      0.21
   15   37    8      5.03     -1.01
   17   37    8      2.16     -2.51
   19   37    8     -5.57     -2.92
   21   37    8     -2.81      3.17
   23   37    8      0.27     -0.17
    0   38    8      1.44     -4.07
    2   38    8    -11.36     -2.31
    4   38    8     -4.68      0.52
    6   38    8     -1.84      6.01
    8   38    8      4.44     -1.10
   10   38    8      7.35     -1.24
   12   38    8     -0.26      0.28
   14   38    8     -2.08      4.14
   16   38    8      4.06     -6.74
   18   38    8     -2.84     -4.41
   20   38    8     -1.77      3.21
   22   38    8      2.50      2.24
    0    1    9     46.44     -2.62
   26   27    9     -0.16      4.73
   25   28    9     -4.61     -3.01
   27   28    9     14.71     -8.38
   24   29    9      4.38      4.01
   26   29    9    -11.70      3.11
   28   29    9     -0.64     -5.35
   23   30    9     -2.39      4.11
   25   30    9     -1.36     -4.37
   27   30    9      1.69     -0.04
   29   30    9      4.31      3.60
   20   31    9    -11.10     -2.78
   22   31    9      5.56     -2.44
   24   31    9      9.65      3.93
   26   31    9      2.55    -10.18
   28   31    9     -7.08     -1.94
   30   31    9      5.47     -3.74
   19   32    9     14.97     -8.12
   21   32    9     -2.22      8.23
   23   32    9     -3.71     -5.74
   25   32    9     -3.71      7.74
   27   32    9     -1.89      4.34
   29   32    9     -0.60     -0.31
   18   33    9    -11.82      8.97
   20   33    9      8.08     -0.71
   22   33    9     -0.28      1.97
   24   33    9     -3.11    -10.06
   26   33    9      3.13     -1.41
   28   33    9      6.05      0.48
   15   34    9    -15.74      4.00
   17   34    9     -2.02      5.72
   19   34    9    -11.62      2.43
   21   34    9     -5.13     -7.09
   23   34    9     -3.82      5.35
   25   34    9      0.09      1.50
   27   34    9      1.26      1.75
   12   35    9    -12.98      3.67
   14   35    9     -7.89     -0.84
   16   35    9     10.87     -3.54
   18   35    9    -12.53      0.39
   20   35    9     -0.83      5.28
   22   35    9      5.35      2.86
   24   35    9      1.70      2.57
   26   35    9     -1.79     -6.96
    9   36    9     10.57     -8.90
   11   36    9      1.62      5.91
   13   36    9    -20.28      1.58
   15   36    9     -5.18     -1.92
   17   36    9     -5.17     -7.63
   19   36    9     -3.11     -0.29
   21   36    9     -9.77     -0.81
   23   36    9     -6.90      1.16
   25   36    9      0.25      3.03
    0   37    9     -5.08      0.30
    2   37    9      1.69     -3.35
    4   37    9     -1.28      2.95
    6   37    9     -3.13     12.42
    8   37    9     -5.73      6.37
   10   37    9      1.74      7.40
   12   37    9     -7.49      2.91
   14   37    9     -6.50     11.09
   16   37    9     -2.29      2.43
   18   37    9      2.48      2.05
   20   37    9     -5.64      4.18
   22   37    9      3.09      3.47
    1   38    9      2.36     -3.55
    3   38    9      0.20     -6.54
    5   38    9     -2.76      5.98
    7   38    9      0.79     -2.69
    9   38    9     -9.51     -1.76
   11   38    9     -8.56     -5.75
   13   38    9     -2.55     -6.00
   15   38    9     -8.69     -6.10
   17   38    9      2.60     -2.79
   19   38    9     -5.82     -4.67
   21   38    9     -4.03      1.14
    0    0   10    -69.30     -9.15
   11   11   10     34.71     -2.03
   26   26   10     -1.75      0.53
   25   27   10      8.29      3.47
   27   27   10     -0.99      1.79
   24   28   10     -1.69    -10.08
   26   28   10      7.81     -3.01
   28   28   10     -0.04      1.23
   23   29   10     16.31     -5.31
   25   29   10    -10.00     -1.20
   27   29   10      3.39     -2.85
   29   29   10      6.21      4.51
   22   30   10     -1.24      0.80
   24   30   10      3.88      1.76
   26   30   10     -2.46      8.48
   28   30   10      0.69     -2.38
   30   30   10     -0.64     -1.22
   21   31   10     13.84     -7.98
   23   31   10     -2.73      0.52
   25   31   10      4.97     -0.63
   27   31   10     -4.12     -5.54
   29   31   10      2.64     -2.43
   18   32   10      0.71      8.32
   20   32   10      9.57      5.24
   22   32   10      1.73     -1.57
   24   32   10     -1.97      3.13
   26   32   10      0.53     -2.02
   28   32   10     -0.18      1.95
   17   33   10     -3.99    -10.04
   19   33   10     -1.95     -8.38
   21   33   10      1.06      3.89
   23   33   10      2.87      4.73
   25   33   10      1.02     -4.99
   27   33   10      0.39     -4.24
   14   34   10      9.47     -0.58
   16   34   10      7.96      2.91
   18   34   10      8.64      5.34
   20   34   10      5.84      1.59
   22   34   10      0.69      0.24
   24   34   10     -8.26     -3.44
   26   34   10     -0.76      0.42
   11   35   10      0.00      6.62
   13   35   10      2.45      0.77
   15   35   10     -4.52      6.55
   17   35   10      4.87     -2.83
   19   35   10      2.37      0.48
   21   35   10     -6.81      0.91
   23   35   10     -0.91     -2.27
   25   35   10      7.67     -6.26
    6   36   10      3.05      0.94
    8   36   10     10.75      1.88
   10   36   10     -0.01     -7.59
   12   36   10    -10.36     -1.91
   14   36   10      6.06      1.63
   16   36   10      7.31      3.48
   18   36   10      8.37     -1.65
   20   36   10     -4.59      9.88
   22   36   10      1.67      0.81
   24   36   10     -0.39     -0.33
    1   37   10      7.42      5.36
    3   37   10     -3.36      0.60
    5   37   10      3.49      0.32
    7   37   10      1.67     -1.50
    9   37   10      9.52      6.82
   11   37   10      1.57      2.21
   13   37   10    -13.32      9.91
   15   37   10      1.13     -6.62
   17   37   10      4.56     -5.97
   19   37   10     -0.61     -8.65
   21   37   10     -4.98     -0.06
   23   37   10      4.99     -2.11
    0   38   10      0.74     -3.82
    2   38   10     -2.89     -5.00
    4   38   10      3.88     -0.19
    6   38   10      8.86     -0.56
    8   38   10     -0.32      1.15
   10   38   10     -1.57     -1.19
   12   38   10      4.24     -2.79
   14   38   10     -4.14      1.76
   16   38   10      4.56     -1.77
   18   38   10      1.40      0.76
   20   38   10      6.67      5.17
   25   26   11      4.22      6.25
   24   27   11      8.24     -8.31
   26   27   11     18.33      0.30
   23   28   11     -1.74     -2.11
   25   28   11      8.89     -4.54
   27   28   11      2.01      7.78
   22   29   11      5.11     -5.72
   24   29   11      2.80      9.54
   26   29   11     -0.49      1.06
   28   29   11      5.02     -7.37
   21   30   11     17.80     12.71
   23   30   11     13.54      1.59
   25   30   11     -4.37     -2.64
   27   30   11      3.16      1.84
   29   30   11      8.10      6.09
   20   31   11     -4.03     -8.04
   22   31   11     -5.31     -2.62
   24   31   11     -0.87      2.76
   26   31   11      4.09     -0.82
   28   31   11      0.58     -3.08
   30   31   11     -0.38     -2.77
   17   32   11     -4.90    -11.52
   19   32   11      8.05      0.59
   21   32   11      5.97      1.70
   23   32   11      6.07      7.09
   25   32   11      3.07     -2.09
   27   32   11      0.63     -2.40
   16   33   11      5.73      7.94
   18   33   11     -2.32      0.85
   20   33   11     10.27     -2.03
   22   33   11     -8.51     -4.07
   24   33   11     -1.45     -3.92
   26   33   11      1.31      5.92
   13   34   11      9.76      0.25
   15   34   11     12.37     -0.74
   17   34   11     -0.33     -0.66
   19   34   11      7.53      3.66
   21   34   11      0.48      7.07
   23   34   11     -4.16     -2.54
   25   34   11      4.01     -1.84
    8   35   11      5.18      6.14
   10   35   11     -1.77     17.16
   12   35   11     -8.32      2.13
   14   35   11     -7.41      7.12
   16   35   11      2.74    -12.97
   18   35   11      4.27     -2.42
   20   35   11     -6.01     -5.33
   22   35   11      2.95     -1.06
   24   35   11      4.75      2.07
    1   36   11     -9.05      1.47
    3   36   11      0.11     -7.26
    5   36   11      0.45     -0.91
    7   36   11      3.91     -0.36
    9   36   11     -2.28      0.01
   11   36   11      6.19     -2.21
   13   36   11      1.40     -0.28
   15   36   11     -1.41      2.33
   17   36   11     13.55      4.18
   19   36   11      2.67      3.09
   21   36   11     -3.44      0.11
   23   36   11     -2.81      4.64
    0   37   11     -7.91     -2.45
    2   37   11      2.85     -1.07
    4   37   11      5.18      5.65
    6   37   11     -0.34      6.48
    8   37   11     -4.48     -2.83
   10   37   11      6.42     -4.49
   12   37   11     -7.17      5.92
   14   37   11     -7.49     -0.77
   16   37   11      9.49     -1.97
   18   37   11     -2.80     -1.01
   20   37   11     -2.86     -4.76
   22   37   11      4.66      1.89
    1   38   11      1.87    -13.18
    3   38   11     -4.92     -3.63
    5   38   11      2.05      0.50
    7   38   11     -0.43     -0.97
    9   38   11      0.68      3.64
   11   38   11     -3.53     -4.29
   13   38   11      1.24     -8.21
   15   38   11      6.99      2.87
   17   38   11     -0.91     -4.91
   19   38   11      0.25     -4.89
    0    0   12     76.74    -13.60
   25   25   12     11.57      1.79
   24   26   12    -13.22    -16.28
   26   26   12      6.53      0.92
   23   27   12     -3.17      3.42
   25   27   12      3.86      8.64
   27   27   12      4.86      4.31
   22   28   12     -4.54    -16.99
   24   28   12     -6.29      0.94
   26   28   12     -8.55     -2.69
   28   28   12     11.73      4.14
   21   29   12     -1.89     -4.25
   23   29   12      1.40      0.35
   25   29   12     -3.58      1.34
   27   29   12     -2.24      0.80
   29   29   12     -1.84      2.29
   20   30   12      0.68     -0.49
   22   30   12     -3.29      2.10
   24   30   12     -4.52      7.30
   26   30   12      1.05     12.39
   28   30   12     -4.16      0.74
   30   30   12      7.63      3.04
   17   31   12      2.55    -14.88
   19   31   12     -0.02      0.67
   21   31   12    -11.83     -8.70
   23   31   12     -4.09     -2.35
   25   31   12     -5.88      1.99
   27   31   12     -2.99     -5.92
   29   31   12     -4.77     -2.16
   16   32   12    -11.87     -6.85
   18   32   12     -6.78     12.87
   20   32   12      2.72      6.26
   22   32   12     -1.64      4.92
   24   32   12     -0.28      4.83
   26   32   12     -3.90      1.05
   28   32   12     -0.80      5.22
   13   33   12      1.14     -5.15
   15   33   12     -1.88     -4.56
   17   33   12     -1.63     -1.42
   19   33   12     -0.90    -17.02
   21   33   12     -5.40      1.71
   23   33   12     -8.93      5.54
   25   33   12     -2.61     -3.89
   27   33   12     -1.43     -3.06
   10   34   12     -3.31      4.40
   12   34   12     10.95     10.30
   14   34   12      5.39      7.85
   16   34   12     -3.30      6.96
   18   34   12     -5.11      4.24
   20   34   12     -6.46      7.71
   22   34   12     -3.09      3.47
   24   34   12     -3.73     -2.77
    5   35   12     -0.06     -7.22
    7   35   12     -5.26      6.66
    9   35   12     -0.22      3.61
   11   35   12     -4.08      3.27
   13   35   12    -16.49      3.78
   15   35   12      0.87     -5.26
   17   35   12      6.30     -3.21
   19   35   12     -5.65      0.94
   21   35   12     -5.60     -1.68
   23   35   12     -1.29     -2.03
    0   36   12      6.51      3.72
    2   36   12      1.74    -10.32
    4   36   12     -3.64     -6.88
    6   36   12      1.14     -6.31
    8   36   12     -7.73     -3.40
   10   36   12     -0.80     -7.60
   12   36   12    -16.10     -3.25
   14   36   12      3.46      1.47
   16   36   12      6.69      4.46
   18   36   12      0.43     -4.04
   20   36   12     -9.24      0.73
   22   36   12     -5.53      0.30
    1   37   12      1.00      3.51
    3   37   12      2.26     -1.56
    5   37   12     -0.86      3.90
    7   37   12      5.44      2.70
    9   37   12      6.52      2.07
   11   37   12     -2.51     12.16
   13   37   12     -5.92      1.82
   15   37   12     -5.98     -0.71
   17   37   12      1.41     -6.59
   19   37   12      1.70      1.00
   21   37   12     -3.54      0.74
    0   38   12      2.19     -1.43
    2   38   12     -8.99     -1.70
    4   38   12      1.13    -10.80
    6   38   12      3.39     -7.52
    8   38   12     -2.64     -3.67
   10   38   12     -5.77      0.53
   12   38   12      2.28     -2.63
   14   38   12     -5.16      0.52
   16   38   12      0.01      0.44
   18   38   12      4.26      0.55
   24   25   13     -4.13      3.70
   23   26   13      1.69     -3.53
   25   26   13     10.95      4.31
   22   27   13     -6.82    -12.68
   24   27   13      0.86      7.18
   26   27   13     -3.26      1.35
   21   28   13      5.24      3.61
   23   28   13      5.07     10.50
   25   28   13      2.84     -1.43
   27   28   13      5.26      1.15
   20   29   13      2.58    -15.85
   22   29   13      6.71     -0.11
   24   29   13     -7.17     -3.79
   26   29   13     -1.69      6.31
   28   29   13      0.10      5.93
   19   30   13     -1.65     -5.11
   21   30   13     -4.64      0.26
   23   30   13      1.62      2.67
   25   30   13     -3.17     11.06
   27   30   13      0.91     -3.08
   29   30   13      7.15     -1.59
   16   31   13      1.53     -1.77
   18   31   13     -9.39      0.70
   20   31   13      3.30      4.19
   22   31   13     -1.37     -2.79
   24   31   13     -3.36     -0.30
   26   31   13     -4.42      0.20
   28   31   13      2.15     -3.03
   15   32   13      8.79      8.67
   17   32   13     -9.40      5.03
   19   32   13     -3.62    -11.63
   21   32   13     -2.36     -1.46
   23   32   13     -9.16      6.94
   25   32   13      0.78     -4.37
   27   32   13      2.97      2.24
   12   33   13     -7.46     -7.83
   14   33   13      1.10      0.83
   16   33   13     -9.75    -12.24
   18   33   13     -1.05      4.21
   20   33   13     -3.08      7.95
   22   33   13     -4.19      1.30
   24   33   13     -3.18      0.59
   26   33   13      2.28      0.74
    7   34   13     13.35     -7.59
    9   34   13    -11.19      4.25
   11   34   13     -4.48      1.61
   13   34   13      4.14      1.13
   15   34   13     -6.67      3.13
   17   34   13     -4.97     -5.37
   19   34   13     -5.18      0.90
   21   34   13     -8.61     -1.52
   23   34   13     -4.51     -1.28
    0   35   13     -9.20      1.41
    2   35   13     -0.92      8.22
    4   35   13     -1.06    -12.84
    6   35   13     -6.61      9.06
    8   35   13      0.78      4.26
   10   35   13     -2.26     -6.33
   12   35   13     -7.85      8.27
   14   35   13    -14.77     -4.65
   16   35   13      5.67     -2.13
   18   35   13     -5.91     -2.94
   20   35   13     -3.85      0.95
   22   35   13     -3.98     -0.76
    1   36   13     -4.59      2.66
    3   36   13      0.42     -2.33
    5   36   13     -2.47     -1.02
    7   36   13     -8.70     -4.22
    9   36   13     -1.43      2.60
   11   36   13     -1.75     -1.54
   13   36   13     -7.99      0.25
   15   36   13     -8.37     -3.85
   17   36   13     -0.63      5.21
   19   36   13      0.96     -0.14
   21   36   13     -6.34      2.39
    0   37   13     -0.71     -0.24
    2   37   13      1.13     -4.46
    4   37   13      3.43      2.45
    6   37   13      3.45     -2.70
    8   37   13      1.54     -2.80
   10   37   13      2.95      0.63
   12   37   13     -2.46     -3.02
   14   37   13      2.04      5.87
   16   37   13      4.08      1.38
   18   37   13      0.53      4.84
   20   37   13     -4.28     -4.39
    1   38   13      2.41     -8.86
    3   38   13     -4.61      2.42
    5   38   13     -2.04      0.87
    7   38   13     -6.92      0.34
    9   38   13     -1.88      0.38
   11   38   13     -3.10     -2.97
   13   38   13     -4.38     -6.92
   15   38   13     -1.24      0.52
   17   38   13     -0.04      0.66
    0    0   14    -62.15      3.77
   24   24   14    -24.84      3.18
   23   25   14     -1.65     -7.24
   25   25   14      3.01      0.59
   22   26   14    -19.42      6.59
   24   26   14      0.42      3.21
   26   26   14    -14.29      0.84
   21   27   14      4.50     -1.31
   23   27   14      2.40      2.51
   25   27   14      1.12     -0.79
   27   27   14     -0.20      2.58
   20   28   14      0.42     -5.32
   22   28   14      0.00     -3.15
   24   28   14    -11.04      6.57
   26   28   14      5.95      6.96
   28   28   14     -7.37      0.38
   19   29   14     -5.56      1.65
   21   29   14      5.76     -4.56
   23   29   14     -0.66     -1.61
   25   29   14     -6.54      7.79
   27   29   14     -1.61      0.58
   29   29   14      4.91      0.93
   16   30   14     17.24      0.12
   18   30   14     -7.34      4.06
   20   30   14      6.22     -4.33
   22   30   14     -2.38      3.98
   24   30   14      0.36      3.82
   26   30   14     -2.68      1.87
   28   30   14     -1.72     -0.62
   15   31   14     10.96     -0.37
   17   31   14     -4.99      3.15
   19   31   14      8.16     -8.87
   21   31   14     -2.24      1.46
   23   31   14     -8.77      3.73
   25   31   14     -8.55      3.36
   27   31   14      0.93     -0.27
   12   32   14     -4.71     -0.21
   14   32   14      2.79      8.74
   16   32   14     -9.70      2.59
   18   32   14      2.20     -1.84
   20   32   14     -4.33     10.20
   22   32   14      0.07     -1.66
   24   32   14     -0.90      0.54
   26   32   14     -0.34     -1.76
    9   33   14      0.01     -1.18
   11   33   14     -6.01     -7.37
   13   33   14     17.87      3.55
   15   33   14    -14.09     -8.25
   17   33   14     -5.17     -4.77
   19   33   14     -6.08      4.40
   21   33   14     -1.24      2.89
   23   33   14     -0.45      1.40
   25   33   14     -3.47     -1.70
    0   34   14      3.11      3.72
    2   34   14      0.19      0.32
    4   34   14     11.66     10.82
    6   34   14     -8.54      8.89
    8   34   14     -3.66      4.77
   10   34   14     -2.84     -4.40
   12   34   14     -6.15      4.20
   14   34   14     -5.64     -1.31
   16   34   14      1.69     -1.98
   18   34   14     -1.30      2.39
   20   34   14     -1.59     -1.81
   22   34   14     -4.34      4.47
    1   35   14     -3.73     -5.36
    3   35   14      0.99     -0.39
    5   35   14      2.52     -8.79
    7   35   14      2.21     -3.16
    9   35   14     -1.69      2.55
   11   35   14      1.33      2.25
   13   35   14     -1.97     -3.44
   15   35   14     -0.27      6.77
   17   35   14     -1.11     -0.39
   19   35   14     -1.84      0.88
   21   35   14     -1.61      3.32
    0   36   14      1.83      0.70
    2   36   14      8.83     -2.85
    4   36   14      1.35      3.09
    6   36   14     -8.73      1.51
    8   36   14      2.92      1.32
   10   36   14     -2.05      4.98
   12   36   14     -8.53     -9.01
   14   36   14     -5.84     -5.51
   16   36   14      2.84     -6.21
   18   36   14      5.13     -2.28
   20   36   14     -7.94     -3.08
    1   37   14      0.58      7.30
    3   37   14     -2.35     -4.69
    5   37   14      2.85     -3.02
    7   37   14      5.15     -1.08
    9   37   14     -0.60     -5.24
   11   37   14     -1.82      1.22
   13   37   14     -1.19      5.79
   15   37   14      6.76      0.31
   17   37   14      3.73     -4.24
    0   38   14      4.29     -0.29
    2   38   14      1.39     -0.53
    4   38   14     -0.80     -5.24
    6   38   14      2.62      0.75
    8   38   14     -1.39     -0.27
   10   38   14     10.35      4.05
   12   38   14     -3.91      5.29
   14   38   14     -5.39     -5.11
   16   38   14      0.08      2.12
   23   24   15     -7.22      0.51
   22   25   15    -13.86     -2.83
   24   25   15      5.03      8.67
   21   26   15     -7.33      1.88
   23   26   15     -0.93     -2.04
   25   26   15      0.54     -1.54
   20   27   15      3.71      2.34
   22   27   15      8.23      3.68
   24   27   15      6.79      7.63
   26   27   15      3.23      2.97
   19   28   15      6.41     -1.98
   21   28   15     -4.42     -1.55
   23   28   15      0.82      5.87
   25   28   15     -5.22      2.23
   27   28   15      1.27     -0.61
   16   29   15    -16.14     -2.19
   18   29   15      1.97      0.94
   20   29   15     -5.77     -7.47
   22   29   15      9.26     -3.88
   24   29   15     -1.78      4.81
   26   29   15      1.45      0.04
   28   29   15      7.15     -2.35
   15   30   15     14.01      4.44
   17   30   15      8.48      7.36
   19   30   15      0.82      1.52
   21   30   15      5.29      3.55
   23   30   15     -2.00      3.61
   25   30   15     -0.24      7.25
   27   30   15      1.46      4.90
   12   31   15      7.72     -2.19
   14   31   15      1.60      2.56
   16   31   15     -8.48     -6.14
   18   31   15     -1.19     -1.80
   20   31   15      1.54     -1.60
   22   31   15     -1.37     -8.66
   24   31   15     -4.43     -4.19
   26   31   15      0.55     -2.05
    9   32   15      1.03      8.36
   11   32   15      0.96     -4.41
   13   32   15      7.65      0.23
   15   32   15    -12.38      3.30
   17   32   15      0.15      2.17
   19   32   15      0.07      9.23
   21   32   15     -1.68      4.80
   23   32   15     -1.39      4.67
   25   32   15     -0.58     -4.55
    4   33   15     -5.71     -3.01
    6   33   15      2.72      1.62
    8   33   15    -10.21     -1.72
   10   33   15     -7.36      2.87
   12   33   15      2.10     -1.06
   14   33   15      3.26     -5.16
   16   33   15      0.99     -0.33
   18   33   15     -3.57     -3.78
   20   33   15      5.40     -5.77
   22   33   15     -3.43     -1.61
   24   33   15      0.29      1.26
    1   34   15     -5.13      4.64
    3   34   15     -5.45     -0.22
    5   34   15     -1.80      1.79
    7   34   15      4.54      8.94
    9   34   15     -0.64     -5.67
   11   34   15      3.90      4.75
   13   34   15     -9.00     -4.19
   15   34   15      8.10      2.57
   17   34   15     -5.18     -0.88
   19   34   15      2.69      0.38
   21   34   15     -2.74      5.59
    0   35   15    -15.30      1.32
    2   35   15      2.98      2.63
    4   35   15     -2.79    -10.88
    6   35   15     -4.33     -2.68
    8   35   15     -7.43      2.55
   10   35   15      8.27     -4.72
   12   35   15     -2.56      1.52
   14   35   15     -1.23      1.67
   16   35   15      1.28     -7.85
   18   35   15     -1.87     -5.78
   20   35   15     -7.06      4.62
    1   36   15     -2.20      2.78
    3   36   15     -3.08      1.40
    5   36   15     -7.07      7.25
    7   36   15     -8.85     -0.87
    9   36   15      2.17     -0.93
   11   36   15     -1.76     -8.53
   13   36   15     -3.32      7.06
   15   36   15      0.40     -2.65
   17   36   15     10.23      7.51
   19   36   15      1.28     -1.18
    0   37   15      1.80      0.55
    2   37   15     -4.59     -1.83
    4   37   15      3.05      0.58
    6   37   15      1.61     -2.20
    8   37   15      4.55      2.47
   10   37   15      4.93     -3.32
   12   37   15      7.70      1.12
   14   37   15      1.75     -1.12
   16   37   15      0.85     -1.44
    1   38   15      1.93     -8.30
    3   38   15     -3.05      2.59
    5   38   15     -2.93      0.24
    7   38   15     -6.09     -1.34
    9   38   15     -2.17     -2.14
   11   38   15     -5.07      0.13
   13   38   15      0.38     -5.48
   15   38   15     -0.76      4.77
   23   23   16     -3.77      1.52
   22   24   16     -6.18     -8.28
   24   24   16     -1.09     -0.27
   21   25   16    -13.83    -11.01
   23   25   16     -4.33      2.93
   25   25   16      2.96      1.84
   20   26   16     -3.34     -6.43
   22   26   16      1.05      2.87
   24   26   16      6.45     -2.38
   26   26   16      5.40     -0.65
   19   27   16     -0.96    -12.24
   21   27   16      0.29     -5.00
   23   27   16      1.90      1.39
   25   27   16     -3.43      2.49
   27   27   16     -1.75      0.92
   16   28   16      4.53      0.28
   18   28   16      2.20     -7.55
   20   28   16     -8.75     -0.73
   22   28   16      3.32     -0.34
   24   28   16      5.10      5.33
   26   28   16      1.93      2.27
   28   28   16     -1.07      0.71
   15   29   16      1.19      5.63
   17   29   16     -2.77     -2.70
   19   29   16     -5.94     -2.57
   21   29   16      6.18     -7.76
   23   29   16     -0.56     -2.49
   25   29   16     -0.67      1.44
   27   29   16     -1.37     -1.67
   12   30   16     -6.42     -3.49
   14   30   16      3.34      0.31
   16   30   16     -0.49     -0.71
   18   30   16     -7.69     -1.09
   20   30   16     11.39     -3.35
   22   30   16     -9.39     -0.88
   24   30   16     -5.96     -4.27
   26   30   16      2.24      2.98
    9   31   16     -2.47      9.81
   11   31   16      2.95     -8.26
   13   31   16     -1.54      3.12
   15   31   16      1.97     -2.54
   17   31   16     -3.86      0.70
   19   31   16      0.92     -4.75
   21   31   16     -1.48      0.04
   23   31   16     -0.58     -3.44
   25   31   16     -0.77     -1.11
    4   32   16     -9.79     -4.41
    6   32   16      5.85      6.89
    8   32   16     -4.55     10.17
   10   32   16     12.56    -10.41
   12   32   16      1.67     10.05
   14   32   16      3.54      1.24
   16   32   16      2.32      6.22
   18   32   16     -2.96     -0.41
   20   32   16      0.87      0.10
   22   32   16      3.03      0.27
   24   32   16     -3.71     -0.17
    1   33   16      1.07      0.29
    3   33   16     -8.94      1.13
    5   33   16     13.59      3.68
    7   33   16     -7.43     -0.99
    9   33   16     -3.64     -6.64
   11   33   16     -2.13      0.98
   13   33   16      1.22      1.27
   15   33   16     -2.53     -6.16
   17   33   16     -0.97     -6.49
   19   33   16     -2.65     -3.18
   21   33   16     -0.94      2.69
    0   34   16     -8.67      1.88
    2   34   16      6.87     -3.61
    4   34   16      0.93      2.44
    6   34   16     -9.54     -3.81
    8   34   16     -1.74      3.21
   10   34   16     -2.60     -3.40
   12   34   16      6.27     -2.49
   14   34   16      1.49      7.50
   16   34   16     -3.34     -2.85
   18   34   16      3.45      1.83
   20   34   16      0.99      5.89
    1   35   16     -3.23     -1.18
    3   35   16      3.11      1.87
    5   35   16     -6.68      4.56
    7   35   16      4.88     11.18
    9   35   16     -0.91      3.60
   11   35   16     -2.56     -1.27
   13   35   16      1.34     -1.84
   15   35   16     -2.18      3.03
   17   35   16      5.66     -1.13
   19   35   16      0.20      1.98
    0   36   16      0.62      1.31
    2   36   16     -1.69     -1.06
    4   36   16      6.39     -5.21
    6   36   16     -6.46     -1.52
    8   36   16      1.48     -5.70
   10   36   16     -3.22      1.64
   12   36   16      1.10     -4.19
   14   36   16     -2.79     -2.37
   16   36   16      2.41     -2.54
    1   37   16     -1.77      1.70
    3   37   16     -2.29      2.40
    5   37   16     -1.87      0.59
    7   37   16      0.92     -1.81
    9   37   16      1.16      6.36
   11   37   16     -1.40      5.14
   13   37   16     -2.01     -0.31
   15   37   16      3.88     -0.33
    0   38   16     -4.61     -0.45
    2   38   16      0.65     -0.73
    4   38   16     -1.80     -2.99
    6   38   16      2.92     -2.17
    8   38   16     -0.71     -6.11
   10   38   16      1.67     -0.33
   12   38   16     -3.27      4.52
   22   23   17    -12.12     -1.60
   21   24   17      2.44      2.64
   23   24   17     10.82     -3.63
   20   25   17     -5.12     -5.28
   22   25   17      3.46      8.31
   24   25   17     -1.90      3.86
   19   26   17     -2.68      4.78
   21   26   17     -3.92      5.90
   23   26   17      6.11     -1.63
   25   26   17     10.78      3.48
   16   27   17      5.33     -7.92
   18   27   17     -0.34     -5.48
   20   27   17      8.44     -2.68
   22   27   17     -0.60      0.32
   24   27   17      7.32      4.38
   26   27   17     -2.91     -1.34
   15   28   17     -3.71     -3.96
   17   28   17     -7.12      8.63
   19   28   17     -4.02     -3.05
   21   28   17     -4.11      4.74
   23   28   17      2.09      2.49
   25   28   17      0.87      0.15
   27   28   17      0.64      6.76
   12   29   17     -5.79      6.86
   14   29   17      3.30      4.74
   16   29   17     -3.78      4.17
   18   29   17      7.81     -0.59
   20   29   17     -2.49     -1.29
   22   29   17      0.19     -2.04
   24   29   17     -3.23      4.70
   26   29   17     -1.19     -1.23
    1   30   17      5.95    -10.55
    9   30   17     -1.45     -3.00
   11   30   17      5.12      0.24
   13   30   17     -3.79     -0.82
   15   30   17    -11.19      5.07
   17   30   17     -6.42      5.22
   19   30   17     -2.37      2.48
   21   30   17     -0.68     -5.53
   23   30   17      4.66      2.97
   25   30   17      1.09      2.32
    0   31   17      3.67      0.58
    4   31   17      7.51     -1.17
    6   31   17     -0.83     -5.18
    8   31   17     -1.52     -2.89
   10   31   17      2.68     -4.78
   12   31   17     14.22     -7.88
   14   31   17      0.96     -1.93
   16   31   17     13.53     -4.41
   18   31   17      1.81      3.13
   20   31   17     -2.78      0.17
   22   31   17      1.64     -1.68
   24   31   17     -4.07      1.66
    1   32   17     -0.10      5.66
    3   32   17      6.27    -11.23
    5   32   17      0.09      2.92
    7   32   17      3.81      2.94
    9   32   17      8.93      6.93
   11   32   17     -5.70      5.65
   13   32   17      0.74      1.72
   15   32   17    -11.75      7.41
   17   32   17     -6.04      1.50
   19   32   17      2.73      4.19
   21   32   17      3.95      2.39
   23   32   17     -0.96     -2.76
    0   33   17      4.22      0.17
    2   33   17      6.88     -2.12
    4   33   17     10.44     -1.95
    6   33   17     -5.95      7.05
    8   33   17      3.41     -4.74
   10   33   17     -3.28      0.92
   12   33   17      3.36     -7.29
   14   33   17     14.88      1.38
   16   33   17      5.60     -6.28
   18   33   17      3.87      0.21
   20   33   17      0.23      5.54
    1   34   17      9.69     -5.09
    3   34   17     -0.65      1.20
    5   34   17      4.09     -0.80
    7   34   17      9.55     -1.45
    9   34   17      0.83      0.73
   11   34   17      7.57      1.56
   13   34   17     -0.05      0.07
   15   34   17      1.90     -1.99
   17   34   17      1.91     -0.97
   19   34   17      4.60     -1.81
    0   35   17      4.60     -0.70
    2   35   17      2.69     -0.46
    4   35   17      5.01     -1.53
    6   35   17      4.74      0.81
    8   35   17     -1.66      2.50
   10   35   17      8.89     -4.30
   12   35   17     -0.26      6.43
   14   35   17      3.27     -0.30
   16   35   17      4.86      0.96
   18   35   17     -2.00      2.58
    1   36   17      2.22      4.16
    3   36   17      4.33      4.50
    5   36   17     -0.92     -1.55
    7   36   17     -0.97     -0.10
    9   36   17     -0.86     -0.47
   11   36   17      0.04     -4.93
   13   36   17      4.48     -0.26
   15   36   17      3.05      0.99
    0   37   17      5.68     -1.88
    2   37   17      6.62     -0.17
    4   37   17      3.95      1.00
    6   37   17      1.97     -0.98
    8   37   17      1.78      3.67
   10   37   17      5.65     -4.83
   12   37   17     -0.81     -0.18
    1   38   17      4.04     -0.60
    3   38   17     -1.98      0.33
    5   38   17      7.02      4.75
    7   38   17      0.12     -0.45
    9   38   17      0.03     -1.67
   22   22   18     -0.09      2.00
   21   23   18     -6.25     -3.02
   23   23   18      3.32     -0.48
   20   24   18     -9.40      9.99
   22   24   18    -12.01     -6.61
   24   24   18     -0.86     -0.77
   17   25   18     12.08     -2.73
   19   25   18      9.58    -10.20
   21   25   18      0.93      0.17
   23   25   18      5.08      4.74
   25   25   18     11.44      0.89
   16   26   18     -2.93      0.81
   18   26   18      0.01     -1.93
   20   26   18    -11.02      8.62
   22   26   18     -5.33      0.03
   24   26   18      1.05     -2.47
   26   26   18     -2.25     -1.47
   15   27   18     -9.04     -0.47
   17   27   18      6.45      1.19
   19   27   18     -1.44     -2.97
   21   27   18     -1.30     -5.42
   23   27   18      5.10      9.96
   25   27   18      0.75     -0.01
   27   27   18     -0.82      1.93
   12   28   18      2.40     -1.80
   14   28   18     -4.23      6.87
   16   28   18     -2.18     -1.56
   18   28   18      6.69     -1.57
   20   28   18     -4.67     -3.19
   22   28   18     -0.65      4.59
   24   28   18      2.23      3.30
   26   28   18     -2.46      0.99
    9   29   18      5.59     -2.03
   11   29   18      0.47      8.46
   13   29   18    -11.17     -4.44
   15   29   18      1.44     11.26
   17   29   18     -1.09      5.36
   19   29   18    -12.34      6.66
   21   29   18     -6.28     -4.84
   23   29   18      2.45     -4.13
   25   29   18      2.24      1.99
    4   30   18     -0.59     -5.00
    6   30   18    -17.63      0.26
    8   30   18      3.52      8.25
   10   30   18      0.35     -7.64
   12   30   18     -8.50      5.28
   14   30   18     -1.86     -5.16
   16   30   18     -2.30     -0.89
   18   30   18     -8.05     -0.83
   20   30   18      5.96      3.21
   22   30   18      1.02     -0.11
   24   30   18     -5.05     -3.21
    1   31   18     -5.96     -1.62
    3   31   18     -3.01      4.65
    5   31   18      2.13      3.58
    7   31   18     -2.18      1.11
    9   31   18      0.90      8.31
   11   31   18     -6.05     -6.45
   13   31   18     -3.07      4.50
   15   31   18      8.44      0.47
   17   31   18     -5.90      8.14
   19   31   18     -1.24     -2.37
   21   31   18      0.38      4.22
   23   31   18     -2.26     -2.96
    0   32   18      2.63      0.76
    2   32   18    -13.33     -9.51
    4   32   18    -10.38     -2.83
    6   32   18      5.08     -2.12
    8   32   18      1.50     -1.38
   10   32   18      1.32      0.95
   12   32   18      4.37      2.34
   14   32   18     -0.31      2.21
   16   32   18     -6.66     -1.64
   18   32   18      0.55      3.99
   20   32   18      1.95      3.05
    1   33   18      6.38      1.42
    3   33   18     -5.67      3.15
    5   33   18      5.23      0.61
    7   33   18     -1.80     -1.48
    9   33   18     -6.92    -10.00
   11   33   18      3.08      1.60
   13   33   18      5.66     -2.87
   15   33   18      1.78     -2.16
   17   33   18      5.22     -2.50
   19   33   18     -1.29      2.26
    0   34   18    -15.26     -0.77
    2   34   18     -0.04      6.19
    4   34   18    -10.37     -4.14
    6   34   18      2.69     -3.47
    8   34   18     -4.64      2.98
   10   34   18     -4.07     -0.76
   12   34   18     -1.77     -2.93
   14   34   18     -1.47     -4.19
   16   34   18      2.18      9.40
   18   34   18     -1.17      1.52
    1   35   18      0.25      2.41
    3   35   18      3.29     -0.81
    5   35   18     -5.18      3.28
    7   35   18     -3.97      4.38
    9   35   18      1.63     -3.30
   11   35   18     -1.93     -0.41
   13   35   18     -2.46      3.09
   15   35   18      1.27     -1.79
    0   36   18     -2.38      1.19
    2   36   18     -2.91     -2.39
    4   36   18      3.73     -0.70
    6   36   18     -7.54      2.18
    8   36   18     -0.75     -0.95
   10   36   18     -7.54      1.85
   12   36   18     -2.41     -5.73
    1   37   18     -6.14      4.93
    3   37   18     -3.49      2.31
    5   37   18      0.09      0.91
    7   37   18      0.71     -0.57
    9   37   18     -3.26      3.23
   11   37   18     -1.54      1.56
    0   38   18     -2.15      0.62
    2   38   18      1.02     -0.51
    4   38   18     -0.73     -0.85
    6   38   18     -1.87     -2.34
   19   22   19     -9.95     -0.28
   21   22   19    -18.75      0.96
   18   23   19     -8.31     -4.58
   20   23   19     -1.94      4.62
   22   23   19      4.94      1.14
   17   24   19      7.70     -4.18
   19   24   19     -6.68     -6.56
   21   24   19     -0.80     -0.10
   23   24   19     -6.61     -0.41
   16   25   19     -4.87     -1.63
   18   25   19     -3.62     -8.02
   20   25   19      2.63      3.71
   22   25   19     -0.76      3.10
   24   25   19      4.05     -0.91
   13   26   19     -3.08      3.78
   15   26   19     -0.22      2.09
   17   26   19     -4.57      3.38
   19   26   19      3.76      3.67
   21   26   19    -13.98     -1.38
   23   26   19     -4.72      1.73
   25   26   19     -0.85      0.51
   12   27   19     -0.06     10.16
   14   27   19     -1.06      6.47
   16   27   19     11.97      0.47
   18   27   19      2.91      1.62
   20   27   19     -6.37     -8.84
   22   27   19     -0.32      3.24
   24   27   19      3.74      0.64
   26   27   19     -0.97      1.09
    9   28   19     -6.49      1.71
   11   28   19     -8.84     -1.91
   13   28   19      3.51     -0.03
   15   28   19     -4.90     -2.16
   17   28   19     -0.38      4.11
   19   28   19     -8.28     -6.61
   21   28   19     -2.03      3.25
   23   28   19     -4.26     -2.47
   25   28   19     -5.05     -1.77
    2   29   19     -3.73     -6.53
    4   29   19    -16.89     -2.57
    6   29   19     -7.19      2.65
    8   29   19      0.76     10.80
   10   29   19      0.82      1.45
   12   29   19      1.62      5.21
   14   29   19      0.55      3.17
   16   29   19     -5.88     10.74
   18   29   19     -6.36      2.01
   20   29   19     -3.31      0.06
   22   29   19     -3.27     -3.19
   24   29   19      0.63      2.13
    1   30   19     -7.13     -4.49
    3   30   19     -3.75      3.42
    5   30   19    -10.31      4.33
    7   30   19      2.09     -1.73
    9   30   19     -7.53      2.01
   11   30   19     -2.74     11.93
   13   30   19     -2.43     -2.88
   15   30   19     -5.36      3.02
   17   30   19     -1.17      0.70
   19   30   19      3.33     -1.32
   21   30   19     -0.80     -4.33
    0   31   19      3.12      1.78
    2   31   19      7.13     -1.25
    4   31   19     -0.39     -4.17
    6   31   19      0.88     -6.00
    8   31   19     -6.15     -0.43
   10   31   19      0.60      3.74
   12   31   19      5.27     -9.34
   14   31   19      1.03      4.53
   16   31   19     -2.76      2.91
   18   31   19     -2.85      4.62
   20   31   19     -2.98      3.44
    1   32   19      0.23      5.39
    3   32   19     -1.76     -0.79
    5   32   19     -3.02     -6.11
    7   32   19      3.51     -0.63
    9   32   19      1.80      4.97
   11   32   19     -3.65      1.93
   13   32   19     -7.68     -0.80
   15   32   19     -1.37     -3.72
   17   32   19      2.03      4.94
   19   32   19     -1.38      7.52
    0   33   19      2.23      0.62
    2   33   19     -0.95     -1.15
    4   33   19     10.90     -5.19
    6   33   19     -1.24      1.69
    8   33   19     -2.61     -4.20
   10   33   19     -0.73      0.28
   12   33   19     -3.08      6.89
   14   33   19      3.23      1.65
   16   33   19      6.71     -3.79
   18   33   19     -0.16      1.96
    1   34   19     10.70     -3.90
    3   34   19     -2.07     -6.21
    5   34   19     -2.57      1.35
    7   34   19      1.76     -8.99
    9   34   19      3.21     -3.21
   11   34   19      0.37     -2.39
   13   34   19      2.08     -0.25
   15   34   19     -1.34     -0.95
    0   35   19      3.01     -0.85
    2   35   19     -0.44     -1.25
    4   35   19      0.47      4.04
    6   35   19      0.13     -3.60
    8   35   19      1.46      5.29
   10   35   19     -1.48     -0.44
   12   35   19     -3.78      1.68
   14   35   19      3.67      3.39
    1   36   19      0.01     -5.58
    3   36   19     -1.78      2.49
    5   36   19     -3.75     -6.79
    7   36   19     -2.95     -3.41
    9   36   19     -5.76     -1.32
   11   36   19     -4.17     -1.02
    0   37   19      3.90     -2.34
    2   37   19      3.19      3.81
    4   37   19     -0.17      1.48
    6   37   19      0.99      2.89
   20   20   20     -9.88      0.32
   19   21   20      1.69     -0.87
   21   21   20     -3.32      5.34
   18   22   20     -7.80      0.61
   20   22   20     13.23     -3.07
   22   22   20      4.78     -2.96
   17   23   20      3.32      0.05
   19   23   20      3.62      3.72
   21   23   20     -2.04      3.58
   23   23   20     -0.84      2.43
   14   24   20    -10.14     10.62
   16   24   20     -6.36      8.81
   18   24   20      3.36      3.41
   20   24   20     -3.10     -2.09
   22   24   20     -0.22     -3.84
   24   24   20      6.20     -3.71
   13   25   20      6.75     -8.41
   15   25   20      5.68     -2.67
   17   25   20     14.15      0.60
   19   25   20      4.11     -1.96
   21   25   20      4.35      6.50
   23   25   20      4.36     10.37
   25   25   20     -3.95      1.72
   10   26   20     -2.48      3.38
   12   26   20      8.10      2.57
   14   26   20     -6.09     10.97
   16   26   20      4.04      6.05
   18   26   20      2.03      1.66
   20   26   20      2.41      2.74
   22   26   20      4.95     -1.35
   24   26   20      1.38      0.18
   26   26   20      2.74     -1.33
    7   27   20     12.52     -7.63
    9   27   20     -3.42     -6.64
   11   27   20     -4.01      4.70
   13   27   20      3.51      2.28
   15   27   20     -2.71     -0.36
   17   27   20      4.65     -2.38
   19   27   20     -1.09     -1.54
   21   27   20     -2.78     -0.22
   23   27   20      1.98     -0.98
    0   28   20      2.26     -1.49
    2   28   20      3.54      7.15
    4   28   20     -5.11     10.80
    6   28   20    -13.17      2.64
    8   28   20     -9.67      3.10
   10   28   20      1.80      3.23
   12   28   20      0.75     -2.36
   14   28   20      0.78      7.40
   16   28   20     -3.97      1.48
   18   28   20      6.82      1.68
   20   28   20      5.55      3.81
   22   28   20      1.10      2.19
    1   29   20      4.98    -15.15
    3   29   20      0.70     -4.06
    5   29   20     10.32     -5.32
    7   29   20      4.73     -1.41
    9   29   20      3.44      0.39
   11   29   20     -1.51      3.91
   13   29   20     -0.57      6.03
   15   29   20      6.67      3.58
   17   29   20      1.27      4.38
   19   29   20      0.83      4.89
   21   29   20      1.05     -5.92
    0   30   20     -9.13      0.10
    2   30   20     -1.84      5.46
    4   30   20      3.83     -7.73
    6   30   20    -13.26      1.22
    8   30   20     -2.21      1.70
   10   30   20     -9.50     -1.02
   12   30   20     -8.49      1.84
   14   30   20     -5.94     -5.17
   16   30   20     -2.24      1.32
   18   30   20     -0.15      4.72
   20   30   20      0.24     -1.14
    1   31   20      5.19      6.38
    3   31   20      0.33     -7.88
    5   31   20      5.54     -1.61
    7   31   20      8.29     -4.87
    9   31   20      0.06      2.61
   11   31   20      1.62     -1.15
   13   31   20      1.81      1.47
   15   31   20      6.98     -2.59
   17   31   20      1.21      2.30
   19   31   20      3.18      0.13
    0   32   20     -2.69      2.54
    2   32   20     -2.09     -0.33
    4   32   20     -3.97      1.98
    6   32   20     -4.29     -9.07
    8   32   20      1.09      0.08
   10   32   20      5.94      3.12
   12   32   20     -5.60      5.03
   14   32   20     -0.46      2.75
   16   32   20      0.86      2.35
   18   32   20     -1.36      2.46
    1   33   20      8.03     -7.50
    3   33   20      0.74      3.12
    5   33   20      9.73     -3.99
    7   33   20      4.99     -5.31
    9   33   20      5.87     -6.28
   11   33   20      0.10     -0.16
   13   33   20      8.34     -7.24
   15   33   20      1.71     -1.69
    0   34   20     -2.05     -1.71
    2   34   20      2.42      4.10
    4   34   20    -11.11     -1.80
    6   34   20     -0.36      4.47
    8   34   20      0.81     -5.78
   10   34   20     -5.00      2.25
   12   34   20      4.09      1.04
   14   34   20     -2.17     -4.44
    1   35   20      4.22      6.49
    3   35   20      4.80     -3.28
    5   35   20      0.86     -0.54
    7   35   20      6.60      0.55
    9   35   20     -0.60     -1.09
   11   35   20      1.57      3.94
    0   36   20      2.65      0.16
    2   36   20     -1.01     -1.01
    4   36   20      3.50      2.95
    6   36   20     -1.83      1.06
   19   20   21      1.56      0.63
   16   21   21     -4.95      2.29
   18   21   21      1.37     -0.87
   20   21   21     -7.22     -8.16
   15   22   21     -6.61    -12.33
   17   22   21      8.52     -7.24
   19   22   21     -4.83     -3.15
   21   22   21     -3.29     -0.53
   14   23   21     -1.40      8.76
   16   23   21      0.19      6.57
   18   23   21     -1.65     -8.93
   20   23   21     -0.03     -1.28
   22   23   21      4.46     -5.37
   11   24   21     -5.75     -2.80
   13   24   21      2.11      4.37
   15   24   21     -2.26      1.03
   17   24   21     -3.64     -8.57
   19   24   21     -2.99     -0.88
   21   24   21      2.41      5.45
   23   24   21     -4.28     -1.91
   10   25   21      0.26      4.19
   12   25   21     -1.96     -2.10
   14   25   21      6.89     -5.86
   16   25   21     -1.23     -4.95
   18   25   21      0.06     -2.17
   20   25   21      6.39      0.09
   22   25   21      0.88      1.12
   24   25   21      0.40     -6.10
    5   26   21      2.28     11.49
    7   26   21      0.23     -2.54
    9   26   21     -9.24     -4.77
   11   26   21      4.73     -3.70
   13   26   21    -10.65     10.71
   15   26   21     -0.34      6.38
   17   26   21    -11.29     -0.13
   19   26   21      5.64      0.18
   21   26   21     -7.09     -2.43
   23   26   21     -7.04      2.15
    0   27   21     10.70      1.68
    2   27   21    -10.79     -3.01
    4   27   21      1.81     -2.36
    6   27   21      8.16      0.99
    8   27   21     -5.88     -2.91
   10   27   21     -6.23      3.71
   12   27   21     11.63      9.97
   14   27   21      3.76     -3.62
   16   27   21     -0.72      0.18
   18   27   21      6.27      8.70
   20   27   21      4.11      0.06
   22   27   21     -0.70     -1.09
    1   28   21     -4.50      6.55
    3   28   21     -6.37     -7.41
    5   28   21     -1.88      2.97
    7   28   21     -8.58      5.38
    9   28   21     -9.52     -5.70
   11   28   21     -3.37     -0.01
   13   28   21      3.07     -0.25
   15   28   21     -4.05      1.82
   17   28   21      7.24      0.94
   19   28   21     -3.16     -7.58
   21   28   21      1.21     -2.35
    0   29   21     -1.04      0.98
    2   29   21      3.39      5.23
    4   29   21     -3.10      3.31
    6   29   21      4.16      0.99
    8   29   21      2.77      2.53
   10   29   21      0.76      5.93
   12   29   21     -3.59     -0.02
   14   29   21      2.89      5.86
   16   29   21     -1.28      7.47
   18   29   21     -3.45     -0.94
   20   29   21     -1.27     -1.09
    1   30   21     -2.12     -0.99
    3   30   21      2.04      0.08
    5   30   21    -12.27     -6.25
    7   30   21    -10.78      1.08
    9   30   21     -0.18      7.04
   11   30   21     -0.34     10.43
   13   30   21      1.24     -1.59
   15   30   21      5.34     -1.40
   17   30   21      3.61      1.35
   19   30   21     -1.96      1.25
    0   31   21     -4.63      0.76
    2   31   21     -0.45      2.58
    4   31   21     -0.63      6.63
    6   31   21      7.06      2.33
    8   31   21      5.83      0.72
   10   31   21      1.09     -0.72
   12   31   21      2.13     -0.46
   14   31   21     -0.76     -1.30
   16   31   21     -3.63      3.54
    1   32   21      1.98      3.24
    3   32   21     -1.58     -3.36
    5   32   21     -2.29     -6.63
    7   32   21      0.20      0.08
    9   32   21     -4.74      3.88
   11   32   21      2.46      2.12
   13   32   21     -1.56      0.58
   15   32   21      3.21     -4.93
    0   33   21      7.12      3.06
    2   33   21     -7.65      4.85
    4   33   21      0.51      9.74
    6   33   21      3.56      1.66
    8   33   21      0.34     -2.55
   10   33   21      2.49      2.88
   12   33   21     -1.34      0.67
    1   34   21      4.10      0.79
    3   34   21     -0.08     -2.08
    5   34   21      0.56     -3.05
    7   34   21      1.74     -5.87
    9   34   21      7.51     -2.26
   11   34   21      0.32     -0.14
    0   35   21     -1.91      0.76
    2   35   21     -0.69      0.51
    4   35   21     -4.38      7.12
    6   35   21     -4.21      1.64
   18   18   22     -2.39      3.11
   17   19   22     -8.27      0.12
   19   19   22      0.39     -1.06
   16   20   22     -5.76      7.36
   18   20   22     -4.72     -2.51
   20   20   22     -3.88      1.89
   15   21   22     -5.08      5.81
   17   21   22    -10.06     -8.09
   19   21   22     -2.69     -0.24
   21   21   22     -4.80     -1.41
   12   22   22      5.77     -5.23
   14   22   22     -6.25      3.58
   16   22   22     -0.49     -2.77
   18   22   22      1.18      5.16
   20   22   22     -0.84      4.69
   22   22   22     -2.19     -0.89
   11   23   22     -2.70     -9.48
   13   23   22    -11.67      2.58
   15   23   22     -2.78      2.53
   17   23   22     -7.90      3.03
   19   23   22     -6.58     -0.19
   21   23   22     -1.08      0.41
   23   23   22      2.83      0.36
    8   24   22     -3.92     -0.10
   10   24   22      7.57     -3.25
   12   24   22     -7.76      2.23
   14   24   22     -0.38     -0.99
   16   24   22     -0.12      1.12
   18   24   22     -0.60     -0.53
   20   24   22      4.82     -0.40
   22   24   22     -5.22      1.77
   24   24   22     -8.78     -1.33
    1   25   22    -12.83    -11.44
    3   25   22     -0.48     17.54
    5   25   22     -0.85      0.12
    7   25   22      5.91    -10.15
    9   25   22     -9.95     -2.32
   11   25   22     -3.69      8.11
   13   25   22     -4.16     -2.09
   15   25   22    -10.00      5.59
   17   25   22     -6.07      9.17
   19   25   22      2.11     -0.50
   21   25   22      3.84     -0.98
   23   25   22     -0.67      2.52
    0   26   22     -0.04     -4.14
    2   26   22     -2.75     -0.07
    4   26   22     -7.17     -2.47
    6   26   22     -1.46      5.72
    8   26   22      0.51     -9.32
   10   26   22     -4.13     -8.40
   12   26   22      2.06      1.02
   14   26   22     -3.72     -0.48
   16   26   22      4.65      3.48
   18   26   22      0.75      0.43
   20   26   22      0.36      0.69
   22   26   22     -0.19     -0.96
    1   27   22     -6.69      2.03
    3   27   22      0.13      5.57
    5   27   22      2.76      0.44
    7   27   22     -0.26     -7.42
    9   27   22     -4.74     -6.92
   11   27   22     -6.81      5.15
   13   27   22      2.73      5.00
   15   27   22     -5.35     -0.89
   17   27   22      0.32     -0.20
   19   27   22     -1.15     -4.60
   21   27   22      0.10     -0.42
    0   28   22     -2.04     -0.55
    2   28   22      1.42     -3.33
    4   28   22     -1.92      3.54
    6   28   22     -8.79      4.88
    8   28   22     -0.28      3.91
   10   28   22     -0.05     -1.14
   12   28   22     -3.23      1.06
   14   28   22      1.58      3.60
   16   28   22     -0.83     -2.49
   18   28   22      1.77      6.03
   20   28   22      2.76      2.48
    1   29   22     -3.47     -7.53
    3   29   22     -1.19     -4.68
    5   29   22      3.16     -2.22
    7   29   22     -3.87     -4.22
    9   29   22     -4.52     -0.12
   11   29   22     -1.47     -2.51
   13   29   22      5.64      3.32
   15   29   22      3.77      0.97
   17   29   22     -3.67     -1.58
    0   30   22      0.69      0.73
    2   30   22     -3.13     -0.81
    4   30   22     -1.99     -7.51
    6   30   22      3.50     -2.68
    8   30   22      2.65      5.47
   10   30   22     -5.25      0.37
   12   30   22      0.58     -1.87
   14   30   22     -2.37     -0.97
   16   30   22      0.11      0.28
    1   31   22     -7.64     -2.02
    3   31   22     -1.29     -0.70
    5   31   22     -8.76      1.32
    7   31   22     -4.02     -8.75
    9   31   22     -2.26      1.00
   11   31   22     -0.60      3.67
   13   31   22     -0.16     -0.94
   15   31   22      2.46     -0.51
    0   32   22      1.35      3.37
    2   32   22      3.13      3.97
    4   32   22     -0.37     -3.04
    6   32   22     -1.41     -6.97
    8   32   22      4.28     -2.48
   10   32   22      3.78     -0.10
   12   32   22     -0.36      0.63
    1   33   22     -4.60     -1.71
    3   33   22     -7.15     -0.09
    5   33   22     -3.10     -0.50
    7   33   22     -3.01     -0.23
    9   33   22      5.19     -1.27
    0   34   22      1.94     -0.02
    2   34   22      1.40      1.54
    4   34   22     -3.27     -0.32
    6   34   22      0.58      6.17
   16   17   23     -1.85      2.42
   15   18   23    -10.69     -6.74
   17   18   23      1.70     -2.65
   14   19   23     -0.21      1.89
   16   19   23     -0.66     -2.64
   18   19   23      1.25      3.79
   13   20   23     -1.23     -2.85
   15   20   23      6.17     -3.86
   17   20   23      8.65      1.55
   19   20   23      3.89      0.37
   10   21   23      2.84     11.60
   12   21   23      7.96     -1.79
   14   21   23     -1.99      4.59
   16   21   23      4.06     -4.38
   18   21   23     -4.78      6.33
   20   21   23      0.45     -5.07
    9   22   23      3.06      2.54
   11   22   23      3.20      2.37
   13   22   23     -1.31     -3.15
   15   22   23      1.99     -5.10
   17   22   23      6.96      2.07
   19   22   23      4.44      0.63
   21   22   23      7.45      2.62
    4   23   23     -2.42      0.17
    6   23   23     -4.34     -1.00
    8   23   23      7.75     -2.08
   10   23   23     -4.57     -3.74
   12   23   23      1.32     -1.62
   14   23   23      9.49     -0.11
   16   23   23     -7.37      5.81
   18   23   23      6.01     -7.40
   20   23   23      5.83     -4.47
   22   23   23      0.54      5.27
    1   24   23     -7.23      3.72
    3   24   23      2.54      6.10
    5   24   23     -7.06      0.26
    7   24   23      0.58     -1.14
    9   24   23     12.08      2.03
   11   24   23     -0.11      7.17
   13   24   23      3.56      1.50
   15   24   23      0.67      3.15
   17   24   23     -0.10      3.86
   19   24   23     -0.56      3.64
   21   24   23      0.87     -8.83
   23   24   23     -3.91     -3.06
    0   25   23     -2.97      4.76
    2   25   23     -7.96     -2.18
    4   25   23      9.01      2.90
    6   25   23     -3.96     -4.73
    8   25   23     -7.16     -9.03
   10   25   23      2.64      1.81
   12   25   23     -0.63     -4.83
   14   25   23     -1.08     -3.24
   16   25   23      1.76     -6.36
   18   25   23      2.66     -2.68
   20   25   23      5.90      0.58
   22   25   23      0.38      1.17
    1   26   23      4.99      6.11
    3   26   23     -5.75     -0.58
    5   26   23      6.22      9.05
    7   26   23     -0.61     -1.13
    9   26   23      0.23      3.16
   11   26   23      5.07      1.77
   13   26   23     -0.49      5.65
   15   26   23      1.26      1.09
   17   26   23     -2.17     -2.36
   19   26   23      4.92     -2.01
    0   27   23     -1.84      1.88
    2   27   23      1.35     -4.28
    4   27   23      5.15      1.78
    6   27   23      6.82     -6.67
    8   27   23     -3.96      3.39
   10   27   23     -4.51      3.13
   12   27   23      7.74     -0.09
   14   27   23      1.86      1.89
   16   27   23     -3.11      4.85
   18   27   23      3.22      3.94
    1   28   23      1.85      1.09
    3   28   23     -4.46      3.42
    5   28   23      0.52      1.40
    7   28   23      7.05      3.08
    9   28   23     -6.02     -3.24
   11   28   23      1.72     -4.04
   13   28   23      2.13     -1.39
   15   28   23      2.26     -1.91
   17   28   23      1.80     -7.89
    0   29   23      7.91     -0.82
    2   29   23      4.22     -3.28
    4   29   23      4.36     -3.97
    6   29   23      2.31      3.44
    8   29   23      0.93     -3.41
   10   29   23      2.75      4.92
   12   29   23      0.51      4.27
   14   29   23      5.17      4.82
   16   29   23      1.31      5.87
    1   30   23     -0.68      6.26
    3   30   23      2.29      1.51
    5   30   23      1.09     -2.49
    7   30   23     -3.15      3.08
    9   30   23      0.02     -1.32
   11   30   23     -4.62      0.90
   13   30   23      2.83     -2.48
    0   31   23      2.37      0.75
    2   31   23      3.25     -0.96
    4   31   23      2.42     -3.43
    6   31   23     -0.57     -0.51
    8   31   23      3.20      3.51
   10   31   23      6.88      0.23
   12   31   23      0.83      1.74
    1   32   23     -0.45      4.62
    3   32   23     -4.54     -0.79
    5   32   23      0.95     -3.09
    7   32   23     -0.65      3.17
    9   32   23     -5.29      0.41
    0   33   23      5.47      3.07
    2   33   23      0.85     -0.55
    4   33   23      0.39      8.13
    1    1   24     -6.25      0.71
    0    2   24     16.56      3.18
    5    5   24    -17.75      8.18
   15   15   24     24.54     -2.91
   14   16   24      0.11      2.04
   16   16   24     -6.78     -1.36
   13   17   24     -1.83     -1.97
   15   17   24     -3.96     -3.07
   17   17   24     11.71     -6.08
   12   18   24     12.92      0.27
   14   18   24     -4.66     -5.52
   16   18   24      7.17      0.21
   18   18   24      4.49      3.10
   11   19   24      8.11      9.08
   13   19   24      7.08    -10.83
   15   19   24      3.14      0.41
   17   19   24     -5.45      0.21
   19   19   24      9.00      1.04
    8   20   24      5.94      9.45
   10   20   24      0.38    -11.67
   12   20   24     -6.25     -4.06
   14   20   24      4.21     -6.79
   16   20   24     -3.62     -1.81
   18   20   24     -2.65     -0.74
   20   20   24      2.09     -0.27
    3   21   24      9.79     -3.54
    5   21   24     16.04     13.63
    7   21   24     -2.85     -7.98
    9   21   24      1.75     -0.27
   11   21   24      5.51      0.93
   13   21   24     16.03      5.21
   15   21   24      4.13      1.88
   17   21   24     -2.47      2.27
   19   21   24      8.67      4.83
   21   21   24      4.89      1.36
    0   22   24     -3.94      3.42
    2   22   24    -13.37      6.77
    4   22   24     -5.75     -0.40
    6   22   24      4.27      1.21
    8   22   24     -2.74      0.95
   10   22   24      8.29     -2.12
   12   22   24      2.55     -7.38
   14   22   24    -10.10      0.65
   16   22   24     -4.58      2.70
   18   22   24      0.38      4.08
   20   22   24     -1.46      3.61
   22   22   24     -4.62     -1.18
    1   23   24      3.46      5.02
    3   23   24      7.16     -0.94
    5   23   24     -1.24     -0.62
    7   23   24     -6.98     -0.57
    9   23   24      1.22      3.92
   11   23   24      1.27     -3.74
   13   23   24      1.15      0.39
   15   23   24      3.25      1.81
   17   23   24      7.83     -1.42
   19   23   24     -0.93     -3.93
   21   23   24     -4.95      0.70
    0   24   24     -0.75      2.84
    2   24   24     -2.85      3.57
    4   24   24      0.59     -5.99
    6   24   24     -6.76     -4.42
    8   24   24     10.09      3.75
   10   24   24      4.79      1.89
   12   24   24     -4.67      2.34
   14   24   24     -7.34     -3.13
   16   24   24     -9.31      3.88
   18   24   24     -3.27      1.70
   20   24   24     -1.18      3.71
    1   25   24     -2.18      5.19
    3   25   24      1.90      7.24
    5   25   24     -5.23     -1.57
    7   25   24     -4.75     -2.52
    9   25   24      0.30      3.86
   11   25   24     -1.22     -0.39
   13   25   24      2.08     -3.22
   15   25   24      4.35      7.19
   17   25   24      0.92     -1.09
   19   25   24      3.19     -2.82
    0   26   24      3.74     -1.16
    2   26   24      3.62      4.31
    4   26   24    -11.82      7.65
    6   26   24      6.48      3.39
    8   26   24      0.39     -6.00
   10   26   24     -2.28     -0.28
   12   26   24     -4.05      5.33
   14   26   24     -4.34     -1.61
   16   26   24     -5.45     -1.49
   18   26   24     -5.47      6.67
    1   27   24     -1.75     -3.92
    3   27   24      0.50      7.58
    5   27   24      2.98      4.25
    7   27   24      7.64      5.11
    9   27   24     -4.41     -6.57
   11   27   24      1.43      1.85
   13   27   24      6.10      2.42
   15   27   24      1.20     -4.02
   17   27   24      3.30      5.11
    0   28   24      8.88      0.65
    2   28   24     -4.13      6.66
    4   28   24      5.03     -2.10
    6   28   24     -6.43      5.03
    8   28   24     -6.79      5.69
   10   28   24     -7.28     -0.32
   12   28   24     -2.53      5.53
   14   28   24     -2.87     -0.07
    1   29   24     -0.76     -0.51
    3   29   24      3.64     -2.21
    5   29   24      8.73      2.96
    7   29   24     -2.21      2.02
    9   29   24      7.93     -0.91
   11   29   24      3.48     -6.58
   13   29   24      0.87     -0.94
    0   30   24     -0.71      2.76
    2   30   24      7.13      0.48
    4   30   24     -8.14     -2.85
    6   30   24     -0.62     -1.57
    8   30   24     -4.74      5.13
   10   30   24     -4.39      5.41
    1   31   24      2.83     -1.51
    3   31   24      8.34      1.14
    5   31   24     -5.85      3.89
    7   31   24      1.06     -4.58
    0   32   24      2.48     -0.70
    2   32   24      0.16      0.07
    0    1   25    -11.54      3.59
    1    2   25      3.82     -9.93
    0    3   25      6.64     -4.56
    3    4   25     -5.33     -2.47
   13   14   25      4.24     -1.70
   12   15   25      4.39      2.91
   14   15   25     -0.55     -6.03
   11   16   25      5.17      3.47
   13   16   25     -0.53      0.07
   15   16   25     -2.95      2.82
   10   17   25      7.07     -0.99
   12   17   25    -17.14     -0.13
   14   17   25     -4.89      5.04
   16   17   25      1.45     -6.83
    7   18   25     -7.12     -3.33
    9   18   25     -2.77      0.92
   11   18   25     -0.71      2.20
   13   18   25      3.74      4.34
   15   18   25      0.86     -1.33
   17   18   25     -4.16      2.86
    0   19   25     -5.80      0.50
    2   19   25     -0.84     11.39
    4   19   25     -0.07     10.15
    6   19   25     -3.35      5.30
    8   19   25     -1.49     -5.12
   10   19   25     -6.29      1.95
   12   19   25      4.49      1.32
   14   19   25     -4.67     -2.95
   16   19   25     -3.13      0.98
   18   19   25      7.42      0.63
    1   20   25     -0.16     -4.84
    3   20   25     -9.53      0.25
    5   20   25     -1.44     -1.70
    7   20   25      1.64      0.44
    9   20   25     -6.36     -9.06
   11   20   25     -7.06      4.23
   13   20   25     -0.04     11.98
   15   20   25      0.27     -4.78
   17   20   25      2.75      3.50
   19   20   25      2.87      5.07
    0   21   25     -4.76      2.65
    2   21   25    -11.23      2.83
    4   21   25     -6.42     -3.67
    6   21   25      0.59     -7.71
    8   21   25     -8.60      3.30
   10   21   25     -3.34      2.60
   12   21   25      5.34     -9.15
   14   21   25      1.50     -1.55
   16   21   25      2.33      3.57
   18   21   25      5.37      3.71
   20   21   25     -0.44     -5.17
    1   22   25     -2.36     -2.78
    3   22   25      3.88     -2.25
    5   22   25    -16.42     -3.29
    7   22   25     -0.36      5.69
    9   22   25      0.80      2.36
   11   22   25     -1.90      5.00
   13   22   25     -7.97      0.70
   15   22   25      0.63      1.74
   17   22   25      0.00     -4.17
   19   22   25     -5.81      3.87
   21   22   25      6.20      1.20
    0   23   25    -14.40      3.37
    2   23   25     -2.41      4.10
    4   23   25     -5.07     -7.16
    6   23   25     -6.95     -3.32
    8   23   25     -0.39     -2.23
   10   23   25     -1.73     -2.90
   12   23   25      1.99     -5.78
   14   23   25     -2.36      2.98
   16   23   25     -0.59      4.40
   18   23   25      1.94      3.45
   20   23   25      2.26     -1.22
    1   24   25      0.45     -3.82
    3   24   25     -6.52     -2.05
    5   24   25     -0.39      6.12
    7   24   25     -6.95     -0.58
    9   24   25      5.55     -0.79
   11   24   25      3.12      6.73
   13   24   25     -1.26     -1.63
   15   24   25     -0.63     -3.85
   17   24   25     -6.58      7.29
   19   24   25      1.39     -1.41
    0   25   25     -2.21     -2.39
    2   25   25     -0.26      8.53
    4   25   25     -5.86      7.04
    6   25   25      0.58     -5.35
    8   25   25      0.67      5.19
   10   25   25     -0.73      2.44
   12   25   25     -4.12     -3.70
   14   25   25     -3.13     -3.30
   16   25   25      0.32      1.40
    1   26   25     -2.72     -1.03
    3   26   25      4.83      1.02
    5   26   25      1.42      2.14
    7   26   25      1.30     -4.22
    9   26   25      1.80      3.08
   11   26   25      3.17      3.09
   13   26   25     -4.82     -0.03
   15   26   25     -1.71      2.59
    0   27   25      1.75      1.16
    2   27   25     -1.65      2.63
    4   27   25      5.51      2.56
    6   27   25     -0.92      4.93
    8   27   25     -3.47      0.91
   10   27   25     -1.66      3.07
   12   27   25      5.48     -4.12
   14   27   25     -0.07      1.35
    1   28   25      3.61      7.41
    3   28   25      0.15      2.02
    5   28   25     -0.35      0.79
    7   28   25      5.21      3.30
    9   28   25      4.97      2.59
   11   28   25     -1.34     -0.66
    0   29   25      2.20      0.21
    2   29   25      2.42     -6.01
    4   29   25      0.09      4.40
    6   29   25      0.80     -0.41
    8   29   25     -0.86     -2.35
    1   30   25      1.65      1.87
    3   30   25      4.46      3.74
    5   30   25      2.37     -0.22
    1    1   26    -14.91     -1.28
    0    2   26      4.51     -4.35
    2    2   26    -25.67      4.13
    1    3   26      2.32      1.58
    3    3   26     20.67      1.12
    2    4   26      8.32     -8.20
    1    5   26     -6.03      2.98
    3    5   26      2.33     -8.57
    5    5   26     -1.25      2.80
    0    6   26      5.74      2.66
    4    6   26     12.22     -9.27
    6    6   26    -19.89      2.06
    5    7   26     -4.69    -11.79
    7    7   26     -2.55     -0.09
    3    9   26     -0.52     -3.51
   12   12   26     -5.01     -0.66
   11   13   26      1.80      2.88
   13   13   26     12.00     -5.11
   10   14   26      1.69     -2.37
   12   14   26     -6.81     -5.54
   14   14   26      1.31     -5.89
    7   15   26      7.41      5.75
    9   15   26     -0.78      3.30
   11   15   26     -3.45     -6.89
   13   15   26      3.18      8.55
   15   15   26      2.86      2.67
    4   16   26      1.69      7.27
    6   16   26    -12.03     -4.30
    8   16   26      1.50      6.36
   10   16   26      2.24     -4.62
   12   16   26      2.27     -6.68
   14   16   26     -6.15      1.42
   16   16   26      3.55     -4.65
    1   17   26     -6.61     -4.92
    3   17   26      5.40      5.22
    5   17   26     -1.52     -1.20
    7   17   26      3.20     -4.53
    9   17   26      3.49     -1.27
   11   17   26      0.74      3.13
   13   17   26     -8.17     -3.26
   15   17   26     -3.96      1.62
   17   17   26     -0.15     -2.05
    0   18   26     -1.84     -2.39
    2   18   26     -3.27     -0.59
    4   18   26      4.95      5.45
    6   18   26      1.90      1.85
    8   18   26     -3.39     -2.39
   10   18   26     -2.41      9.21
   12   18   26     -0.88      0.80
   14   18   26      0.87     -2.15
   16   18   26     -3.49     -0.08
   18   18   26      9.48      3.26
    1   19   26      3.16      0.67
    3   19   26     -6.71    -12.78
    5   19   26      1.81     -9.85
    7   19   26      3.32     -2.76
    9   19   26     -5.15      6.83
   11   19   26     -3.55      3.08
   13   19   26      0.03     -2.12
   15   19   26     -9.74      4.45
   17   19   26     -1.56      0.93
   19   19   26     -4.71     -1.20
    0   20   26      3.20      0.45
    2   20   26     -0.64      8.74
    4   20   26     -2.01      0.07
    6   20   26      2.10     -3.90
    8   20   26     -3.77     -4.10
   10   20   26      0.62     -5.05
   12   20   26     -0.80      8.24
   14   20   26      3.73     -4.42
   16   20   26      6.60     -4.42
   18   20   26     -3.84     -0.73
   20   20   26      5.46      2.63
    1   21   26      4.38     -6.65
    3   21   26     -4.56    -11.09
    5   21   26      5.58      2.75
    7   21   26     -5.46      6.59
    9   21   26     -4.28      8.47
   11   21   26     -0.81      1.64
   13   21   26     -5.01     -0.57
   15   21   26     -6.57      5.36
   17   21   26    -11.73      6.86
   19   21   26      0.04     -0.55
    0   22   26     -3.81      3.71
    2   22   26    -11.87     -1.10
    4   22   26      0.87     -1.81
    6   22   26     -4.02     -6.27
    8   22   26     -1.16     -2.62
   10   22   26      0.75     -7.20
   12   22   26      1.18      1.63
   14   22   26      4.42      2.95
   16   22   26      3.81      2.54
   18   22   26      2.79      2.10
    1   23   26      2.04      1.41
    3   23   26      0.25      1.29
    5   23   26     -9.16     -4.22
    7   23   26      2.14      5.96
    9   23   26      3.34     12.93
   11   23   26     -5.37     -1.48
   13   23   26     -5.16     -3.51
   15   23   26    -11.91      1.96
   17   23   26     -0.38     -5.18
    0   24   26     -2.58      0.72
    2   24   26      3.33     -2.21
    4   24   26     -1.64     -6.64
    6   24   26     -2.88     -1.33
    8   24   26      1.22     -3.38
   10   24   26      1.96      2.53
   12   24   26     -0.53      0.16
   14   24   26      4.13      3.54
   16   24   26     -2.46      2.55
    1   25   26     -1.08      5.82
    3   25   26      4.20     -0.50
    5   25   26     -7.59      1.93
    7   25   26     -4.28      1.76
    9   25   26      4.74      4.47
   11   25   26     -1.93      5.28
   13   25   26     -4.53     -0.77
    0   26   26     10.30      3.67
    2   26   26      0.17     -1.52
    4   26   26     -0.46     -1.53
    6   26   26      0.96      1.59
    8   26   26      2.22      1.41
   10   26   26      4.05     -4.83
   12   26   26      2.42      1.49
    1   27   26      2.63     -2.70
    3   27   26     -3.69      7.77
    5   27   26      2.17      0.36
    7   27   26     -0.01      1.96
    9   27   26     -3.13      5.52
    0   28   26      0.81      2.09
    2   28   26     -0.82     -0.30
    4   28   26     -1.06     -1.92
    6   28   26      3.97      3.56
    1   29   26      0.44      5.02
    0    1   27     -7.59     -0.39
    1    2   27     -4.48    -19.41
    0    3   27     -7.41     -8.75
    2    3   27     -2.94     -2.34
    1    4   27      8.01      5.37
    3    4   27     -2.07    -11.31
    0    5   27      8.03      0.99
    2    5   27      4.90    -10.17
    4    5   27      7.56     -1.76
    1    6   27     -5.49    -12.02
    5    6   27     -0.23     -5.49
    0    7   27     -4.20     -1.31
    2    7   27     -9.94      0.88
    6    7   27      0.77     10.23
    7    8   27    -11.59     -9.06
    9   10   27      0.96     -1.31
    8   11   27     -2.46     -1.45
   10   11   27     -0.07     -2.49
    5   12   27     10.04     -3.10
    7   12   27      4.55     -1.46
    9   12   27      3.14     -7.52
   11   12   27     -0.07     -7.83
    0   13   27      8.99      0.94
    2   13   27      6.28      2.45
    4   13   27      4.70      5.64
    6   13   27     -9.17     -1.65
    8   13   27     -0.39     -0.60
   10   13   27      1.30      4.08
   12   13   27     11.11     -6.69
    1   14   27      0.71     -3.42
    3   14   27      2.43      4.29
    5   14   27     -2.99      3.81
    7   14   27      8.44     -1.63
    9   14   27      2.03     -2.05
   11   14   27    -10.00     -7.13
   13   14   27     -1.16     -3.23
    0   15   27     -1.39      1.23
    2   15   27      6.19      7.23
    4   15   27     -8.42     -1.75
    6   15   27      6.21     -0.86
    8   15   27      0.19     -4.44
   10   15   27     -1.54      3.01
   12   15   27      2.60     -2.39
   14   15   27      5.76     -8.01
    1   16   27     -5.63      4.99
    3   16   27      6.68     -3.12
    5   16   27     10.60      9.15
    7   16   27      0.41     12.46
    9   16   27      3.15      3.23
   11   16   27     -4.15     -3.06
   13   16   27     -7.39     -4.63
   15   16   27      0.59     -3.40
    0   17   27     -0.08      3.13
    2   17   27      4.95      1.42
    4   17   27      6.70     -9.47
    6   17   27     -4.37     -4.40
    8   17   27     -5.14     -3.17
   10   17   27      0.81     -4.57
   12   17   27     -2.27      3.01
   14   17   27     -1.44      5.10
   16   17   27     -0.72      3.25
    1   18   27      3.12      2.67
    3   18   27      3.61      3.53
    5   18   27      2.33      9.07
    7   18   27     -2.59      3.82
    9   18   27      0.22      2.77
   11   18   27      1.36     -0.45
   13   18   27      0.39      1.92
   15   18   27     -2.73     -9.75
   17   18   27      1.59     -8.57
    0   19   27     14.66     -0.49
    2   19   27     11.43     -0.30
    4   19   27      1.56      1.05
    6   19   27      4.98     -6.56
    8   19   27      3.23     -5.36
   10   19   27     -6.21     -3.29
   12   19   27     -1.09     -0.11
   14   19   27     -1.10      1.48
   16   19   27     -0.12      9.54
   18   19   27      1.49      4.25
    1   20   27      2.19      0.63
    3   20   27      0.70      8.98
    5   20   27     -0.21     -7.84
    7   20   27     -0.27      5.66
    9   20   27     -5.51     -0.87
   11   20   27     -5.78      4.98
   13   20   27      1.65     -0.14
   15   20   27      5.61     -1.51
   17   20   27     -7.46     -3.27
    0   21   27      7.30     -1.08
    2   21   27     -3.51     -1.83
    4   21   27     -2.90     -5.83
    6   21   27      3.11     -0.69
    8   21   27      3.65     -6.05
   10   21   27     -4.17      2.06
   12   21   27      2.33     -2.34
   14   21   27     -3.39      2.48
   16   21   27      2.41      0.40
    1   22   27      3.28      1.85
    3   22   27      4.73     -6.01
    5   22   27     -1.10      0.81
    7   22   27     -4.75      1.87
    9   22   27     -2.96      4.49
   11   22   27      3.88     -1.87
   13   22   27     -1.64      3.30
   15   22   27     -1.27      1.02
    0   23   27     -5.20      1.66
    2   23   27      6.24     -2.69
    4   23   27     -4.60     -3.14
    6   23   27     -1.19      0.43
    8   23   27     -4.16      0.17
   10   23   27      3.92     -0.41
   12   23   27     -1.97     -2.31
   14   23   27     -2.22      0.69
    1   24   27      4.06      0.71
    3   24   27      1.54     -0.95
    5   24   27      0.11     -1.52
    7   24   27     -6.78     -0.05
    9   24   27      5.84      3.68
   11   24   27      5.20      1.38
   13   24   27     -3.39     -4.15
    0   25   27      2.24     -0.92
    2   25   27      3.04      0.94
    4   25   27     -1.48      3.67
    6   25   27      0.46     -1.50
    8   25   27      5.52      4.58
   10   25   27     -6.09     -1.62
    1   26   27      0.80     -1.08
    3   26   27      7.28      3.16
    5   26   27     -1.89     -2.03
    7   26   27      1.15     -1.37
    0   27   27      0.74      0.12
    2   27   27     -3.76      1.50
    4   27   27     -1.25      1.91
    0    0   28      6.54     -5.69
    1    1   28    -13.52     -6.31
    0    2   28      9.93     -1.72
    2    2   28     10.27     -2.22
    1    3   28     11.32     -1.25
    3    3   28     -5.58     -0.73
    2    4   28      3.56     -8.17
    4    4   28      5.17     -4.55
    1    5   28     -7.43      0.19
    3    5   28     12.47     -6.21
    5    5   28      5.15      3.86
    0    6   28    -10.09     -0.94
    2    6   28      8.99      8.07
    4    6   28      2.57    -10.05
    6    6   28    -12.42     -3.76
    1    7   28      4.32     -9.48
    3    7   28      6.15     -6.20
    5    7   28     -4.91     -1.12
    7    7   28      2.32      3.78
    0    8   28     -8.68      1.45
    2    8   28     -7.15     -1.23
    4    8   28     -0.28     -3.44
    6    8   28     -0.93     -9.57
    8    8   28      3.85     -2.38
    1    9   28     11.17     -5.50
    3    9   28    -16.03     -2.44
    5    9   28     -3.77      9.21
    7    9   28     -2.06      2.78
    9    9   28      5.95      1.50
    0   10   28     -1.80     -0.25
    2   10   28    -11.86     -0.38
    4   10   28      2.01     -3.73
    6   10   28      8.39     -5.45
    8   10   28     -9.18     -5.31
   10   10   28      7.55     -2.03
    1   11   28     -1.26     -4.07
    3   11   28      2.82      3.34
    5   11   28     -4.86      0.38
    7   11   28      3.89     -1.51
    9   11   28     -3.82     -3.19
   11   11   28     11.48     -3.08
    0   12   28    -13.36      1.49
    2   12   28      0.54     -6.28
    4   12   28     -0.04     -1.09
    6   12   28     -4.48     -0.47
    8   12   28      3.01      2.34
   10   12   28      4.49      3.33
   12   12   28      0.42      0.78
    1   13   28     -1.23      4.33
    3   13   28     -4.14     -6.29
    5   13   28     -0.14     -1.71
    7   13   28      1.27     -5.68
    9   13   28      5.18     -1.08
   11   13   28     -1.56      0.36
   13   13   28     -1.71     -3.90
    0   14   28     -1.55      3.02
    2   14   28     -8.81      7.36
    4   14   28     -2.47     -4.47
    6   14   28      2.21      3.07
    8   14   28      2.13      8.15
   10   14   28      2.79     -0.62
   12   14   28      1.89     -0.27
   14   14   28      9.91     -1.84
    1   15   28     -4.75     -5.82
    3   15   28      0.94     -2.54
    5   15   28     -4.30      2.01
    7   15   28     -1.92      3.91
    9   15   28     -3.35     -1.19
   11   15   28      1.58     -2.20
   13   15   28     -3.16      0.66
   15   15   28     -2.39      3.26
    0   16   28      0.15      0.42
    2   16   28    -10.71     -6.26
    4   16   28     -6.44      8.48
    6   16   28     -4.91     -0.76
    8   16   28      1.00      3.56
   10   16   28      2.81     -2.40
   12   16   28      6.51      1.81
   14   16   28     -1.40      2.74
   16   16   28      9.48     -1.20
    1   17   28     -3.79     -1.24
    3   17   28      0.92      6.77
    5   17   28      6.95     -3.55
    7   17   28     -1.51     -0.87
    9   17   28     -1.68      4.16
   11   17   28     -4.17     -0.50
   13   17   28     -5.72     -2.94
   15   17   28     -0.82      0.01
   17   17   28      3.22      0.02
    0   18   28     -3.96     -0.82
    2   18   28      0.11      4.71
    4   18   28     -5.78     -1.30
    6   18   28     -0.70     -0.92
    8   18   28      1.27     -1.29
   10   18   28      1.14      5.98
   12   18   28     -2.14      0.42
   14   18   28      2.82      2.64
   16   18   28      0.83      2.96
   18   18   28      6.45      2.33
    1   19   28     -6.84      1.58
    3   19   28      0.81     -3.63
    5   19   28     -0.29     -4.52
    7   19   28      3.03     -1.91
    9   19   28     -9.56      2.95
   11   19   28     -3.84      7.60
   13   19   28      4.06     -1.25
   15   19   28     -0.82      0.19
    0   20   28      7.18      0.96
    2   20   28     -4.99     -2.90
    4   20   28     -0.53      2.34
    6   20   28     -2.44     -0.02
    8   20   28     -2.56      2.37
   10   20   28      2.49     -2.96
   12   20   28     -0.93      1.82
   14   20   28     -0.80     -0.86
    1   21   28      0.88     -4.17
    3   21   28     -3.84    -10.04
    5   21   28     -0.13      4.43
    7   21   28     -7.08     -0.26
    9   21   28     -0.59      2.59
   11   21   28      1.78     -0.78
   13   21   28      0.86      4.64
    0   22   28     -4.41      0.62
    2   22   28     -0.19      3.36
    4   22   28     -3.74     -4.91
    6   22   28     -2.28     -0.13
    8   22   28     -1.49      9.61
   10   22   28     -0.73     -1.39
   12   22   28     -3.32     -5.44
    1   23   28      1.08     -0.86
    3   23   28     -0.29      0.83
    5   23   28     -7.72     -5.06
    7   23   28      2.99      0.19
    9   23   28      2.81      0.68
    0   24   28      0.96     -0.11
    2   24   28     -2.44     -3.77
    4   24   28      3.78     -0.62
    6   24   28     -2.69      2.46
    8   24   28     -2.75     -0.26
    1   25   28      2.52     -0.94
    3   25   28     -0.13     -3.18
    0    0    0      0.00      0.00
# SQUEEZE RESULTS (Version = 120716)
# Note: Data are Listed for all Voids in the P1 Unit Cell
# i.e. Centre of Gravity, Solvent Accessible Volume,
# Recovered number of Electrons in the Void and
# Details about the Squeezed Material
loop_
  _platon_squeeze_void_nr
  _platon_squeeze_void_average_x
  _platon_squeeze_void_average_y
  _platon_squeeze_void_average_z
  _platon_squeeze_void_volume
  _platon_squeeze_void_count_electrons
  _platon_squeeze_void_content
   1 -0.015 -0.007 -0.007     16622      3497 ' '
# Missing Reflections Below sin(th)/lambda = 0.25
loop_
  _platon_missing_refln_index_h
  _platon_missing_refln_index_k
  _platon_missing_refln_index_l
  _platon_missing_refln_theta
    1    1    0     0.824
    0    2    0     1.166
    2    2    0     1.649
    1    3    0     1.844
    3    3    0     2.474
    0    4    0     2.332
    2    4    0     2.608
    4    4    0     3.300
    6    6    0     4.953
    0    8    0     4.669
    2    8    0     4.813
    1    9    0     5.286
    0    1    1     0.981
    1    2    1     1.524
    0    3    1     1.919
    2    3    1     2.246
    1    4    1     2.531
    0    5    1     3.021
    3    6    1     3.993
    0   15    1     8.815
    0    0    2     1.578
    1    1    2     1.780
    0    2    2     1.962
    2    2    2     2.282
    1    3    2     2.427
    3    3    2     2.935
    0    4    2     2.816
    0    1    3     2.438
    0    0    4     3.156
    1    1    4     3.263
    0    4    4     3.926
    4    4    4     4.569
    5    5    4     5.198
    0    8    4     5.640
    0    1    5     3.990
    3    4    5     4.910
    0    5    5     4.910
    1    6    5     5.311
    0    0    6     4.738
    0    1    7     5.560
    0    0    8     6.322
    0    1    9     7.141
    0    0   10     7.912
    0    0   12     9.508
_platon_squeeze_void_probe_radius                  1.20
_platon_squeeze_details
)
TITL 422 in I422
CELL   34.9266   34.9266   25.8160     90.00     90.00     90.00
SPGR I422
# Solvent Accessible Volume =     16554
# Electrons Found in S.A.V. =      3348
# Note: Atoms in Void as Cxxx and Qxxx all others
C101 0.849 0.852-0.003 !      11.81 eA-3
C102 0.696 0.195 0.250 !      10.73 eA-3
C103 0.500 0.500 0.203 !       9.40 eA-3
C104 0.500 0.501 0.242 !       8.72 eA-3
C105 0.289 0.843 0.252 !       4.15 eA-3
C106 0.225 0.234 0.260 !       3.81 eA-3
C107 0.500 0.498 0.297 !       3.26 eA-3
C108 0.728 0.227 0.175 !       3.09 eA-3
C109 0.297 0.804 0.185 !       3.02 eA-3
C110 0.831 0.848 0.052 !       2.78 eA-3
C111 0.856 0.408 0.389 !       2.55 eA-3
C112 0.116 0.091 0.047 !       2.41 eA-3
C113 0.085 0.125 0.034 !       2.35 eA-3
C114 0.500 0.599 0.408 !       2.34 eA-3
C115 0.915 0.391 0.314 !       2.30 eA-3
C116 0.730 0.225 0.272 !       2.30 eA-3
C117 0.606 0.498 0.598 !       2.28 eA-3
C118 0.831 0.150 0.050 !       2.28 eA-3
C119 0.117 0.118-0.001 !       2.25 eA-3
C120 0.525 0.178 0.027 !       2.25 eA-3
C121 0.873 0.397 0.456 !       2.14 eA-3
C122 0.882 0.391 0.407 !       2.07 eA-3
C123 0.105 1.000-0.001 !       1.99 eA-3
C124 0.795 0.928 0.441 !       1.97 eA-3
C125 0.851 0.130 0.060 !       1.96 eA-3
C126 0.983 0.969 0.171 !       1.94 eA-3
C127 0.639 0.013 0.348 !       1.88 eA-3
C128 0.581 0.877 0.451 !       1.87 eA-3
C129 0.560 0.030 0.085 !       1.85 eA-3
C130 0.449 0.453 0.396 !       1.84 eA-3
C131 0.795 0.875 0.442 !       1.83 eA-3
C132 0.109 0.798 0.464 !       1.79 eA-3
C133 0.869 0.815 0.017 !       1.73 eA-3
C134 0.791 0.866 0.458 !       1.72 eA-3
C135 0.293 0.389 0.976 !       1.72 eA-3
C136 0.876 0.830 0.020 !       1.68 eA-3
C137 1.002 0.085 0.055 !       1.68 eA-3
C138 0.687 0.235 0.215 !       1.65 eA-3
C139 0.368 0.319 0.481 !       1.65 eA-3
Q140 0.484 0.429 0.063 !       1.64 eA-3
C141 0.733 0.745 0.462 !       1.63 eA-3
C142 0.918 0.126 0.014 !       1.63 eA-3
C143 0.232 0.236 0.025 !       1.62 eA-3
C144 0.525 0.861 0.056 !       1.61 eA-3
C145 0.357 0.016 0.365 !       1.61 eA-3
Q146 0.460 0.647 0.368 !       1.60 eA-3
C147 0.466 0.502 0.037 !       1.59 eA-3
C148 0.460 0.469 0.040 !       1.58 eA-3
C149 0.030 0.531 0.284 !       1.57 eA-3
C150 0.871 0.350 0.455 !       1.57 eA-3
C151 0.147 0.782 0.431 !       1.54 eA-3
C152 0.508 0.173 0.055 !       1.52 eA-3
C153 0.038 0.388 0.013 !       1.52 eA-3
C154 0.860 0.369 0.432 !       1.52 eA-3
C155 0.867 0.376 0.054 !       1.52 eA-3
C156 0.533 0.033 0.070 !       1.51 eA-3
C157 0.318 0.693 0.145 !       1.50 eA-3
Q158 0.721 0.892 0.447 !       1.50 eA-3
C159 0.749 0.771 0.444 !       1.49 eA-3
C160 0.821 0.835 0.410 !       1.49 eA-3
C161 0.095 0.094 0.001 !       1.49 eA-3
C162 0.519 0.008 0.046 !       1.48 eA-3
C163 0.801 0.819 0.639 !       1.48 eA-3
C164 0.911 0.414 0.246 !       1.46 eA-3
C165 0.890 0.389 0.142 !       1.46 eA-3
C166 0.438 0.475 0.586 !       1.46 eA-3
C167 0.938 0.975 0.086 !       1.46 eA-3
C168 0.367 0.008 0.330 !       1.44 eA-3
C169 0.482 0.482 0.045 !       1.43 eA-3
C170 0.999 0.961 0.294 !       1.43 eA-3
C171 0.501 0.884 0.003 !       1.42 eA-3
C172 0.259 0.211 0.022 !       1.42 eA-3
C173 0.231 0.139 0.439 !       1.42 eA-3
Q174 0.996 0.944 0.299 !       1.42 eA-3
C175 0.539 0.038 0.249 !       1.41 eA-3
C176 0.379 0.897 0.000 !       1.39 eA-3
C177 0.900 0.514 0.476 !       1.39 eA-3
C178 0.555 0.039 0.394 !       1.38 eA-3
C179 0.895 0.405 0.052 !       1.36 eA-3
Q180 0.663 0.750 0.106 !       1.35 eA-3
C181 0.914 0.563 0.087 !       1.35 eA-3
C182 0.067 0.438 0.384 !       1.35 eA-3
C183 0.048 0.562 0.278 !       1.35 eA-3
C184 0.971 0.130 0.091 !       1.34 eA-3
C185 0.868 0.406 0.063 !       1.34 eA-3
C186 0.982 0.928 0.923 !       1.34 eA-3
Q187 0.639 0.042 0.324 !       1.34 eA-3
C188 0.563 0.061 0.351 !       1.33 eA-3
C189 0.515 0.879 0.453 !       1.32 eA-3
C190 0.252 0.208 0.446 !       1.31 eA-3
C191 0.054 0.424 0.068 !       1.29 eA-3
C192 0.744 0.392 0.005 !       1.29 eA-3
C193 0.383 0.015 0.006 !       1.28 eA-3
C194 0.501 0.085 0.469 !       1.27 eA-3
C195 0.874 0.437 0.069 !       1.27 eA-3
C196 0.543 1.001 0.061 !       1.27 eA-3
C197 0.374 0.252 0.003 !       1.27 eA-3
C198 0.254 0.281 0.482 !       1.26 eA-3
C199 0.503 0.038 0.571 !       1.26 eA-3
)
;
_shelx_fab_checksum              59150
loop_
_space_group_symop_operation_xyz
'x, y, z'
'-x, -y, z'
'-y, x, z'
'y, -x, z'
'-x, y, -z'
'x, -y, -z'
'y, x, -z'
'-y, -x, -z'
'x+1/2, y+1/2, z+1/2'
'-x+1/2, -y+1/2, z+1/2'
'-y+1/2, x+1/2, z+1/2'
'y+1/2, -x+1/2, z+1/2'
'-x+1/2, y+1/2, -z+1/2'
'x+1/2, -y+1/2, -z+1/2'
'y+1/2, x+1/2, -z+1/2'
'-y+1/2, -x+1/2, -z+1/2'
loop_
_atom_site_label
_atom_site_type_symbol
_atom_site_fract_x
_atom_site_fract_y
_atom_site_fract_z
_atom_site_U_iso_or_equiv
_atom_site_adp_type
_atom_site_occupancy
_atom_site_site_symmetry_order
_atom_site_calc_flag
_atom_site_refinement_flags_posn
_atom_site_refinement_flags_adp
_atom_site_refinement_flags_occupancy
_atom_site_disorder_assembly
_atom_site_disorder_group
C1A C 0.3637(4) 0.6368(4) 0.7620(6) 0.078(4) Uani 1 1 d . . . . .
H1AA H 0.3500 0.6506 0.7877 0.094 Uiso 1 1 calc R U . . .
C2A C 0.3487(5) 0.6344(4) 0.7098(7) 0.082(4) Uani 1 1 d . . . . .
C3A C 0.3681(5) 0.6143(4) 0.6746(6) 0.080(4) Uani 1 1 d . . . . .
H3AA H 0.3586 0.6127 0.6402 0.095 Uiso 1 1 calc R U . . .
C4A C 0.4019(5) 0.5955(4) 0.6870(8) 0.091(5) Uani 1 1 d . . . . .
H4AA H 0.4131 0.5795 0.6614 0.109 Uiso 1 1 calc R U . . .
C5A C 0.2989(4) 0.6591(4) 0.6552(5) 0.068(4) Uani 1 1 d . . . . .
H5AA H 0.2933 0.6867 0.6512 0.082 Uiso 1 1 calc R U . . .
H5AB H 0.3183 0.6517 0.6291 0.082 Uiso 1 1 calc R U . . .
C6A C 0.2636(4) 0.6365(4) 0.6476(5) 0.073(4) Uani 1 1 d . . . . .
H6AA H 0.2460 0.6418 0.6767 0.088 Uiso 1 1 calc R U . . .
H6AB H 0.2510 0.6453 0.6154 0.088 Uiso 1 1 calc R U . . .
C7A C 0.2636(4) 0.5698(5) 0.6856(6) 0.070(4) Uani 1 1 d . . . . .
C8A C 0.2865(4) 0.5740(5) 0.6058(6) 0.082(5) Uani 1 1 d . . . . .
H8AA H 0.2960 0.5830 0.5735 0.098 Uiso 1 1 calc R U . . .
C9A C 0.2869(4) 0.5363(3) 0.6238(5) 0.059(3) Uani 1 1 d . . . . .
H9AA H 0.2956 0.5147 0.6047 0.070 Uiso 1 1 calc R U . . .
C10A C 0.2482(4) 0.5776(5) 0.7366(5) 0.075(4) Uani 1 1 d . . . . .
H10A H 0.2413 0.6020 0.7501 0.090 Uiso 1 1 calc R U . . .
C2B C 0.3983(4) 0.6189(5) 0.7747(7) 0.091(5) Uani 1 1 d . . . . .
C3B C 0.4189(5) 0.5984(4) 0.7305(8) 0.083(5) Uani 1 1 d . . . . .
H3BA H 0.4438 0.5881 0.7353 0.100 Uiso 1 1 calc R U . . .
C5B C 0.4388(6) 0.6027(6) 0.8482(8) 0.128(7) Uani 1 1 d . . . . .
H5BA H 0.4449 0.5823 0.8229 0.153 Uiso 1 1 calc R U . . .
H5BB H 0.4290 0.5903 0.8800 0.153 Uiso 1 1 calc R U . . .
C6B C 0.4728(6) 0.6228(6) 0.8604(7) 0.127(7) Uani 1 1 d . . . . .
H6BA H 0.4919 0.6044 0.8739 0.152 Uiso 1 1 calc R U . . .
H6BB H 0.4673 0.6414 0.8883 0.152 Uiso 1 1 calc R U . . .
C7B C 0.4832(4) 0.6810(4) 0.7980(5) 0.063(4) Uani 1 1 d . . . . .
C8B C 0.5153(5) 0.6255(5) 0.7785(8) 0.102(6) Uani 1 1 d . . . . .
H8BA H 0.5237 0.5997 0.7789 0.122 Uiso 1 1 calc R U . . .
C9B C 0.5226(4) 0.6516(4) 0.7475(6) 0.063(4) Uani 1 1 d . . . . .
H9BA H 0.5404 0.6483 0.7200 0.076 Uiso 1 1 calc R U . . .
C10B C 0.4602(4) 0.7111(5) 0.8151(6) 0.077(4) Uani 1 1 d . . . . .
H10B H 0.4437 0.7098 0.8443 0.093 Uiso 1 1 calc R U . . .
C11B C 0.4389(4) 0.7743(5) 0.7995(6) 0.092(5) Uani 1 1 d . . . . .
H11A H 0.4538 0.7977 0.7904 0.111 Uiso 1 1 calc R U . . .
C12B C 0.4047(4) 0.7742(5) 0.7652(7) 0.078(4) Uani 1 1 d . . . . .
C13B C 0.3937(5) 0.8076(5) 0.7433(6) 0.081(4) Uani 1 1 d . . . . .
H13A H 0.4083 0.8302 0.7486 0.098 Uiso 1 1 calc R U . . .
C14B C 0.3600(5) 0.8087(5) 0.7121(7) 0.095(5) Uani 1 1 d . . . . .
H14A H 0.3514 0.8324 0.6984 0.114 Uiso 1 1 calc R U . . .
C15B C 0.3400(5) 0.7761(5) 0.7017(7) 0.084(5) Uani 1 1 d . . . . .
C16B C 0.3510(4) 0.7425(5) 0.7261(6) 0.080(4) Uani 1 1 d . . . . .
H16A H 0.3369 0.7195 0.7212 0.097 Uiso 1 1 calc R U . . .
C17B C 0.3833(4) 0.7432(5) 0.7581(6) 0.078(4) Uani 1 1 d . . . . .
H17A H 0.3903 0.7203 0.7756 0.093 Uiso 1 1 calc R U . . .
C18B C 0.2990(7) 0.8064(10) 0.6493(12) 0.193(13) Uani 1 1 d . . . . .
H18A H 0.2763 0.8019 0.6280 0.289 Uiso 1 1 calc R U . . .
H18B H 0.2931 0.8254 0.6760 0.289 Uiso 1 1 calc R U . . .
H18C H 0.3199 0.8158 0.6275 0.289 Uiso 1 1 calc R U . . .
C19B C 0.4289(6) 0.7779(6) 0.8571(8) 0.138(7) Uani 1 1 d . . . . .
H19A H 0.4525 0.7777 0.8776 0.207 Uiso 1 1 calc R U . . .
H19B H 0.4151 0.8019 0.8630 0.207 Uiso 1 1 calc R U . . .
H19C H 0.4128 0.7562 0.8675 0.207 Uiso 1 1 calc R U . . .
C1C C 0.2297(5) 0.5000 0.5000 0.071(5) Uani 1 2 d S T P . .
H1C H 0.2025 0.5000 0.5000 0.085 Uiso 1 2 calc R U P . .
C2C C 0.2493(5) 0.4675(4) 0.5154(6) 0.079(5) Uani 1 1 d . . . . .
C3C C 0.2877(5) 0.4684(4) 0.5161(5) 0.079(4) Uani 1 1 d . . . . .
H3CA H 0.3019 0.4468 0.5279 0.094 Uiso 1 1 calc R U . . .
C4C C 0.3059(7) 0.5000 0.5000 0.087(6) Uani 1 2 d S T P . .
H4C H 0.3331 0.5000 0.5000 0.105 Uiso 1 2 calc R U P . .
C5C C 0.2394(5) 0.3997(4) 0.5361(5) 0.075(4) Uani 1 1 d . . . . .
H5CA H 0.2660 0.3992 0.5231 0.090 Uiso 1 1 calc R U . . .
H5CB H 0.2237 0.3820 0.5149 0.090 Uiso 1 1 calc R U . . .
C6C C 0.2379(5) 0.3884(4) 0.5932(5) 0.082(4) Uani 1 1 d . . . . .
H6CA H 0.2110 0.3897 0.6051 0.099 Uiso 1 1 calc R U . . .
H6CB H 0.2466 0.3616 0.5966 0.099 Uiso 1 1 calc R U . . .
C7C C 0.2488(4) 0.4426(4) 0.6594(7) 0.078(5) Uani 1 1 d . . . . .
C8C C 0.2976(5) 0.4105(4) 0.6335(6) 0.079(4) Uani 1 1 d . . . . .
H8CA H 0.3141 0.3931 0.6161 0.095 Uiso 1 1 calc R U . . .
C9C C 0.3104(4) 0.4391(4) 0.6719(6) 0.082(4) Uani 1 1 d . . . . .
H9CA H 0.3354 0.4432 0.6853 0.098 Uiso 1 1 calc R U . . .
C10C C 0.2112(4) 0.4580(4) 0.6648(5) 0.069(4) Uani 1 1 d . . . . .
H10C H 0.1886 0.4492 0.6480 0.083 Uiso 1 1 calc R U . . .
C11C C 0.1770(4) 0.5100(5) 0.7072(7) 0.094(5) Uani 1 1 d . . . . .
H11B H 0.1769 0.5193 0.7438 0.113 Uiso 1 1 calc R U . . .
C12C C 0.1772(4) 0.5434(5) 0.6710(7) 0.077(4) Uani 1 1 d . . . . .
C13C C 0.1658(5) 0.5790(6) 0.6870(7) 0.091(5) Uani 1 1 d . . . . .
H13B H 0.1607 0.5825 0.7228 0.110 Uiso 1 1 calc R U . . .
C14C C 0.1613(5) 0.6085(6) 0.6561(9) 0.110(6) Uani 1 1 d . . . . .
H14B H 0.1501 0.6312 0.6696 0.132 Uiso 1 1 calc R U . . .
C15C C 0.1718(5) 0.6080(6) 0.6069(12) 0.124(7) Uani 1 1 d . . . . .
C16C C 0.1827(4) 0.5684(5) 0.5854(7) 0.091(5) Uani 1 1 d . . . . .
H16B H 0.1867 0.5653 0.5492 0.109 Uiso 1 1 calc R U . . .
C17C C 0.1862(4) 0.5404(5) 0.6149(6) 0.074(4) Uani 1 1 d . . . . .
H17B H 0.1949 0.5166 0.6013 0.088 Uiso 1 1 calc R U . . .
C18C C 0.1611(8) 0.6692(7) 0.5882(10) 0.164(9) Uani 1 1 d . . . . .
H18D H 0.1636 0.6905 0.5636 0.246 Uiso 1 1 calc R U . . .
H18E H 0.1340 0.6645 0.5953 0.246 Uiso 1 1 calc R U . . .
H18F H 0.1743 0.6758 0.6205 0.246 Uiso 1 1 calc R U . . .
C19C C 0.1406(4) 0.4863(5) 0.6970(7) 0.118(7) Uani 1 1 d . . . . .
H19D H 0.1401 0.4642 0.7205 0.177 Uiso 1 1 calc R U . . .
H19E H 0.1180 0.5023 0.7031 0.177 Uiso 1 1 calc R U . . .
H19F H 0.1407 0.4773 0.6611 0.177 Uiso 1 1 calc R U . . .
Fe1 Fe 0.26293(4) 0.49909(6) 0.72704(6) 0.0585(5) Uani 1 1 d . . . . .
N1A N 0.2723(3) 0.5354(3) 0.6748(4) 0.058(3) Uani 1 1 d . . . . .
N2A N 0.2697(3) 0.5959(3) 0.6442(4) 0.062(3) Uani 1 1 d . . . . .
N3A N 0.2456(3) 0.5447(3) 0.7605(4) 0.065(3) Uani 1 1 d D . . . .
N1B N 0.5034(4) 0.6856(3) 0.7554(4) 0.076(3) Uani 1 1 d . . . . .
N2B N 0.4908(4) 0.6449(5) 0.8129(6) 0.105(4) Uani 1 1 d . . . . .
N3B N 0.4643(3) 0.7405(4) 0.7868(4) 0.071(3) Uani 1 1 d . . . . .
N1C N 0.2778(3) 0.4578(3) 0.6831(4) 0.055(3) Uani 1 1 d . . . . .
N2C N 0.2611(4) 0.4122(3) 0.6267(4) 0.065(3) Uani 1 1 d . . . . .
N3C N 0.2137(3) 0.4866(3) 0.6973(4) 0.066(3) Uani 1 1 d . . . . .
O1A O 0.3138(3) 0.6513(3) 0.7085(4) 0.079(3) Uani 1 1 d . . . . .
O1B O 0.4098(4) 0.6262(4) 0.8274(5) 0.131(4) Uani 1 1 d . . . . .
O2B O 0.3098(4) 0.7728(4) 0.6724(5) 0.105(4) Uani 1 1 d . . . . .
O1C O 0.2237(3) 0.4387(3) 0.5338(4) 0.098(3) Uani 1 1 d . . . . .
O2C O 0.1771(4) 0.6373(5) 0.5675(6) 0.132(5) Uani 1 1 d . . . . .
C11A C 0.2301(10) 0.5499(17) 0.8159(8) 0.095(8) Uani 0.416(18) 1 d D U P A 1
H11C H 0.2156 0.5258 0.8229 0.115 Uiso 0.416(18) 1 calc R U P A 1
C12A C 0.2609(9) 0.5506(12) 0.8567(8) 0.107(7) Uani 0.416(18) 1 d D U P A 1
C13A C 0.2947(11) 0.5690(16) 0.8485(13) 0.104(8) Uani 0.416(18) 1 d D U P A 1
H13C H 0.2986 0.5832 0.8175 0.125 Uiso 0.416(18) 1 calc R U P A 1
C14A C 0.3251(12) 0.5669(16) 0.8873(13) 0.124(8) Uani 0.416(18) 1 d D U P A 1
H14C H 0.3500 0.5766 0.8806 0.149 Uiso 0.416(18) 1 calc R U P A 1
C15A C 0.3163(11) 0.5504(15) 0.9335(13) 0.138(8) Uani 0.416(18) 1 d D U P A 1
C16A C 0.2812(11) 0.5333(13) 0.9421(12) 0.131(9) Uani 0.416(18) 1 d D U P A 1
H16C H 0.2761 0.5224 0.9751 0.157 Uiso 0.416(18) 1 calc R U P A 1
C17A C 0.2524(11) 0.5317(13) 0.9026(11) 0.116(9) Uani 0.416(18) 1 d D U P A 1
H17C H 0.2290 0.5184 0.9075 0.139 Uiso 0.416(18) 1 calc R U P A 1
O2A O 0.3418(11) 0.5496(11) 0.9739(13) 0.169(8) Uani 0.416(18) 1 d D U P A 1
C18A C 0.3707(17) 0.5789(18) 0.967(3) 0.182(15) Uani 0.416(18) 1 d D U P A 1
H18G H 0.3887 0.5781 0.9961 0.273 Uiso 0.416(18) 1 calc R U P A 1
H18H H 0.3845 0.5743 0.9346 0.273 Uiso 0.416(18) 1 calc R U P A 1
H18I H 0.3584 0.6041 0.9658 0.273 Uiso 0.416(18) 1 calc R U P A 1
C19A C 0.1998(17) 0.582(3) 0.8231(19) 0.105(14) Uani 0.416(18) 1 d D U P A 1
H19G H 0.1805 0.5807 0.7956 0.157 Uiso 0.416(18) 1 calc R U P A 1
H19H H 0.1873 0.5796 0.8569 0.157 Uiso 0.416(18) 1 calc R U P A 1
H19I H 0.2125 0.6074 0.8213 0.157 Uiso 0.416(18) 1 calc R U P A 1
C11Z C 0.2375(7) 0.5460(12) 0.8204(7) 0.095(7) Uani 0.584(18) 1 d D U P A 2
H11D H 0.2248 0.5214 0.8301 0.114 Uiso 0.584(18) 1 calc R U P A 2
C12Z C 0.2735(7) 0.5496(9) 0.8527(7) 0.091(6) Uani 0.584(18) 1 d D U P A 2
C13Z C 0.3024(8) 0.5733(11) 0.8379(11) 0.101(7) Uani 0.584(18) 1 d D U P A 2
H13D H 0.3001 0.5885 0.8076 0.122 Uiso 0.584(18) 1 calc R U P A 2
C14Z C 0.3367(9) 0.5749(11) 0.8690(10) 0.115(7) Uani 0.584(18) 1 d D U P A 2
H14D H 0.3580 0.5895 0.8574 0.137 Uiso 0.584(18) 1 calc R U P A 2
C15Z C 0.3388(9) 0.5554(10) 0.9154(11) 0.136(8) Uani 0.584(18) 1 d D U P A 2
C16Z C 0.3097(9) 0.5329(11) 0.9308(11) 0.140(8) Uani 0.584(18) 1 d D U P A 2
H16D H 0.3117 0.5188 0.9621 0.168 Uiso 0.584(18) 1 calc R U P A 2
C17Z C 0.2750(9) 0.5302(10) 0.8995(9) 0.129(7) Uani 0.584(18) 1 d D U P A 2
H17E H 0.2538 0.5154 0.9110 0.154 Uiso 0.584(18) 1 calc R U P A 2
O2Z O 0.3732(9) 0.5575(10) 0.9421(11) 0.191(10) Uani 0.584(18) 1 d D U P A 2
C18Z C 0.3764(15) 0.5483(16) 0.9935(14) 0.228(16) Uani 0.584(18) 1 d D U P A 2
H18J H 0.4030 0.5516 1.0047 0.343 Uiso 0.584(18) 1 calc R U P A 2
H18K H 0.3597 0.5650 1.0139 0.343 Uiso 0.584(18) 1 calc R U P A 2
H18L H 0.3687 0.5215 0.9986 0.343 Uiso 0.584(18) 1 calc R U P A 2
C19Z C 0.2085(12) 0.580(2) 0.8345(13) 0.110(11) Uani 0.584(18) 1 d D U P A 2
H19J H 0.1853 0.5777 0.8135 0.165 Uiso 0.584(18) 1 calc R U P A 2
H19K H 0.2018 0.5787 0.8713 0.165 Uiso 0.584(18) 1 calc R U P A 2
H19L H 0.2208 0.6048 0.8273 0.165 Uiso 0.584(18) 1 calc R U P A 2
loop_
_atom_site_aniso_label
_atom_site_aniso_U_11
_atom_site_aniso_U_22
_atom_site_aniso_U_33
_atom_site_aniso_U_23
_atom_site_aniso_U_13
_atom_site_aniso_U_12
C1A 0.071(11) 0.074(10) 0.090(12) -0.005(9) 0.019(9) -0.010(7)
C2A 0.087(12) 0.085(11) 0.075(12) -0.008(9) -0.012(9) 0.009(9)
C3A 0.081(11) 0.089(11) 0.069(10) 0.005(9) 0.014(9) -0.031(10)
C4A 0.099(14) 0.055(10) 0.118(15) -0.005(10) -0.021(12) -0.009(8)
C5A 0.080(10) 0.061(9) 0.063(10) 0.003(7) 0.007(8) -0.004(8)
C6A 0.074(10) 0.086(11) 0.059(9) 0.006(8) 0.008(8) 0.005(9)
C7A 0.058(9) 0.076(11) 0.075(11) 0.007(9) -0.002(8) 0.007(8)
C8A 0.081(11) 0.110(13) 0.054(10) -0.002(10) 0.026(8) 0.009(9)
C9A 0.089(10) 0.043(8) 0.044(8) -0.001(6) -0.012(7) -0.004(7)
C10A 0.091(11) 0.076(10) 0.059(10) -0.015(8) 0.008(8) 0.004(8)
C2B 0.065(10) 0.114(13) 0.095(13) 0.028(11) 0.006(10) -0.014(9)
C3B 0.075(10) 0.054(9) 0.121(15) 0.009(10) 0.016(11) -0.002(8)
C5B 0.106(16) 0.133(17) 0.144(19) 0.042(14) 0.004(14) -0.011(14)
C6B 0.114(16) 0.163(19) 0.103(16) 0.045(14) 0.003(12) 0.000(15)
C7B 0.091(11) 0.063(10) 0.036(8) -0.002(7) -0.004(8) 0.003(8)
C8B 0.080(12) 0.080(12) 0.145(18) -0.016(13) 0.032(12) -0.006(9)
C9B 0.052(8) 0.059(9) 0.079(10) -0.003(8) 0.003(7) -0.009(8)
C10B 0.065(10) 0.102(13) 0.064(10) 0.012(10) 0.018(8) -0.017(9)
C11B 0.079(11) 0.123(14) 0.074(12) -0.015(10) 0.020(10) -0.003(10)
C12B 0.058(10) 0.081(11) 0.094(12) -0.001(10) 0.011(9) -0.003(9)
C13B 0.084(12) 0.084(12) 0.076(11) -0.016(9) 0.004(9) -0.003(9)
C14B 0.079(12) 0.063(11) 0.142(17) -0.009(10) 0.011(11) 0.012(9)
C15B 0.074(12) 0.101(15) 0.076(12) 0.002(10) 0.013(9) 0.031(11)
C16B 0.058(9) 0.086(11) 0.098(12) -0.015(10) 0.003(9) 0.008(8)
C17B 0.072(10) 0.089(12) 0.072(11) 0.007(9) 0.015(9) 0.013(10)
C18B 0.13(2) 0.26(4) 0.19(3) -0.11(3) 0.011(19) -0.02(2)
C19B 0.140(17) 0.160(19) 0.114(16) -0.008(14) 0.054(13) 0.018(14)
C1C 0.064(12) 0.075(13) 0.074(13) 0.000(13) 0.000 0.000
C2C 0.090(12) 0.057(9) 0.089(13) 0.001(8) -0.017(9) -0.007(8)
C3C 0.100(13) 0.070(11) 0.066(11) -0.017(8) -0.005(9) 0.018(9)
C4C 0.103(17) 0.090(17) 0.068(14) -0.028(16) 0.000 0.000
C5C 0.099(11) 0.065(10) 0.062(10) -0.009(7) 0.001(8) -0.006(9)
C6C 0.098(12) 0.074(10) 0.075(11) -0.011(8) -0.005(9) -0.011(9)
C7C 0.051(10) 0.070(11) 0.115(14) 0.027(10) 0.000(9) -0.006(8)
C8C 0.100(13) 0.073(11) 0.063(10) -0.001(8) 0.004(9) 0.011(9)
C9C 0.067(10) 0.064(10) 0.113(13) -0.007(9) -0.004(9) 0.006(8)
C10C 0.073(11) 0.084(11) 0.051(9) 0.000(8) -0.006(7) -0.012(8)
C11C 0.049(9) 0.134(16) 0.100(12) 0.001(12) 0.000(8) -0.008(9)
C12C 0.070(10) 0.066(11) 0.094(13) -0.002(10) -0.001(9) 0.004(8)
C13C 0.098(13) 0.096(14) 0.080(12) 0.000(11) -0.002(10) 0.002(11)
C14C 0.116(15) 0.117(18) 0.097(16) -0.040(14) 0.005(13) 0.033(12)
C15C 0.095(14) 0.119(19) 0.16(2) -0.004(18) 0.003(14) 0.021(12)
C16C 0.084(12) 0.103(14) 0.085(12) -0.010(11) -0.012(9) 0.012(10)
C17C 0.071(10) 0.085(11) 0.065(11) 0.011(9) 0.003(8) 0.014(9)
C18C 0.19(3) 0.14(2) 0.16(2) 0.015(18) 0.016(19) -0.024(19)
C19C 0.075(11) 0.144(17) 0.135(16) 0.000(13) 0.002(11) 0.030(10)
Fe1 0.0620(11) 0.0593(11) 0.0541(10) 0.0003(11) 0.0069(9) -0.0015(11)
N1A 0.071(8) 0.052(7) 0.050(8) 0.011(5) -0.004(6) 0.010(6)
N2A 0.068(8) 0.062(8) 0.057(8) 0.009(6) 0.000(6) 0.001(6)
N3A 0.064(7) 0.070(8) 0.061(8) -0.010(6) 0.009(6) 0.018(6)
N1B 0.093(8) 0.077(8) 0.058(7) 0.005(6) 0.004(8) -0.011(8)
N2B 0.100(12) 0.111(12) 0.104(11) 0.012(10) -0.003(9) -0.015(9)
N3B 0.065(7) 0.089(9) 0.057(8) -0.004(7) 0.006(6) 0.003(7)
N1C 0.046(6) 0.061(7) 0.056(7) 0.003(5) 0.011(5) -0.008(6)
N2C 0.061(8) 0.057(7) 0.077(8) -0.010(6) 0.009(7) 0.001(7)
N3C 0.068(7) 0.071(8) 0.061(7) -0.005(6) -0.008(6) 0.002(6)
O1A 0.078(7) 0.084(7) 0.076(7) 0.005(5) -0.020(5) -0.009(5)
O1B 0.114(10) 0.188(13) 0.090(10) 0.038(9) -0.009(8) 0.005(9)
O2B 0.102(10) 0.095(9) 0.117(10) 0.016(8) -0.004(8) 0.019(8)
O1C 0.122(9) 0.100(9) 0.073(7) 0.006(6) 0.000(6) -0.022(7)
O2C 0.174(13) 0.107(11) 0.115(11) 0.006(9) 0.022(9) 0.029(9)
C11A 0.123(17) 0.111(15) 0.052(13) -0.014(13) 0.002(13) 0.017(16)
C12A 0.144(16) 0.119(12) 0.059(11) -0.011(11) 0.006(12) 0.011(13)
C13A 0.139(17) 0.120(14) 0.053(13) 0.001(13) 0.005(13) 0.008(14)
C14A 0.155(17) 0.139(14) 0.078(14) 0.003(13) 0.000(13) -0.008(14)
C15A 0.176(18) 0.152(15) 0.085(13) 0.002(14) -0.009(14) -0.003(16)
C16A 0.17(2) 0.143(16) 0.079(15) -0.003(15) -0.001(16) 0.006(18)
C17A 0.143(19) 0.133(15) 0.072(14) -0.012(14) 0.013(15) 0.007(17)
O2A 0.199(19) 0.188(16) 0.120(15) 0.001(15) -0.007(14) -0.012(17)
C18A 0.23(3) 0.19(3) 0.13(3) 0.01(3) 0.00(3) -0.05(3)
C19A 0.14(3) 0.12(3) 0.05(2) 0.00(3) 0.02(2) 0.04(2)
C11Z 0.122(16) 0.109(14) 0.054(12) -0.013(12) 0.002(12) 0.019(14)
C12Z 0.120(15) 0.110(12) 0.042(9) -0.008(10) 0.009(10) 0.009(12)
C13Z 0.138(16) 0.109(13) 0.056(12) 0.000(11) -0.004(12) 0.003(13)
C14Z 0.139(17) 0.135(15) 0.069(14) 0.002(13) 0.005(13) -0.014(14)
C15Z 0.162(17) 0.162(14) 0.084(13) 0.005(13) -0.016(13) -0.016(15)
C16Z 0.179(18) 0.157(15) 0.085(13) 0.005(12) -0.008(13) -0.001(15)
C17Z 0.164(17) 0.143(13) 0.079(12) -0.003(12) 0.012(13) 0.002(15)
O2Z 0.23(2) 0.227(19) 0.121(18) 0.003(17) 0.017(16) -0.019(19)
C18Z 0.26(3) 0.27(3) 0.15(3) 0.03(3) -0.06(3) 0.00(3)
C19Z 0.16(3) 0.14(2) 0.030(17) 0.000(19) 0.002(17) 0.01(2)
loop_
_atom_type_symbol
_atom_type_description
_atom_type_scat_dispersion_real
_atom_type_scat_dispersion_imag
_atom_type_scat_source
C C 0.0033 0.0016 'International Tables Vol C Tables 4.2.6.8 and 6.1.1.4'
H H 0.0000 0.0000 'International Tables Vol C Tables 4.2.6.8 and 6.1.1.4'
F F 0.0171 0.0103 'International Tables Vol C Tables 4.2.6.8 and 6.1.1.4'
Fe Fe 0.3463 0.8444 'International Tables Vol C Tables 4.2.6.8 and 6.1.1.4'
N N 0.0061 0.0033 'International Tables Vol C Tables 4.2.6.8 and 6.1.1.4'
O O 0.0106 0.0060 'International Tables Vol C Tables 4.2.6.8 and 6.1.1.4'
S S 0.1246 0.1234 'International Tables Vol C Tables 4.2.6.8 and 6.1.1.4'
loop_
_geom_angle_atom_site_label_1
_geom_angle_atom_site_label_2
_geom_angle_atom_site_label_3
_geom_angle
_geom_angle_site_symmetry_1
_geom_angle_site_symmetry_3
_geom_angle_publ_flag
C2B C1A C2A 120.3(14) . . ?
C2B C1A H1AA 119.9 . . ?
C2A C1A H1AA 119.9 . . ?
C3A C2A O1A 132.0(15) . . ?
C3A C2A C1A 118.7(15) . . ?
O1A C2A C1A 108.9(14) . . ?
C2A C3A C4A 121.6(16) . . ?
C2A C3A H3AA 119.2 . . ?
C4A C3A H3AA 119.2 . . ?
C3B C4A C3A 124.1(17) . . ?
C3B C4A H4AA 117.9 . . ?
C3A C4A H4AA 117.9 . . ?
C6A C5A O1A 108.5(10) . . ?
C6A C5A H5AA 110.0 . . ?
O1A C5A H5AA 110.0 . . ?
C6A C5A H5AB 110.0 . . ?
O1A C5A H5AB 110.0 . . ?
H5AA C5A H5AB 108.4 . . ?
N2A C6A C5A 114.4(12) . . ?
N2A C6A H6AA 108.7 . . ?
C5A C6A H6AA 108.7 . . ?
N2A C6A H6AB 108.7 . . ?
C5A C6A H6AB 108.7 . . ?
H6AA C6A H6AB 107.6 . . ?
N1A C7A N2A 114.0(13) . . ?
N1A C7A C10A 117.8(14) . . ?
N2A C7A C10A 128.2(14) . . ?
N2A C8A C9A 106.8(12) . . ?
N2A C8A H8AA 126.6 . . ?
C9A C8A H8AA 126.6 . . ?
C8A C9A N1A 108.9(11) . . ?
C8A C9A H9AA 125.5 . . ?
N1A C9A H9AA 125.5 . . ?
N3A C10A C7A 106.8(13) . . ?
N3A C10A H10A 126.6 . . ?
C7A C10A H10A 126.6 . . ?
C1A C2B O1B 112.4(15) . . ?
C1A C2B C3B 116.2(15) . . ?
O1B C2B C3B 131.1(15) . . ?
C4A C3B C2B 118.5(15) . . ?
C4A C3B H3BA 120.7 . . ?
C2B C3B H3BA 120.7 . . ?
O1B C5B C6B 113.7(17) . . ?
O1B C5B H5BA 108.8 . . ?
C6B C5B H5BA 108.8 . . ?
O1B C5B H5BB 108.8 . . ?
C6B C5B H5BB 108.8 . . ?
H5BA C5B H5BB 107.7 . . ?
C5B C6B N2B 113.8(16) . . ?
C5B C6B H6BA 108.8 . . ?
N2B C6B H6BA 108.8 . . ?
C5B C6B H6BB 108.8 . . ?
N2B C6B H6BB 108.8 . . ?
H6BA C6B H6BB 107.7 . . ?
N1B C7B N2B 104.1(13) . . ?
N1B C7B C10B 118.9(14) . . ?
N2B C7B C10B 137.0(15) . . ?
C9B C8B N2B 100.3(16) . . ?
C9B C8B H8BA 129.9 . . ?
N2B C8B H8BA 129.9 . . ?
C8B C9B N1B 115.9(15) . . ?
C8B C9B H9BA 122.1 . . ?
N1B C9B H9BA 122.1 . . ?
N3B C10B C7B 111.2(13) . . ?
N3B C10B H10B 124.4 . . ?
C7B C10B H10B 124.4 . . ?
C12B C11B N3B 110.0(13) . . ?
C12B C11B C19B 113.3(14) . . ?
N3B C11B C19B 114.0(14) . . ?
C12B C11B H11A 106.3 . . ?
N3B C11B H11A 106.3 . . ?
C19B C11B H11A 106.3 . . ?
C17B C12B C13B 119.1(15) . . ?
C17B C12B C11B 122.3(16) . . ?
C13B C12B C11B 118.4(16) . . ?
C12B C13B C14B 119.5(15) . . ?
C12B C13B H13A 120.2 . . ?
C14B C13B H13A 120.2 . . ?
C15B C14B C13B 120.9(16) . . ?
C15B C14B H14A 119.6 . . ?
C13B C14B H14A 119.6 . . ?
O2B C15B C14B 127.1(17) . . ?
O2B C15B C16B 114.6(18) . . ?
C14B C15B C16B 118.3(18) . . ?
C15B C16B C17B 118.7(16) . . ?
C15B C16B H16A 120.7 . . ?
C17B C16B H16A 120.7 . . ?
C12B C17B C16B 123.2(15) . . ?
C12B C17B H17A 118.4 . . ?
C16B C17B H17A 118.4 . . ?
O2B C18B H18A 109.5 . . ?
O2B C18B H18B 109.5 . . ?
H18A C18B H18B 109.5 . . ?
O2B C18B H18C 109.5 . . ?
H18A C18B H18C 109.5 . . ?
H18B C18B H18C 109.5 . . ?
C11B C19B H19A 109.5 . . ?
C11B C19B H19B 109.5 . . ?
H19A C19B H19B 109.5 . . ?
C11B C19B H19C 109.5 . . ?
H19A C19B H19C 109.5 . . ?
H19B C19B H19C 109.5 . . ?
C2C C1C C2C 121(2) . 6_566 ?
C2C C1C H1C 119.6 . . ?
C2C C1C H1C 119.6 6_566 . ?
C3C C2C C1C 118.6(15) . . ?
C3C C2C O1C 129.6(14) . . ?
C1C C2C O1C 111.4(14) . . ?
C4C C3C C2C 119.3(16) . . ?
C4C C3C H3CA 120.4 . . ?
C2C C3C H3CA 120.4 . . ?
C3C C4C C3C 123(2) . 6_566 ?
C3C C4C H4C 118.3 . . ?
C3C C4C H4C 118.3 6_566 . ?
O1C C5C C6C 105.4(11) . . ?
O1C C5C H5CA 110.7 . . ?
C6C C5C H5CA 110.7 . . ?
O1C C5C H5CB 110.7 . . ?
C6C C5C H5CB 110.7 . . ?
H5CA C5C H5CB 108.8 . . ?
N2C C6C C5C 114.3(12) . . ?
N2C C6C H6CA 108.7 . . ?
C5C C6C H6CA 108.7 . . ?
N2C C6C H6CB 108.7 . . ?
C5C C6C H6CB 108.7 . . ?
H6CA C6C H6CB 107.6 . . ?
N1C C7C N2C 110.3(12) . . ?
N1C C7C C10C 121.3(15) . . ?
N2C C7C C10C 128.3(15) . . ?
N2C C8C C9C 111.0(14) . . ?
N2C C8C H8CA 124.5 . . ?
C9C C8C H8CA 124.5 . . ?
N1C C9C C8C 102.6(13) . . ?
N1C C9C H9CA 128.7 . . ?
C8C C9C H9CA 128.7 . . ?
N3C C10C C7C 106.8(13) . . ?
N3C C10C H10C 126.6 . . ?
C7C C10C H10C 126.6 . . ?
C12C C11C C19C 108.6(13) . . ?
C12C C11C N3C 107.8(12) . . ?
C19C C11C N3C 112.0(13) . . ?
C12C C11C H11B 109.5 . . ?
C19C C11C H11B 109.5 . . ?
N3C C11C H11B 109.5 . . ?
C13C C12C C17C 114.9(15) . . ?
C13C C12C C11C 121.3(16) . . ?
C17C C12C C11C 123.6(14) . . ?
C14C C13C C12C 124.3(17) . . ?
C14C C13C H13B 117.8 . . ?
C12C C13C H13B 117.8 . . ?
C13C C14C C15C 122.6(19) . . ?
C13C C14C H14B 118.7 . . ?
C15C C14C H14B 118.7 . . ?
C14C C15C O2C 134(2) . . ?
C14C C15C C16C 115(2) . . ?
O2C C15C C16C 110(2) . . ?
C17C C16C C15C 120.6(19) . . ?
C17C C16C H16B 119.7 . . ?
C15C C16C H16B 119.7 . . ?
C16C C17C C12C 121.3(16) . . ?
C16C C17C H17B 119.4 . . ?
C12C C17C H17B 119.4 . . ?
O2C C18C H18D 109.5 . . ?
O2C C18C H18E 109.5 . . ?
H18D C18C H18E 109.5 . . ?
O2C C18C H18F 109.5 . . ?
H18D C18C H18F 109.5 . . ?
H18E C18C H18F 109.5 . . ?
C11C C19C H19D 109.5 . . ?
C11C C19C H19E 109.5 . . ?
H19D C19C H19E 109.5 . . ?
C11C C19C H19F 109.5 . . ?
H19D C19C H19F 109.5 . . ?
H19E C19C H19F 109.5 . . ?
N1A Fe1 N1C 92.1(4) . . ?
N1A Fe1 N3A 79.4(5) . . ?
N1C Fe1 N3A 170.3(5) . . ?
N1A Fe1 N3C 91.3(5) . . ?
N1C Fe1 N3C 80.5(5) . . ?
N3A Fe1 N3C 94.9(5) . . ?
N1A Fe1 N1B 93.3(5) . 3_655 ?
N1C Fe1 N1B 91.7(5) . 3_655 ?
N3A Fe1 N1B 93.4(5) . 3_655 ?
N3C Fe1 N1B 171.1(5) . 3_655 ?
N1A Fe1 N3B 171.7(5) . 3_655 ?
N1C Fe1 N3B 90.9(4) . 3_655 ?
N3A Fe1 N3B 98.2(5) . 3_655 ?
N3C Fe1 N3B 96.8(5) . 3_655 ?
N1B Fe1 N3B 78.9(5) 3_655 3_655 ?
C7A N1A C9A 105.7(11) . . ?
C7A N1A Fe1 116.1(10) . . ?
C9A N1A Fe1 138.2(9) . . ?
C8A N2A C7A 104.4(12) . . ?
C8A N2A C6A 130.6(12) . . ?
C7A N2A C6A 124.5(12) . . ?
C10A N3A C11A 111(2) . . ?
C10A N3A C11Z 116.8(18) . . ?
C10A N3A Fe1 119.9(9) . . ?
C11A N3A Fe1 129(2) . . ?
C11Z N3A Fe1 121.7(16) . . ?
C7B N1B C9B 106.3(12) . . ?
C7B N1B Fe1 112.6(11) . 4_565 ?
C9B N1B Fe1 141.0(11) . 4_565 ?
C7B N2B C8B 113.1(15) . . ?
C7B N2B C6B 126.9(16) . . ?
C8B N2B C6B 119.7(17) . . ?
C10B N3B C11B 116.1(13) . . ?
C10B N3B Fe1 118.3(10) . 4_565 ?
C11B N3B Fe1 125.4(10) . 4_565 ?
C7C N1C C9C 111.1(12) . . ?
C7C N1C Fe1 112.1(10) . . ?
C9C N1C Fe1 136.7(10) . . ?
C8C N2C C7C 104.9(12) . . ?
C8C N2C C6C 127.4(13) . . ?
C7C N2C C6C 127.7(13) . . ?
C10C N3C C11C 117.0(12) . . ?
C10C N3C Fe1 119.2(10) . . ?
C11C N3C Fe1 123.7(9) . . ?
C2A O1A C5A 114.6(11) . . ?
C5B O1B C2B 117.1(16) . . ?
C15B O2B C18B 113.7(17) . . ?
C2C O1C C5C 115.8(12) . . ?
C18C O2C C15C 104.6(17) . . ?
C12A C11A N3A 113.6(16) . . ?
C12A C11A C19A 113(2) . . ?
N3A C11A C19A 116(2) . . ?
C12A C11A H11C 104.3 . . ?
N3A C11A H11C 104.3 . . ?
C19A C11A H11C 104.3 . . ?
C13A C12A C17A 123(2) . . ?
C13A C12A C11A 121.1(18) . . ?
C17A C12A C11A 115.9(18) . . ?
C12A C13A C14A 120(2) . . ?
C12A C13A H13C 120.1 . . ?
C14A C13A H13C 120.1 . . ?
C15A C14A C13A 117(2) . . ?
C15A C14A H14C 121.4 . . ?
C13A C14A H14C 121.4 . . ?
C14A C15A O2A 121.7(19) . . ?
C14A C15A C16A 122(3) . . ?
O2A C15A C16A 116.5(19) . . ?
C15A C16A C17A 122(2) . . ?
C15A C16A H16C 119.2 . . ?
C17A C16A H16C 119.2 . . ?
C12A C17A C16A 116(2) . . ?
C12A C17A H17C 122.0 . . ?
C16A C17A H17C 122.0 . . ?
C15A O2A C18A 110(3) . . ?
O2A C18A H18G 109.5 . . ?
O2A C18A H18H 109.5 . . ?
H18G C18A H18H 109.5 . . ?
O2A C18A H18I 109.5 . . ?
H18G C18A H18I 109.5 . . ?
H18H C18A H18I 109.5 . . ?
C11A C19A H19G 109.5 . . ?
C11A C19A H19H 109.5 . . ?
H19G C19A H19H 109.5 . . ?
C11A C19A H19I 109.5 . . ?
H19G C19A H19I 109.5 . . ?
H19H C19A H19I 109.5 . . ?
C12Z C11Z N3A 113.3(14) . . ?
C12Z C11Z C19Z 109.9(17) . . ?
N3A C11Z C19Z 110.9(17) . . ?
C12Z C11Z H11D 107.5 . . ?
N3A C11Z H11D 107.5 . . ?
C19Z C11Z H11D 107.5 . . ?
C13Z C12Z C17Z 121(2) . . ?
C13Z C12Z C11Z 120.8(16) . . ?
C17Z C12Z C11Z 118.1(16) . . ?
C12Z C13Z C14Z 119(2) . . ?
C12Z C13Z H13D 120.6 . . ?
C14Z C13Z H13D 120.6 . . ?
C15Z C14Z C13Z 121(2) . . ?
C15Z C14Z H14D 119.7 . . ?
C13Z C14Z H14D 119.7 . . ?
C16Z C15Z C14Z 120(2) . . ?
C16Z C15Z O2Z 122.6(18) . . ?
C14Z C15Z O2Z 117.0(18) . . ?
C15Z C16Z C17Z 120(2) . . ?
C15Z C16Z H16D 119.9 . . ?
C17Z C16Z H16D 119.9 . . ?
C12Z C17Z C16Z 119(2) . . ?
C12Z C17Z H17E 120.6 . . ?
C16Z C17Z H17E 120.6 . . ?
C18Z O2Z C15Z 123(3) . . ?
O2Z C18Z H18J 109.5 . . ?
O2Z C18Z H18K 109.5 . . ?
H18J C18Z H18K 109.5 . . ?
O2Z C18Z H18L 109.5 . . ?
H18J C18Z H18L 109.5 . . ?
H18K C18Z H18L 109.5 . . ?
C11Z C19Z H19J 109.5 . . ?
C11Z C19Z H19K 109.5 . . ?
H19J C19Z H19K 109.5 . . ?
C11Z C19Z H19L 109.5 . . ?
H19J C19Z H19L 109.5 . . ?
H19K C19Z H19L 109.5 . . ?
loop_
_geom_bond_atom_site_label_1
_geom_bond_atom_site_label_2
_geom_bond_distance
_geom_bond_site_symmetry_2
_geom_bond_publ_flag
C1A C2B 1.399(19) . ?
C1A C2A 1.447(19) . ?
C1A H1AA 0.9500 . ?
C2A C3A 1.335(19) . ?
C2A O1A 1.356(16) . ?
C3A C4A 1.39(2) . ?
C3A H3AA 0.9500 . ?
C4A C3B 1.273(19) . ?
C4A H4AA 0.9500 . ?
C5A C6A 1.476(18) . ?
C5A O1A 1.494(15) . ?
C5A H5AA 0.9900 . ?
C5A H5AB 0.9900 . ?
C6A N2A 1.437(16) . ?
C6A H6AA 0.9900 . ?
C6A H6AB 0.9900 . ?
C7A N1A 1.270(15) . ?
C7A N2A 1.420(16) . ?
C7A C10A 1.448(18) . ?
C8A N2A 1.383(16) . ?
C8A C9A 1.398(18) . ?
C8A H8AA 0.9500 . ?
C9A N1A 1.414(15) . ?
C9A H9AA 0.9500 . ?
C10A N3A 1.308(16) . ?
C10A H10A 0.9500 . ?
C2B O1B 1.44(2) . ?
C2B C3B 1.53(2) . ?
C3B H3BA 0.9500 . ?
C5B O1B 1.41(2) . ?
C5B C6B 1.41(2) . ?
C5B H5BA 0.9900 . ?
C5B H5BB 0.9900 . ?
C6B N2B 1.58(2) . ?
C6B H6BA 0.9900 . ?
C6B H6BB 0.9900 . ?
C7B N1B 1.316(16) . ?
C7B N2B 1.345(17) . ?
C7B C10B 1.395(19) . ?
C8B C9B 1.238(19) . ?
C8B N2B 1.405(19) . ?
C8B H8BA 0.9500 . ?
C9B N1B 1.379(16) . ?
C9B H9BA 0.9500 . ?
C10B N3B 1.266(16) . ?
C10B H10B 0.9500 . ?
C11B C12B 1.49(2) . ?
C11B N3B 1.513(18) . ?
C11B C19B 1.53(2) . ?
C11B H11A 1.0000 . ?
C12B C17B 1.328(19) . ?
C12B C13B 1.354(19) . ?
C13B C14B 1.42(2) . ?
C13B H13A 0.9500 . ?
C14B C15B 1.36(2) . ?
C14B H14A 0.9500 . ?
C15B O2B 1.30(2) . ?
C15B C16B 1.39(2) . ?
C16B C17B 1.398(19) . ?
C16B H16A 0.9500 . ?
C17B H17A 0.9500 . ?
C18B O2B 1.37(3) . ?
C18B H18A 0.9800 . ?
C18B H18B 0.9800 . ?
C18B H18C 0.9800 . ?
C19B H19A 0.9800 . ?
C19B H19B 0.9800 . ?
C19B H19C 0.9800 . ?
C1C C2C 1.384(16) . ?
C1C C2C 1.384(16) 6_566 ?
C1C H1C 0.9500 . ?
C2C C3C 1.343(19) . ?
C2C O1C 1.427(17) . ?
C3C C4C 1.341(18) . ?
C3C H3CA 0.9500 . ?
C4C C3C 1.341(18) 6_566 ?
C4C H4C 0.9500 . ?
C5C O1C 1.467(16) . ?
C5C C6C 1.527(17) . ?
C5C H5CA 0.9900 . ?
C5C H5CB 0.9900 . ?
C6C N2C 1.449(17) . ?
C6C H6CA 0.9900 . ?
C6C H6CB 0.9900 . ?
C7C N1C 1.300(16) . ?
C7C N2C 1.423(18) . ?
C7C C10C 1.425(18) . ?
C8C N2C 1.287(17) . ?
C8C C9C 1.477(19) . ?
C8C H8CA 0.9500 . ?
C9C N1C 1.345(15) . ?
C9C H9CA 0.9500 . ?
C10C N3C 1.306(15) . ?
C10C H10C 0.9500 . ?
C11C C12C 1.50(2) . ?
C11C C19C 1.54(2) . ?
C11C N3C 1.542(17) . ?
C11C H11B 1.0000 . ?
C12C C13C 1.37(2) . ?
C12C C17C 1.49(2) . ?
C13C C14C 1.31(2) . ?
C13C H13B 0.9500 . ?
C14C C15C 1.32(3) . ?
C14C H14B 0.9500 . ?
C15C O2C 1.45(3) . ?
C15C C16C 1.54(2) . ?
C16C C17C 1.248(19) . ?
C16C H16B 0.9500 . ?
C17C H17B 0.9500 . ?
C18C O2C 1.36(2) . ?
C18C H18D 0.9800 . ?
C18C H18E 0.9800 . ?
C18C H18F 0.9800 . ?
C19C H19D 0.9800 . ?
C19C H19E 0.9800 . ?
C19C H19F 0.9800 . ?
Fe1 N1A 1.879(10) . ?
Fe1 N1C 1.906(10) . ?
Fe1 N3A 1.911(10) . ?
Fe1 N3C 1.932(11) . ?
Fe1 N1B 1.948(11) 3_655 ?
Fe1 N3B 1.969(11) 3_655 ?
N3A C11A 1.54(2) . ?
N3A C11Z 1.57(2) . ?
N1B Fe1 1.948(11) 4_565 ?
N3B Fe1 1.969(11) 4_565 ?
C11A C12A 1.51(2) . ?
C11A C19A 1.56(2) . ?
C11A H11C 1.0000 . ?
C12A C13A 1.36(2) . ?
C12A C17A 1.39(2) . ?
C13A C14A 1.46(3) . ?
C13A H13C 0.9500 . ?
C14A C15A 1.36(2) . ?
C14A H14C 0.9500 . ?
C15A O2A 1.37(2) . ?
C15A C16A 1.38(2) . ?
C16A C17A 1.43(3) . ?
C16A H16C 0.9500 . ?
C17A H17C 0.9500 . ?
O2A C18A 1.45(3) . ?
C18A H18G 0.9800 . ?
C18A H18H 0.9800 . ?
C18A H18I 0.9800 . ?
C19A H19G 0.9800 . ?
C19A H19H 0.9800 . ?
C19A H19I 0.9800 . ?
C11Z C12Z 1.51(2) . ?
C11Z C19Z 1.60(2) . ?
C11Z H11D 1.0000 . ?
C12Z C13Z 1.36(2) . ?
C12Z C17Z 1.39(2) . ?
C13Z C14Z 1.44(2) . ?
C13Z H13D 0.9500 . ?
C14Z C15Z 1.38(2) . ?
C14Z H14D 0.9500 . ?
C15Z C16Z 1.35(2) . ?
C15Z O2Z 1.39(2) . ?
C16Z C17Z 1.46(3) . ?
C16Z H16D 0.9500 . ?
C17Z H17E 0.9500 . ?
O2Z C18Z 1.37(2) . ?
C18Z H18J 0.9800 . ?
C18Z H18K 0.9800 . ?
C18Z H18L 0.9800 . ?
C19Z H19J 0.9800 . ?
C19Z H19K 0.9800 . ?
C19Z H19L 0.9800 . ?
