#------------------------------------------------------------------------------
#$Date: 2020-04-05 13:49:24 +0300 (Sun, 05 Apr 2020) $
#$Revision: 250287 $
#$URL: file:///home/coder/svn-repositories/cod/cif/7/70/36/7703627.cif $
#------------------------------------------------------------------------------
#
# This file is available in the Crystallography Open Database (COD),
# http://www.crystallography.net/
#
# All data on this site have been placed in the public domain by the
# contributors.
#
data_7703627
loop_
_publ_author_name
'Kharwar, Ajit Kumar'
'Konar, Sanjit'
_publ_section_title
;
 Exchange coupled Co(ii) based layered and porous metal-organic
 frameworks: structural diversity, gas adsorption, and magnetic
 properties.
;
_journal_issue                   13
_journal_name_full
'Dalton transactions (Cambridge, England : 2003)'
_journal_page_first              4012
_journal_page_last               4021
_journal_paper_doi               10.1039/d0dt00211a
_journal_volume                  49
_journal_year                    2020
_chemical_formula_moiety
'C23 H18.5 Co1.5 N2.5 O7.5 S1.5, C H1.5 N0.25'
_chemical_formula_sum            'C24 H20 Co1.5 N2.75 O7.5 S1.5'
_chemical_formula_weight         603.41
_space_group_crystal_system      monoclinic
_space_group_IT_number           11
_space_group_name_Hall           '-P 2yb'
_space_group_name_H-M_alt        'P 1 21/m 1'
_atom_sites_solution_hydrogens   geom
_atom_sites_solution_primary     iterative
_audit_creation_date             2019-09-07
_audit_creation_method
;
Olex2 1.2
(compiled 2018.05.29 svn.r3508 for OlexSys, GUI svn.r5506)
;
_audit_update_record
;
2019-09-07 deposited with the CCDC.	2020-02-28 downloaded from the CCDC.
;
_cell_angle_alpha                90
_cell_angle_beta                 105.926(2)
_cell_angle_gamma                90
_cell_formula_units_Z            4
_cell_length_a                   9.8382(6)
_cell_length_b                   22.0240(15)
_cell_length_c                   13.1803(9)
_cell_measurement_reflns_used    9989
_cell_measurement_temperature    147(2)
_cell_measurement_theta_max      25.07
_cell_measurement_theta_min      2.34
_cell_volume                     2746.2(3)
_computing_molecular_graphics    'Olex2 (Dolomanov et al., 2009)'
_computing_publication_material  'Olex2 (Dolomanov et al., 2009)'
_computing_structure_refinement  'ShelXL (Sheldrick, 2015)'
_computing_structure_solution    'olex2.solve (Bourhis et al., 2015)'
_diffrn_ambient_temperature      147.53
_diffrn_measured_fraction_theta_full 0.997
_diffrn_measured_fraction_theta_max 0.997
_diffrn_measurement_device_type  'Bruker APEX-II CCD'
_diffrn_measurement_method       '\f and \w scans'
_diffrn_radiation_type           MoK\a
_diffrn_radiation_wavelength     0.71073
_diffrn_reflns_av_R_equivalents  0.0729
_diffrn_reflns_av_unetI/netI     0.0295
_diffrn_reflns_Laue_measured_fraction_full 0.997
_diffrn_reflns_Laue_measured_fraction_max 0.997
_diffrn_reflns_limit_h_max       11
_diffrn_reflns_limit_h_min       -11
_diffrn_reflns_limit_k_max       26
_diffrn_reflns_limit_k_min       -26
_diffrn_reflns_limit_l_max       15
_diffrn_reflns_limit_l_min       -15
_diffrn_reflns_number            60653
_diffrn_reflns_point_group_measured_fraction_full 0.997
_diffrn_reflns_point_group_measured_fraction_max 0.997
_diffrn_reflns_theta_full        25.111
_diffrn_reflns_theta_max         25.111
_diffrn_reflns_theta_min         2.306
_exptl_absorpt_coefficient_mu    1.078
_exptl_absorpt_correction_T_max  0.571
_exptl_absorpt_correction_T_min  0.421
_exptl_absorpt_correction_type   multi-scan
_exptl_crystal_colour            pink
_exptl_crystal_density_diffrn    1.459
_exptl_crystal_description       pink
_exptl_crystal_F_000             1231
_exptl_crystal_size_max          0.82
_exptl_crystal_size_mid          0.67
_exptl_crystal_size_min          0.52
_refine_diff_density_max         0.614
_refine_diff_density_min         -0.724
_refine_diff_density_rms         0.077
_refine_ls_extinction_method     none
_refine_ls_goodness_of_fit_ref   1.053
_refine_ls_hydrogen_treatment    constr
_refine_ls_matrix_type           full
_refine_ls_number_parameters     388
_refine_ls_number_reflns         5022
_refine_ls_number_restraints     58
_refine_ls_restrained_S_all      1.066
_refine_ls_R_factor_all          0.0462
_refine_ls_R_factor_gt           0.0358
_refine_ls_shift/su_max          0.001
_refine_ls_shift/su_mean         0.000
_refine_ls_structure_factor_coef Fsqd
_refine_ls_weighting_details
'w=1/[\s^2^(Fo^2^)+(0.0362P)^2^+5.4589P] where P=(Fo^2^+2Fc^2^)/3'
_refine_ls_weighting_scheme      calc
_refine_ls_wR_factor_gt          0.0844
_refine_ls_wR_factor_ref         0.0886
_reflns_Friedel_coverage         0.000
_reflns_number_gt                4228
_reflns_number_total             5022
_reflns_threshold_expression     'I > 2\s(I)'
_cod_data_source_file            d0dt00211a2.cif
_cod_data_source_block           1
_cod_depositor_comments
'Adding full bibliography for 7703626--7703629.cif.'
_cod_original_formula_sum        'C24 H20 Co1.50 N2.75 O7.50 S1.50'
_cod_database_code               7703627
_shelx_shelxl_version_number     2016/6
_shelx_space_group_comment
;
The symmetry employed for this shelxl refinement is uniquely defined
by the following loop, which should always be used as a source of
symmetry information in preference to the above space-group names.
They are only intended as comments.
;
_olex2_refinement_description
;
1. Fixed Uiso
 At 1.2 times of:
  All C(H) groups
 At 1.5 times of:
  All C(H,H,H) groups
2. Restrained distances
 N4-C16_$1
 1.3 with sigma of 0.01
 N2-C10 \\sim N2-C12 \\sim N2-C11
 with sigma of 0.001
3. Uiso/Uaniso restraints and constraints
Uanis(C15) \\sim Ueq: with sigma of 0.001 and sigma for terminal atoms of 0.002
4. Rigid body (RIGU) restrains
 N2, C10, C12, C11, O1
 with sigma for 1-2 distances of 0.0001 and sigma for 1-3 distances of 0.0001
 O1, C13, N3, C14, C15
 with sigma for 1-2 distances of 0.001 and sigma for 1-3 distances of 0.001
5. Others
 Fixed Sof: C13(0.5) H13(0.5) N2(0.5) C10(0.5) H10(0.5) C12(0.5) H12A(0.5)
 H12B(0.5) H12C(0.5) C11(0.5) H11A(0.5) H11B(0.5) H11C(0.5) C14(0.5) H14A(0.5)
 H14B(0.5) H14C(0.5) N3(0.5) C15(0.5) H15A(0.5) H15B(0.5) H15C(0.5) C30(0.5)
 H30A(0.5) H30B(0.5) H30C(0.5) N4(0.25) C16(0.5) C17(0.5) H17A(0.5) H17B(0.5)
 H17C(0.5)
 Fixed Uiso: N4(0.1) C16(0.1) C17(0.1)
 Fixed X: N4(0.5)
 Fixed Y: N4(0.5)
 Fixed Z: N4(0.5)
6.a Aromatic/amide H refined with riding coordinates:
 C4(H4), C27(H27), C3(H3), C18(H18), C24(H24), C22(H22), C19(H19), C9(H9),
 C28(H28), C21(H21), C13(H13), C10(H10)
6.b Idealised Me refined as rotating group:
 C12(H12A,H12B,H12C), C11(H11A,H11B,H11C), C14(H14A,H14B,H14C), C15(H15A,H15B,
 H15C), C30(H30A,H30B,H30C), C17(H17A,H17B,H17C)
;
_smtbx_masks_special_details
;
A solvent mask was calculated and 106 electrons were 
found in a volume of 406\%A^3 in 1 void. 
This is consistent with the presence of 
0.5[C2H3N], 1[C3H7NO] per formula unit 
which account for 102 electrons.
;
_shelx_res_file
;
TITL AJTR2_a.res in P2(1)/m
    ajtr2.res
    created by SHELXL-2016/6 at 15:32:04 on 07-Sep-2019
CELL 0.71073 9.8382 22.024 13.1803 90 105.926 90
ZERR 4 0.0006 0.0015 0.0009 0 0.002 0
LATT 1
SYMM -X,0.5+Y,-Z
SFAC C H Co N O S
UNIT 96 80 6 11 30 6
EQIV $1 1-X,1-Y,1-Z
DFIX 1.3 0.01 N4 C16_$1
SADI 0.001 N2 C10 N2 C12 N2 C11
RIGU 0.0001 0.0001 N2 C10 C12 C11 O1
RIGU 0.001 0.001 O1 C13 N3 C14 C15
ISOR 0.001 0.002 C15

L.S. 4
PLAN  10
TEMP -125.62
ABIN
fmap 2
acta
OMIT 1 2 0
REM <olex2.extras>
REM <HklSrc "%.\\ajtr2.hkl">
REM </olex2.extras>

WGHT    0.036200    5.458900
FVAR       0.32993
CO1   3    0.000000    0.500000    0.000000    10.50000    0.00825    0.00491 =
         0.00890   -0.00112    0.00381   -0.00025
CO2   3    0.112241    0.547089    0.257385    11.00000    0.01021    0.00754 =
         0.00951    0.00024    0.00412   -0.00016
S1    6    0.102520    0.750000    0.131984    10.50000    0.01836    0.00707 =
         0.00863    0.00000    0.00441    0.00000
S2    6    0.584090    0.531604    0.208738    11.00000    0.00994    0.02076 =
         0.01683   -0.00691    0.00611   -0.00134
O7    5    0.890769    0.558414    0.261353    11.00000    0.01305    0.01671 =
         0.01282   -0.00446    0.00462   -0.00116
O6    5    0.944256    0.501429    0.142177    11.00000    0.01060    0.01172 =
         0.00942    0.00016    0.00422    0.00082
O5    5    0.063164    0.589468    0.006752    11.00000    0.01905    0.00671 =
         0.01447   -0.00301    0.00754   -0.00192
O3    5    0.208541    0.467867    0.077186    11.00000    0.00834    0.01411 =
         0.01680    0.00002    0.00337   -0.00001
O1    5    0.198784    0.594414    0.396329    11.00000    0.02090    0.02002 =
         0.02165   -0.00617    0.00247   -0.00408
O2    5    0.294609    0.525004    0.222099    11.00000    0.01032    0.01945 =
         0.01548   -0.00397    0.00488    0.00016
O4    5    0.095981    0.624437    0.172265    11.00000    0.02460    0.00805 =
         0.01433    0.00126    0.00742    0.00070
N1    4    0.120077    0.465375    0.345484    11.00000    0.01333    0.01268 =
         0.01426    0.00127    0.00265    0.00061
N5    4    0.131309    0.250000    0.472635    10.50000    0.01595    0.01036 =
         0.01310    0.00000    0.00491    0.00000
C4    1    0.652535    0.450220    0.092213    11.00000    0.01490    0.01538 =
         0.01471    0.00095    0.00763    0.00346
AFIX  43
H4    2    0.705675    0.425663    0.057748    11.00000   -1.20000
AFIX   0
C5    1    0.707978    0.497654    0.157000    11.00000    0.01015    0.01776 =
         0.01134    0.00062    0.00469    0.00318
O8    5    0.287835    0.250000    1.138347    10.50000    0.03758    0.09906 =
         0.01169    0.00000    0.00355    0.00000
C7    1    0.081540    0.630596    0.074552    11.00000    0.01113    0.00778 =
         0.01457    0.00107    0.00480    0.00178
C26   1    0.215615    0.250000    0.811254    10.50000    0.01293    0.01656 =
         0.01206    0.00000    0.00516    0.00000
C8    1    0.086154    0.694304    0.038367    11.00000    0.01786    0.00874 =
         0.01408   -0.00316    0.00572   -0.00073
C23   1    0.143835    0.302043    0.527117    11.00000    0.01523    0.01045 =
         0.01335    0.00178    0.00424    0.00106
C6    1    0.853754    0.521148    0.187224    11.00000    0.01065    0.01046 =
         0.00922    0.00340    0.00280    0.00223
C1    1    0.306706    0.492243    0.146339    11.00000    0.01031    0.01247 =
         0.01504    0.00426    0.00560    0.00010
C2    1    0.454602    0.482679    0.140357    11.00000    0.01046    0.01655 =
         0.01109    0.00021    0.00343   -0.00056
C25   1    0.184108    0.250000    0.694295    10.50000    0.00982    0.01416 =
         0.01186    0.00000    0.00304    0.00000
C27   1    0.228197    0.304236    0.868437    11.00000    0.02315    0.01530 =
         0.01592   -0.00087    0.00527   -0.00436
AFIX  43
H27   2    0.220085    0.341792    0.831803    11.00000   -1.20000
AFIX   0
C3    1    0.506768    0.441783    0.082228    11.00000    0.01218    0.01528 =
         0.01565   -0.00046    0.00342   -0.00266
AFIX  43
H3    2    0.451107    0.411064    0.039779    11.00000   -1.20000
AFIX   0
C20   1    0.132524    0.358761    0.464160    11.00000    0.01643    0.01186 =
         0.01292    0.00054    0.00286   -0.00122
C18   1    0.127808    0.466755    0.447951    11.00000    0.02980    0.01069 =
         0.01786    0.00063    0.01266    0.00376
AFIX  43
H18   2    0.129364    0.505245    0.480787    11.00000   -1.20000
AFIX   0
C24   1    0.169736    0.303663    0.636744    11.00000    0.02108    0.00858 =
         0.01554   -0.00119    0.00513   -0.00003
AFIX  43
H24   2    0.177566    0.341614    0.672140    11.00000   -1.20000
AFIX   0
C22   1    0.115694    0.410472    0.301586    11.00000    0.04387    0.01634 =
         0.01144    0.00156    0.00344   -0.00398
AFIX  43
H22   2    0.108250    0.408111    0.228291    11.00000   -1.20000
AFIX   0
C19   1    0.133661    0.415650    0.508888    11.00000    0.03189    0.01624 =
         0.01648    0.00086    0.01338    0.00317
AFIX  43
H19   2    0.138479    0.419393    0.581597    11.00000   -1.20000
AFIX   0
C9    1    0.069060    0.717825   -0.060217    11.00000    0.02833    0.01325 =
         0.01288   -0.00235    0.00664    0.00076
AFIX  43
H9    2    0.058387    0.693795   -0.121768    11.00000   -1.20000
AFIX   0
C28   1    0.252204    0.304612    0.977210    11.00000    0.02857    0.02714 =
         0.01551   -0.00827    0.00789   -0.00912
AFIX  43
H28   2    0.259667    0.342039    1.014170    11.00000   -1.20000
AFIX   0
C21   1    0.121409    0.357156    0.357084    11.00000    0.04980    0.01074 =
         0.01392   -0.00133    0.00278   -0.00730
AFIX  43
H21   2    0.117734    0.319265    0.321990    11.00000   -1.20000
AFIX   0
C29   1    0.265279    0.250000    1.031826    10.50000    0.02403    0.03738 =
         0.01205    0.00000    0.00436    0.00000
PART -2
C13   1    0.325972    0.588181    0.441719    10.50000    0.02197    0.03486 =
         0.02317    0.00245    0.00490   -0.00408
AFIX  43
H13   2    0.389322    0.578344    0.401241    10.50000   -1.20000
AFIX   0
PART 0
PART -1
N2    4    0.217766    0.681589    0.497443    10.50000    0.03030    0.02242 =
         0.03615   -0.01083    0.00705   -0.00028
C10   1    0.185852    0.651435    0.403825    10.50000    0.01810    0.01987 =
         0.03458   -0.00802    0.01022   -0.00606
AFIX  43
H10   2    0.152116    0.674255    0.340749    10.50000   -1.20000
AFIX   0
C12   1    0.260571    0.653171    0.592556    10.50000    0.13817    0.02932 =
         0.03541   -0.01022    0.00621    0.01346
AFIX 137
H12A  2    0.251842    0.609133    0.582157    10.50000   -1.50000
H12B  2    0.201301    0.666343    0.637286    10.50000   -1.50000
H12C  2    0.359401    0.663568    0.626738    10.50000   -1.50000
AFIX   0
C11   1    0.206754    0.743158    0.496871    10.50000    0.04392    0.02225 =
         0.04508   -0.01186    0.00860    0.00019
AFIX 137
H11A  2    0.301365    0.761120    0.520227    10.50000   -1.50000
H11B  2    0.151288    0.755626    0.544751    10.50000   -1.50000
H11C  2    0.159674    0.757090    0.425224    10.50000   -1.50000
AFIX   0
PART 0
PART -2
C14   1    0.286351    0.609079    0.613523    10.50000    0.03911    0.03814 =
         0.01630    0.00519    0.00224   -0.00016
AFIX 137
H14A  2    0.189253    0.615656    0.570180    10.50000   -1.50000
H14B  2    0.321056    0.645932    0.654033    10.50000   -1.50000
H14C  2    0.288152    0.575209    0.662098    10.50000   -1.50000
AFIX   0
N3    4    0.376437    0.594863    0.545517    10.50000    0.03068    0.04122 =
         0.02282    0.00158    0.00124   -0.00730
C15   1    0.533323    0.587272    0.600350    10.50000    0.03344    0.03961 =
         0.03923    0.00473    0.00323   -0.00138
AFIX 137
H15A  2    0.549676    0.547354    0.634385    10.50000   -1.50000
H15B  2    0.563870    0.619089    0.653735    10.50000   -1.50000
H15C  2    0.587356    0.590488    0.548208    10.50000   -1.50000
AFIX   0
PART 0
PART -1
C30   1    0.320970    0.294060    1.200276    10.50000    0.05750    0.04978 =
         0.01515   -0.01129    0.01039   -0.01060
AFIX 137
H30A  2    0.407208    0.313027    1.191627    10.50000   -1.50000
H30B  2    0.337610    0.279784    1.273086    10.50000   -1.50000
H30C  2    0.244023    0.323850    1.184579    10.50000   -1.50000
AFIX   0

PART 0
PART 3
N4    4   10.500000   10.500000   10.500000    10.25000   10.10000
C16   1    0.475593    0.446036    0.456997    10.50000   10.10000
C17   1    0.457898    0.383405    0.421512    10.50000   10.10000
AFIX 137
H17A  2    0.471213    0.356462    0.482637    10.50000   -1.50000
H17B  2    0.527936    0.373676    0.383541    10.50000   -1.50000
H17C  2    0.362599    0.377791    0.374401    10.50000   -1.50000
AFIX   0
HKLF 4




REM  AJTR2_a.res in P2(1)/m
REM R1 =  0.0358 for    4228 Fo > 4sig(Fo)  and  0.0462 for all    5022 data
REM    388 parameters refined using     58 restraints

END

WGHT      0.0362      5.4590

REM Highest difference peak  0.614,  deepest hole -0.724,  1-sigma level  0.077
Q1    1   0.1899  0.7500  0.4467  10.50000  0.05    0.51
Q2    1   0.4603  0.3150  0.5023  11.00000  0.05    0.50
Q3    1   0.2291  0.7500  0.5457  10.50000  0.05    0.48
Q4    1   0.1989  0.6989  0.4612  11.00000  0.05    0.44
Q5    1   0.2225  0.5931  0.5837  11.00000  0.05    0.41
Q6    1   0.5073  0.5095  0.1591  11.00000  0.05    0.39
Q7    1   0.2413  0.6322  0.6418  11.00000  0.05    0.37
Q8    1   0.1874  0.2500  0.7527  10.50000  0.05    0.37
Q9    1   0.2336  0.5948  0.3939  11.00000  0.05    0.36
Q10   1   0.3981  0.6557  0.7173  11.00000  0.05    0.34
;
_shelx_res_checksum              34423
_shelx_fab_file
;
-11 0 1 -0.7399 -0.5504
-11 0 2 -2.4176 -0.2693
-11 0 3 -4.2646 0.2076
-11 0 4 2.0713 -0.0589
-11 0 5 -5.1020 -0.3325
-11 0 6 1.3644 -0.1144
-11 0 7 -1.4726 -0.0008
-11 0 8 -0.9089 -0.2059
-11 0 9 0.1995 -0.2794
-11 1 1 0.7229 0.0357
-11 1 2 1.4899 0.2177
-11 1 3 -5.0805 -0.1331
-11 1 4 2.1336 -0.0650
-11 1 5 0.6128 0.1479
-11 1 6 -0.7754 0.0570
-11 1 7 1.8825 -0.1368
-11 1 8 1.8415 -0.0798
-11 1 9 -3.1091 0.0796
-11 2 1 0.9675 0.1231
-11 2 2 2.0686 -0.0170
-11 2 3 3.6667 0.0271
-11 2 4 -1.9821 0.0882
-11 2 5 4.9933 -0.0385
-11 2 6 -1.5000 -0.0045
-11 2 7 0.9445 0.2353
-11 2 8 0.6600 0.0130
-11 2 9 0.1307 -0.3390
-11 3 1 -0.4897 0.0684
-11 3 2 -1.1462 -0.2577
-11 3 3 3.4813 0.0432
-11 3 4 -2.5865 0.1818
-11 3 5 -0.1565 0.0716
-11 3 6 1.7623 -0.1275
-11 3 7 -1.5077 -0.0412
-11 3 8 -2.3736 0.1427
-11 3 9 0.7818 -0.0535
-11 4 1 -0.9982 -0.0787
-11 4 2 -1.0309 0.1514
-11 4 3 -2.8191 0.1123
-11 4 4 1.3509 -0.0278
-11 4 5 -4.3050 0.0829
-11 4 6 1.7206 0.1643
-11 4 7 -0.5271 0.0943
-11 4 8 -0.4818 0.1097
-11 5 1 -0.1888 0.0277
-11 5 2 1.1506 -0.0645
-11 5 3 -1.4034 -0.0616
-11 5 4 1.9579 0.0535
-11 5 5 -0.6246 -0.0297
-11 5 6 -1.7782 -0.0681
-11 5 7 1.3191 0.1662
-11 5 8 1.5013 0.3076
-11 6 1 0.4545 0.1887
-11 6 2 0.0771 0.0097
-11 6 3 2.5887 0.0163
-11 6 4 -0.3933 0.0356
-11 6 5 2.7713 0.0030
-11 6 6 -1.5807 -0.0324
-11 6 7 1.0515 -0.3431
-11 6 8 0.5074 -0.0700
-11 7 1 0.7963 -0.0781
-11 7 2 -0.9586 -0.0744
-11 7 3 0.5378 0.0552
-11 7 4 -0.2287 0.0369
-11 7 5 0.9728 -0.1039
-11 7 6 0.4393 0.0360
-11 7 7 -1.3066 0.0201
-11 8 2 -0.2710 -0.2537
-11 8 3 -2.1859 -0.5119
-11 8 4 0.0196 -0.0806
-11 8 5 -1.1450 0.1176
-11 8 6 0.9710 -0.2849
-11 9 3 -0.7236 -0.0263
-11 9 4 -0.8514 -0.2249
-11 9 5 -0.7104 0.1093
-10 0 1 -0.3090 0.0936
-10 0 2 5.0959 0.1948
-10 0 3 7.0184 0.0505
-10 0 4 -4.2867 -0.2101
-10 0 5 6.5455 -0.0302
-10 0 6 -0.9619 0.2824
-10 0 7 -0.5339 0.1439
-10 0 8 0.8455 -0.0686
-10 0 9 3.6328 0.0064
-10 0 10 -1.2868 0.0550
-10 0 11 -0.8661 0.1944
-10 1 1 -0.6871 -0.1587
-10 1 2 -4.9975 0.0156
-10 1 3 6.3597 0.0173
-10 1 4 -5.5236 -0.1086
-10 1 5 -2.4762 -0.0206
-10 1 6 -0.0826 -0.0444
-10 1 7 -1.5518 -0.0381
-10 1 8 -2.1180 0.0851
-10 1 9 4.9231 0.0183
-10 1 10 2.6786 -0.0665
-10 1 11 -1.5630 -0.0424
-10 2 1 -0.1172 0.1623
-10 2 2 -4.2405 0.0807
-10 2 3 -6.1787 -0.1648
-10 2 4 4.0785 -0.0413
-10 2 5 -6.3734 0.1232
-10 2 6 0.9852 -0.0455
-10 2 7 0.6531 -0.1827
-10 2 8 -0.1037 0.0087
-10 2 9 -2.5266 0.2033
-10 2 10 0.1988 0.1528
-10 2 11 0.1308 0.0643
-10 3 1 0.2194 -0.0228
-10 3 2 4.1723 -0.0187
-10 3 3 -4.7672 0.0138
-10 3 4 5.2601 -0.0467
-10 3 5 1.6013 -0.1882
-10 3 6 -0.7695 0.0551
-10 3 7 1.1739 0.1184
-10 3 8 1.9489 -0.2387
-10 3 9 -1.8545 -0.1489
-10 3 10 -0.1240 0.0382
-10 3 11 0.1291 0.0030
-10 4 1 0.6558 -0.0894
-10 4 2 2.0562 -0.1025
-10 4 3 4.5702 -0.0052
-10 4 4 -2.8941 0.0123
-10 4 5 5.5710 -0.0497
-10 4 6 -1.4900 -0.0941
-10 4 7 -0.3647 -0.1986
-10 4 8 -0.2576 -0.1762
-10 4 9 0.2256 -0.1369
-10 4 10 0.9788 0.0332
-10 4 11 1.0363 -0.1143
-10 5 1 0.7117 0.0093
-10 5 2 -3.1311 0.1928
-10 5 3 2.2806 0.0339
-10 5 4 -4.1664 -0.0891
-10 5 5 -0.1886 0.0702
-10 5 6 0.7725 0.1200
-10 5 7 -1.4432 -0.0820
-10 5 8 -0.5340 -0.1436
-10 5 9 0.6401 -0.1653
-10 5 10 -1.9966 -0.0177
-10 5 11 0.7214 0.2638
-10 6 1 -0.6369 -0.0829
-10 6 2 -0.1540 -0.0548
-10 6 3 -3.6183 -0.0298
-10 6 4 0.7731 0.0243
-10 6 5 -3.8067 -0.0151
-10 6 6 2.4131 -0.0295
-10 6 7 -0.3640 0.3636
-10 6 8 -0.8043 0.1947
-10 6 9 1.1323 -0.0069
-10 6 10 -0.3953 -0.0243
-10 7 1 -1.1854 0.0421
-10 7 2 2.0689 0.1155
-10 7 3 -0.5488 0.0798
-10 7 4 2.0818 0.0113
-10 7 5 -0.7281 0.0964
-10 7 6 0.3642 -0.0247
-10 7 7 1.6283 -0.0535
-10 7 8 -1.0384 0.2042
-10 7 9 -1.6243 0.1132
-10 7 10 1.7878 -0.0566
-10 8 1 0.9059 -0.0348
-10 8 2 0.0526 0.1351
-10 8 3 3.2211 0.3718
-10 8 4 0.8418 0.0965
-10 8 5 1.7259 -0.1144
-10 8 6 -2.5109 0.2078
-10 8 7 0.1818 -0.0471
-10 8 8 0.8020 -0.0321
-10 8 9 -0.5455 -0.0717
-10 8 10 -0.1363 -0.4108
-10 9 1 0.6614 -0.1131
-10 9 2 -0.7823 -0.4896
-10 9 3 -0.0545 -0.1004
-10 9 4 -0.1767 0.1910
-10 9 5 0.6978 -0.1208
-10 9 6 -1.0379 -0.1907
-10 9 7 -0.7036 0.2498
-10 9 8 0.9343 0.1384
-10 9 9 1.3833 0.1388
-10 10 1 -1.8720 0.1771
-10 10 2 -0.7643 -0.0693
-10 10 3 -2.2428 -0.2011
-10 10 4 -1.2554 -0.0766
-10 10 5 -0.6006 0.1640
-10 10 6 1.3657 -0.1101
-10 10 7 0.8100 -0.0119
-10 10 8 0.7040 0.0966
-10 10 9 -0.6473 0.0973
-10 11 1 0.0550 0.1567
-10 11 2 -0.2305 0.1750
-10 11 3 0.7440 0.0032
-10 11 4 -0.3678 0.0323
-10 11 5 -0.3176 0.0119
-10 11 6 0.4430 0.0610
-10 11 7 -0.2365 -0.2568
-10 11 8 0.1124 -0.1180
-10 12 1 1.9531 -0.0692
-10 12 2 0.5935 -0.2214
-10 12 3 0.8077 -0.4174
-10 12 4 0.7489 0.0540
-10 12 5 0.4872 0.0086
-10 12 6 -0.0113 -0.2620
-10 12 7 -1.0536 -0.3376
-10 13 2 0.2077 0.3064
-10 13 3 -1.3695 -0.1768
-10 13 4 0.1820 -0.3590
-10 13 5 -0.1648 0.2207
-10 13 6 0.4531 0.1983
-9 0 1 1.7436 -0.1555
-9 0 2 -6.3676 -0.1310
-9 0 3 -7.3539 0.2016
-9 0 4 7.6040 0.1926
-9 0 5 -4.7742 -0.0498
-9 0 6 0.9186 -0.1578
-9 0 7 1.4190 -0.0935
-9 0 8 -1.8056 0.1404
-9 0 9 -5.5160 0.2220
-9 0 10 0.2744 -0.0357
-9 0 11 0.6277 -0.3347
-9 0 12 -2.0085 -0.3583
-9 0 13 0.9956 0.0261
-9 1 1 -0.3365 -0.0183
-9 1 2 10.3080 0.1284
-9 1 3 -6.0297 0.0722
-9 1 4 8.1202 -0.1051
-9 1 5 3.6242 -0.0070
-9 1 6 0.3572 0.0931
-9 1 7 -0.9878 -0.0004
-9 1 8 3.2569 -0.0398
-9 1 9 -2.5138 -0.0518
-9 1 10 -1.5133 -0.0792
-9 1 11 1.3273 0.0866
-9 1 12 0.0666 0.0936
-9 2 1 -1.2259 -0.0185
-9 2 2 5.4161 -0.0174
-9 2 3 6.6236 -0.0603
-9 2 4 -7.0837 0.0802
-9 2 5 4.5744 0.0334
-9 2 6 -0.9699 -0.0572
-9 2 7 -1.0278 0.1075
-9 2 8 1.0166 0.1402
-9 2 9 3.5038 -0.0679
-9 2 10 0.1835 -0.1063
-9 2 11 -0.0418 -0.0388
-9 2 12 1.8452 0.0708
-9 3 1 1.0483 0.1064
-9 3 2 -8.5657 -0.0823
-9 3 3 4.4776 -0.0243
-9 3 4 -7.5254 0.1347
-9 3 5 -2.3117 0.0715
-9 3 6 0.1458 -0.0048
-9 3 7 0.5957 0.0265
-9 3 8 -2.0844 0.1310
-9 3 9 0.9366 0.0931
-9 3 10 -0.3333 0.0789
-9 3 11 -0.4354 0.0534
-9 3 12 -0.8323 -0.0756
-9 4 1 0.1042 -0.0297
-9 4 2 -3.1405 -0.0303
-9 4 3 -4.8238 0.0870
-9 4 4 5.2711 -0.0331
-9 4 5 -3.8806 -0.0384
-9 4 6 1.8248 0.1115
-9 4 7 0.0249 0.1163
-9 4 8 -0.8935 0.0344
-9 4 9 0.1429 0.0628
-9 4 10 -0.4649 -0.0533
-9 4 11 -1.1121 0.0977
-9 4 12 -1.5175 0.1227
-9 5 1 -2.1477 -0.0961
-9 5 2 5.6952 -0.0501
-9 5 3 -1.8484 -0.0617
-9 5 4 6.5015 -0.0166
-9 5 5 0.1103 0.0524
-9 5 6 -0.6157 -0.1088
-9 5 7 0.8623 -0.0745
-9 5 8 0.5035 0.0464
-9 5 9 -0.7892 0.1301
-9 5 10 1.8127 -0.0030
-9 5 11 -0.2118 -0.2247
-9 5 12 0.8720 0.0740
-9 6 1 0.7295 0.1437
-9 6 2 1.1018 0.0824
-9 6 3 3.2479 -0.0828
-9 6 4 -2.4052 -0.0353
-9 6 5 2.4801 0.0313
-9 6 6 -3.3476 -0.0032
-9 6 7 0.8452 -0.2102
-9 6 8 2.6350 -0.1989
-9 6 9 -1.7864 -0.1132
-9 6 10 -0.1547 0.1007
-9 6 11 1.7545 0.0576
-9 6 12 1.0743 -0.0784
-9 7 1 2.4169 0.0460
-9 7 2 -3.1694 -0.1112
-9 7 3 -0.6162 -0.0875
-9 7 4 -4.6720 -0.0328
-9 7 5 1.4452 -0.1001
-9 7 6 0.6404 0.0356
-9 7 7 -1.5313 -0.0040
-9 7 8 0.5766 -0.1314
-9 7 9 1.5469 0.0455
-9 7 10 -1.7159 0.1415
-9 7 11 0.2664 0.2154
-9 7 12 0.1092 -0.0482
-9 8 1 -1.0953 0.0103
-9 8 2 -0.3608 -0.0063
-9 8 3 -2.6771 -0.1266
-9 8 4 -0.1900 -0.1019
-9 8 5 -0.7293 0.0760
-9 8 6 3.5658 -0.0841
-9 8 7 -0.6680 -0.0346
-9 8 8 -2.9323 0.0161
-9 8 9 0.9828 0.1006
-9 8 10 0.2535 0.2109
-9 8 11 -1.4622 -0.0132
-9 9 1 -1.3260 0.0432
-9 9 2 1.6360 0.3090
-9 9 3 2.0291 0.1266
-9 9 4 2.3434 -0.0602
-9 9 5 -1.2412 0.0283
-9 9 6 -0.3305 0.0681
-9 9 7 0.0998 -0.0568
-9 9 8 -0.6361 -0.0590
-9 9 9 -0.6436 -0.3301
-9 9 10 0.6456 -0.2442
-9 9 11 -0.2686 -0.0045
-9 10 1 1.4798 -0.2229
-9 10 2 0.1865 -0.0200
-9 10 3 2.0013 0.1034
-9 10 4 1.3213 0.0673
-9 10 5 -0.2393 -0.1734
-9 10 6 -1.9834 0.0741
-9 10 7 -0.3876 0.1508
-9 10 8 0.7359 0.0091
-9 10 9 0.3380 -0.0135
-9 10 10 0.7151 -0.2521
-9 10 11 0.6959 -0.1019
-9 11 1 0.0520 -0.0700
-9 11 2 -0.6128 -0.0142
-9 11 3 -2.3859 0.0760
-9 11 4 -0.6684 -0.0314
-9 11 5 -0.0331 0.0374
-9 11 6 0.0717 0.0882
-9 11 7 1.1136 0.2479
-9 11 8 0.0020 0.1087
-9 11 9 -1.0599 0.0419
-9 11 10 0.3513 0.0205
-9 12 1 -1.2922 0.0914
-9 12 2 0.2378 0.0787
-9 12 3 -0.6226 0.3145
-9 12 4 -0.6757 0.0993
-9 12 5 0.0985 0.0596
-9 12 6 0.1993 0.0667
-9 12 7 1.1760 0.1348
-9 12 8 0.9153 0.2070
-9 12 9 -0.5649 -0.1934
-9 12 10 -1.2906 -0.3151
-9 13 1 0.3882 -0.1554
-9 13 2 0.2703 -0.3945
-9 13 3 1.7010 0.0396
-9 13 4 -0.3331 0.2791
-9 13 5 1.1997 -0.2037
-9 13 6 -0.0893 -0.2956
-9 13 7 -0.5154 -0.0879
-9 13 8 0.3674 0.1497
-9 13 9 1.4574 0.3892
-9 14 1 -0.2515 0.1829
-9 14 2 -0.3231 -0.2365
-9 14 3 -0.0808 -0.3937
-9 14 4 -0.9914 0.0813
-9 14 5 0.1268 0.1119
-9 14 6 0.7689 -0.2411
-9 14 7 -1.1142 -0.3315
-9 14 8 -0.7495 -0.2229
-9 15 1 -0.2511 0.4492
-9 15 2 -0.6960 0.2327
-9 15 3 -0.3950 -0.4351
-9 15 4 1.2639 -0.1554
-9 15 5 -1.6515 0.4698
-9 15 6 0.2344 0.1511
-9 15 7 -0.4003 -0.3537
-9 16 1 1.5955 -0.1859
-9 16 2 -0.2761 0.1806
-9 16 3 -0.3398 -0.1486
-9 16 4 1.8580 -0.4263
-9 16 5 0.0839 -0.0896
-9 16 6 -0.8624 0.2072
-8 0 1 -3.2426 0.0889
-8 0 2 4.7191 -0.1284
-8 0 3 4.6983 -0.1201
-8 0 4 -10.7567 -0.0234
-8 0 5 2.3048 0.0678
-8 0 6 0.7413 0.1535
-8 0 7 -1.4432 -0.0023
-8 0 8 1.0639 -0.2129
-8 0 9 3.5066 -0.0569
-8 0 10 -0.2810 0.1644
-8 0 11 0.2028 0.1286
-8 0 12 2.0391 0.0280
-8 0 13 -1.3310 -0.0956
-8 1 1 1.2288 -0.1316
-8 1 2 -15.9753 0.0583
-8 1 3 6.5074 -0.0094
-8 1 4 -7.4773 -0.0292
-8 1 5 -2.1327 0.0603
-8 1 6 -0.3259 0.0236
-8 1 7 2.1458 -0.0823
-8 1 8 -4.5318 -0.0026
-8 1 9 0.3447 0.1211
-8 1 10 -0.2053 0.0399
-8 1 11 -2.2972 -0.0983
-8 1 12 -0.8497 -0.0807
-8 1 13 0.5473 0.0230
-8 2 1 2.5649 0.0638
-8 2 2 -3.9302 0.1272
-8 2 3 -3.9309 -0.0216
-8 2 4 9.9265 -0.0816
-8 2 5 -2.2619 -0.0316
-8 2 6 -0.3842 -0.0648
-8 2 7 0.9556 -0.0567
-8 2 8 -0.8387 -0.0420
-8 2 9 -2.1125 -0.0698
-8 2 10 -0.1642 -0.0344
-8 2 11 -0.3456 0.0495
-8 2 12 -1.3650 -0.0410
-8 2 13 0.9708 0.0123
-8 3 1 -1.6554 0.0718
-8 3 2 13.5925 -0.0059
-8 3 3 -4.7399 -0.0305
-8 3 4 6.9547 -0.0306
-8 3 5 0.5287 -0.0391
-8 3 6 0.2326 -0.0437
-8 3 7 -0.6776 0.0531
-8 3 8 2.8058 0.0013
-8 3 9 -0.5842 -0.0599
-8 3 10 0.7147 -0.0306
-8 3 11 1.4479 -0.0745
-8 3 12 1.5602 -0.0158
-8 3 13 0.4585 -0.1515
-8 4 1 -0.5451 -0.0560
-8 4 2 2.3311 -0.0208
-8 4 3 1.8572 0.0733
-8 4 4 -7.6163 -0.0087
-8 4 5 2.2843 -0.0470
-8 4 6 -0.9343 0.0141
-8 4 7 -0.1390 0.0148
-8 4 8 1.4465 -0.0159
-8 4 9 -0.4213 -0.0039
-8 4 10 0.6433 0.0382
-8 4 11 0.8733 -0.1045
-8 4 12 0.3114 0.0255
-8 4 13 -0.3566 0.0426
-8 5 1 2.1537 -0.0049
-8 5 2 -9.2833 0.0324
-8 5 3 2.0753 0.0919
-8 5 4 -6.1648 0.0302
-8 5 5 1.9910 -0.0459
-8 5 6 0.5082 0.0258
-8 5 7 -1.9776 0.0161
-8 5 8 -1.2092 0.0493
-8 5 9 1.5301 -0.0368
-8 5 10 -1.4403 -0.0765
-8 5 11 -0.9819 0.1060
-8 5 12 -1.4314 -0.0224
-8 5 13 -0.8188 0.1593
-8 6 1 -1.6134 -0.0863
-8 6 2 -0.9845 -0.0366
-8 6 3 0.1315 0.0199
-8 6 4 4.4525 0.0762
-8 6 5 -2.0776 0.0209
-8 6 6 2.4053 0.0087
-8 6 7 -0.3681 0.0997
-8 6 8 -3.1945 0.1274
-8 6 9 1.8395 0.0387
-8 6 10 -0.3124 -0.1068
-8 6 11 -1.6432 0.0061
-8 6 12 0.1236 0.0073
-8 6 13 0.3346 0.0654
-8 7 1 -2.1410 -0.0130
-8 7 2 5.2146 -0.0103
-8 7 3 0.6866 0.0299
-8 7 4 4.7254 0.0635
-8 7 5 -3.4731 0.0345
-8 7 6 -1.3135 0.0039
-8 7 7 3.1877 0.0668
-8 7 8 0.2547 -0.0039
-8 7 9 -2.0006 -0.1026
-8 7 10 2.0396 -0.0193
-8 7 11 1.1401 -0.0902
-8 7 12 -0.0560 0.0298
-8 7 13 0.3540 -0.0891
-8 8 1 2.1603 0.0590
-8 8 2 -0.0934 -0.0100
-8 8 3 -0.5670 -0.0321
-8 8 4 -1.5102 0.0394
-8 8 5 0.9929 0.0475
-8 8 6 -2.3374 -0.0109
-8 8 7 0.5994 -0.0655
-8 8 8 3.4471 0.0160
-8 8 9 -1.7993 0.0749
-8 8 10 0.0696 0.0177
-8 8 11 1.9872 0.0296
-8 8 12 -0.2605 -0.0554
-8 9 1 1.3857 -0.0005
-8 9 2 -2.7344 -0.0719
-8 9 3 -2.7439 -0.0927
-8 9 4 -2.6660 -0.0344
-8 9 5 2.6087 0.0523
-8 9 6 1.2423 -0.0230
-8 9 7 -1.5871 -0.0742
-8 9 8 0.3493 0.0010
-8 9 9 0.6787 0.2599
-8 9 10 -1.8526 0.1665
-8 9 11 -1.1727 0.0449
-8 9 12 1.4019 -0.0104
-8 10 1 -1.4558 0.1136
-8 10 2 1.0754 -0.0010
-8 10 3 0.1874 -0.0231
-8 10 4 -0.0611 -0.0421
-8 10 5 0.4411 0.0009
-8 10 6 1.1281 -0.0575
-8 10 7 -0.1600 -0.1008
-8 10 8 -1.3894 -0.1121
-8 10 9 0.7554 -0.1036
-8 10 10 -0.8421 0.1164
-8 10 11 -1.4944 0.0716
-8 10 12 0.1623 0.0139
-8 11 1 -0.3188 0.0054
-8 11 2 1.0973 -0.0148
-8 11 3 3.0176 -0.1101
-8 11 4 0.7929 -0.0641
-8 11 5 -0.3762 -0.0487
-8 11 6 -0.6746 -0.0271
-8 11 7 -0.3050 -0.1350
-8 11 8 -0.3275 -0.0429
-8 11 9 1.2437 0.0256
-8 11 10 0.6300 0.0245
-8 11 11 0.9396 0.0719
-8 11 12 -1.2223 0.0933
-8 12 1 0.5311 -0.0334
-8 12 2 -1.4703 0.0266
-8 12 3 -0.0814 -0.1271
-8 12 4 -0.2403 -0.1250
-8 12 5 -1.0547 -0.0272
-8 12 6 -0.2195 0.0584
-8 12 7 -0.9573 0.0513
-8 12 8 -0.7051 -0.0458
-8 12 9 0.2875 0.0625
-8 12 10 1.7676 0.0677
-8 12 11 0.6185 -0.0862
-8 13 1 -0.4182 0.0425
-8 13 2 -0.2699 0.1883
-8 13 3 -1.3808 0.1565
-8 13 4 0.7826 -0.0186
-8 13 5 -1.5711 0.0390
-8 13 6 0.3773 0.1203
-8 13 7 0.6069 0.1939
-8 13 8 0.1792 -0.0230
-8 13 9 -1.8471 -0.4967
-8 13 10 0.5165 -0.4011
-8 13 11 -0.7349 -0.1254
-8 14 1 0.8316 -0.2557
-8 14 2 1.0228 0.1033
-8 14 3 -0.3076 0.2802
-8 14 4 1.5355 -0.0055
-8 14 5 0.7951 -0.1135
-8 14 6 -0.4270 0.1389
-8 14 7 1.5365 0.2388
-8 14 8 1.4198 0.1911
-8 14 9 -0.1301 -0.0796
-8 14 10 -1.6578 -0.4478
-8 15 1 0.6232 -0.1375
-8 15 2 0.6193 -0.0723
-8 15 3 -0.5053 0.1914
-8 15 4 -2.0655 0.1236
-8 15 5 2.3609 -0.1743
-8 15 6 -0.2565 -0.0775
-8 15 7 -0.1893 0.0583
-8 15 8 -0.5520 0.0742
-8 15 9 1.2340 0.4663
-8 16 1 -1.9389 0.3036
-8 16 2 -0.2703 -0.2251
-8 16 3 1.0031 -0.0294
-8 16 4 -1.9477 0.4718
-8 16 5 -0.3225 0.2341
-8 16 6 0.7599 -0.3094
-8 16 7 -1.0958 -0.4121
-8 16 8 -1.0710 -0.1882
-8 16 9 -0.5547 0.0584
-8 17 1 -0.6929 0.2113
-8 17 2 -0.7594 -0.1837
-8 17 3 0.8940 -0.3605
-8 17 4 2.1134 0.0053
-8 17 5 -1.6845 0.2505
-8 17 6 0.0216 -0.1230
-8 17 7 -0.2899 -0.2837
-8 17 8 0.6951 -0.0594
-8 18 1 1.3880 -0.0953
-8 18 2 -0.2374 0.0998
-8 18 3 -0.9805 -0.3740
-8 18 4 0.6867 -0.6555
-8 18 5 -0.0202 -0.1703
-8 18 6 -0.0759 0.1992
-8 19 2 -0.1557 0.1405
-8 19 3 0.0090 -0.0092
-8 19 4 -0.8854 -0.1994
-7 0 1 7.5385 -0.0854
-7 0 2 -1.2779 0.0623
-7 0 3 -2.1297 0.1901
-7 0 4 11.4330 -0.0239
-7 0 5 -1.2354 -0.2343
-7 0 6 -2.8692 -0.0860
-7 0 7 2.1582 0.1178
-7 0 8 0.4141 0.0662
-7 0 9 -0.4119 -0.0944
-7 0 10 1.4942 -0.1519
-7 0 11 0.2696 0.0034
-7 0 12 -0.2132 0.1936
-7 0 13 1.5518 0.0795
-7 0 14 2.1944 -0.1256
-7 1 1 -2.1672 0.0554
-7 1 2 19.4791 -0.0627
-7 1 3 -9.7763 0.0636
-7 1 4 4.6058 0.0280
-7 1 5 0.3525 0.0098
-7 1 6 0.5272 -0.0021
-7 1 7 -2.4255 -0.0145
-7 1 8 4.7360 0.0534
-7 1 9 -0.3183 0.0258
-7 1 10 0.9497 -0.0144
-7 1 11 3.5080 -0.0105
-7 1 12 1.3786 0.0096
-7 1 13 -0.2088 0.0270
-7 1 14 -1.8917 -0.0657
-7 2 1 -6.6578 -0.0516
-7 2 2 0.6019 -0.0149
-7 2 3 1.0620 -0.0368
-7 2 4 -10.3533 0.0198
-7 2 5 1.3482 0.1195
-7 2 6 2.0123 0.0464
-7 2 7 -1.8443 -0.0486
-7 2 8 0.0882 0.0180
-7 2 9 0.1592 0.0301
-7 2 10 -0.6671 0.0503
-7 2 11 0.1136 0.0618
-7 2 12 -0.6247 -0.0128
-7 2 13 -1.7716 -0.0303
-7 2 14 -1.4823 0.1194
-7 3 1 1.9122 0.0016
-7 3 2 -16.3357 -0.0115
-7 3 3 7.7204 -0.0185
-7 3 4 -4.5413 0.0622
-7 3 5 1.2196 -0.0357
-7 3 6 -0.4617 -0.0538
-7 3 7 0.3749 -0.0278
-7 3 8 -3.4097 -0.0576
-7 3 9 0.7781 -0.0071
-7 3 10 -0.9957 0.0115
-7 3 11 -2.1891 0.0260
-7 3 12 -1.0389 -0.0016
-7 3 13 -1.1500 0.0713
-7 3 14 1.8493 0.0809
-7 4 1 3.7745 0.0869
-7 4 2 0.3654 -0.0142
-7 4 3 1.3943 -0.0858
-7 4 4 7.6275 0.0167
-7 4 5 -1.9938 0.0522
-7 4 6 0.0258 0.0455
-7 4 7 1.5552 -0.0533
-7 4 8 -1.5802 -0.0688
-7 4 9 0.5520 0.0543
-7 4 10 -0.3804 0.0606
-7 4 11 -0.9551 0.0288
-7 4 12 1.6169 -0.0995
-7 4 13 1.7522 -0.0333
-7 4 14 0.2497 -0.0653
-7 5 1 -1.1884 -0.0698
-7 5 2 10.9437 0.0279
-7 5 3 -4.9039 -0.0299
-7 5 4 4.3127 -0.0973
-7 5 5 -3.1346 0.0374
-7 5 6 -0.4349 0.0732
-7 5 7 2.5585 -0.0053
-7 5 8 1.9844 -0.0162
-7 5 9 -1.5414 0.0176
-7 5 10 1.5911 0.0119
-7 5 11 1.5301 -0.0099
-7 5 12 0.4571 0.0508
-7 5 13 1.8273 -0.1293
-7 5 14 -1.7428 -0.0790
-7 6 1 -0.1679 0.0429
-7 6 2 -0.7484 0.0365
-7 6 3 -3.2579 0.0070
-7 6 4 -4.3752 -0.0371
-7 6 5 2.7025 -0.0437
-7 6 6 -1.6171 -0.1122
-7 6 7 -1.3421 0.0103
-7 6 8 3.3324 0.0344
-7 6 9 -1.7248 -0.0321
-7 6 10 -0.1861 -0.0091
-7 6 11 1.6559 -0.0801
-7 6 12 -1.2202 0.0557
-7 6 13 -1.1370 0.0269
-7 6 14 0.3726 0.0563
-7 7 1 0.6767 0.0079
-7 7 2 -5.8212 0.0204
-7 7 3 1.8305 0.0203
-7 7 4 -3.3694 -0.0261
-7 7 5 3.6885 -0.0258
-7 7 6 1.3595 -0.0012
-7 7 7 -4.0117 0.0080
-7 7 8 -0.5650 -0.0245
-7 7 9 1.8536 -0.0195
-7 7 10 -2.5000 -0.0237
-7 7 11 -1.8377 0.0211
-7 7 12 0.5854 0.0034
-7 7 13 -1.3891 0.1515
-7 7 14 1.2483 0.1738
-7 8 1 -1.4612 -0.1188
-7 8 2 1.3213 -0.0463
-7 8 3 3.1847 0.0986
-7 8 4 1.7548 -0.0160
-7 8 5 -2.0086 -0.1058
-7 8 6 1.6327 0.0882
-7 8 7 0.4648 0.0745
-7 8 8 -3.8051 -0.0173
-7 8 9 2.6445 -0.0576
-7 8 10 1.4029 -0.0988
-7 8 11 -1.8129 -0.0103
-7 8 12 0.2955 0.0675
-7 8 13 0.6838 0.2273
-7 9 1 -0.8005 0.0186
-7 9 2 2.5600 -0.0215
-7 9 3 1.0195 0.0164
-7 9 4 1.6510 0.0815
-7 9 5 -2.5159 -0.0003
-7 9 6 -1.4160 -0.0251
-7 9 7 2.9840 0.0350
-7 9 8 -0.5553 0.0920
-7 9 9 -0.7000 -0.0633
-7 9 10 2.4869 -0.0374
-7 9 11 1.8365 -0.0053
-7 9 12 -1.5999 -0.1144
-7 9 13 0.9284 -0.1347
-7 10 1 0.9128 0.0092
-7 10 2 -2.0160 0.0432
-7 10 3 -1.9564 -0.0128
-7 10 4 -0.6246 0.0426
-7 10 5 0.1125 0.0993
-7 10 6 -0.9857 0.0082
-7 10 7 0.0571 0.0234
-7 10 8 2.3738 0.0526
-7 10 9 -1.8611 0.0385
-7 10 10 -1.1054 0.0403
-7 10 11 1.3385 0.0137
-7 10 12 0.3445 -0.1085
-7 10 13 -0.3767 -0.5836
-7 11 1 0.7427 0.0483
-7 11 2 -0.6756 -0.0078
-7 11 3 -2.0843 0.0506
-7 11 4 0.2118 0.0565
-7 11 5 0.6796 0.0021
-7 11 6 1.3368 -0.0349
-7 11 7 -0.9310 -0.0229
-7 11 8 0.5185 -0.0849
-7 11 9 -1.5266 0.0333
-7 11 10 -1.0483 0.0388
-7 11 11 -1.2973 -0.1164
-7 11 12 1.4355 0.0288
-7 12 1 0.1788 0.0705
-7 12 2 1.7869 -0.0575
-7 12 3 0.5517 -0.0864
-7 12 4 0.9869 0.0616
-7 12 5 1.1747 0.0626
-7 12 6 0.5184 -0.0447
-7 12 7 0.6199 -0.1325
-7 12 8 -0.1618 -0.0189
-7 12 9 -0.1042 0.1048
-7 12 10 -0.4648 0.0382
-7 12 11 -0.4530 0.0866
-7 12 12 -0.7447 -0.0404
-7 13 1 -0.2491 -0.0331
-7 13 2 -0.0134 -0.0014
-7 13 3 0.9090 -0.1108
-7 13 4 -1.9334 -0.1116
-7 13 5 1.0940 0.0107
-7 13 6 -1.3232 0.0167
-7 13 7 -0.7236 -0.0633
-7 13 8 -0.4081 0.0587
-7 13 9 2.8639 0.2373
-7 13 10 -0.5481 0.1910
-7 13 11 0.7297 0.2441
-7 13 12 -0.3648 0.1959
-7 14 1 -1.3374 -0.0043
-7 14 2 -0.9259 0.0126
-7 14 3 0.9732 0.0052
-7 14 4 -1.7818 -0.0760
-7 14 5 -1.2068 -0.0804
-7 14 6 0.1654 -0.0510
-7 14 7 -1.0147 0.0010
-7 14 8 -1.3259 -0.0875
-7 14 9 0.8665 -0.2037
-7 14 10 1.2961 0.0878
-7 14 11 -0.3208 -0.0438
-7 15 1 0.0733 -0.0112
-7 15 2 -0.3547 -0.0095
-7 15 3 0.6728 -0.0839
-7 15 4 3.0165 -0.0740
-7 15 5 -2.3165 0.0170
-7 15 6 0.6580 0.0809
-7 15 7 1.5226 0.1368
-7 15 8 1.3235 -0.0124
-7 15 9 -2.4743 -0.3783
-7 15 10 0.9512 -0.4239
-7 15 11 -0.1939 -0.2196
-7 16 1 2.0295 -0.0444
-7 16 2 0.2566 0.0826
-7 16 3 -1.8068 0.0430
-7 16 4 1.7136 -0.1630
-7 16 5 0.6354 -0.0714
-7 16 6 -0.4455 0.1604
-7 16 7 0.5883 0.2819
-7 16 8 1.5640 0.1487
-7 16 9 -0.1870 0.1162
-7 16 10 -0.8783 -0.2782
-7 17 1 -0.0555 -0.1101
-7 17 2 0.4051 0.0440
-7 17 3 -0.8603 0.3155
-7 17 4 -2.3739 0.2120
-7 17 5 2.0007 -0.0178
-7 17 6 0.0905 -0.0576
-7 17 7 -1.2072 -0.0986
-7 17 8 -1.7203 0.0173
-7 17 9 1.6389 0.1417
-7 18 1 -1.2791 -0.0062
-7 18 2 0.4021 0.0036
-7 18 3 1.1245 0.1956
-7 18 4 -0.5157 0.3628
-7 18 5 0.0473 0.1005
-7 18 6 -0.5926 -0.1835
-7 18 7 -0.5975 -0.5154
-7 18 8 -1.0338 -0.1577
-7 19 1 -0.3660 0.2777
-7 19 2 0.2355 -0.0506
-7 19 3 -0.2087 -0.2095
-7 19 4 0.4478 -0.0583
-7 19 5 -0.3563 -0.0657
-7 19 6 -0.0504 -0.1308
-7 19 7 0.5022 -0.0913
-7 20 1 -0.0630 0.1218
-7 20 2 -1.0085 -0.2501
-7 20 3 -0.0254 -0.5698
-7 20 4 -0.6219 -0.3199
-7 20 5 -0.3834 0.0759
-7 20 6 1.5032 0.1763
-7 21 2 -0.4187 0.0903
-7 21 3 1.0701 -0.0277
-6 0 1 -15.3456 0.0195
-6 0 2 -1.7489 -0.1511
-6 0 3 1.5615 -0.1761
-6 0 4 -9.7295 0.0679
-6 0 5 1.5552 0.2188
-6 0 6 4.7734 0.0878
-6 0 7 -4.4070 -0.1575
-6 0 8 -1.5803 -0.1314
-6 0 9 -0.0284 0.1352
-6 0 10 -2.2871 0.2095
-6 0 11 -2.4181 -0.0114
-6 0 12 -2.4813 -0.1695
-6 0 13 -0.9632 -0.0471
-6 0 14 -0.8542 0.0279
-6 0 15 -1.6670 -0.2155
-6 1 1 4.9482 -0.1210
-6 1 2 -21.3271 -0.0083
-6 1 3 15.4441 0.0052
-6 1 4 -1.4127 -0.0202
-6 1 5 -0.2005 -0.0320
-6 1 6 -1.6346 0.0088
-6 1 7 2.8002 -0.0235
-6 1 8 -3.2084 -0.0466
-6 1 9 1.4273 0.0083
-6 1 10 -0.9180 -0.0524
-6 1 11 -3.2223 0.0225
-6 1 12 -0.2988 0.0732
-6 1 13 0.2250 -0.0882
-6 1 14 3.6802 0.0548
-6 1 15 -0.2932 0.1681
-6 2 1 13.7773 0.0160
-6 2 2 2.3301 0.0155
-6 2 3 -0.0285 0.0529
-6 2 4 8.4427 0.0214
-6 2 5 -1.7980 -0.0658
-6 2 6 -3.5861 -0.0478
-6 2 7 4.1980 0.0789
-6 2 8 0.7801 0.0880
-6 2 9 -0.1192 0.0140
-6 2 10 1.3434 -0.0658
-6 2 11 1.2421 -0.0641
-6 2 12 3.1084 0.0318
-6 2 13 1.9348 0.0524
-6 2 14 0.0403 -0.1107
-6 2 15 1.3260 0.0271
-6 3 1 -3.9351 0.0207
-6 3 2 16.9964 0.0242
-6 3 3 -12.8309 -0.0052
-6 3 4 1.8325 -0.0326
-6 3 5 -1.6301 0.0167
-6 3 6 1.2383 0.0409
-6 3 7 -0.3809 0.0598
-6 3 8 2.6324 0.0176
-6 3 9 -1.4783 -0.0765
-6 3 10 1.7722 0.0590
-6 3 11 2.6357 0.0801
-6 3 12 -1.1647 -0.0599
-6 3 13 0.5303 -0.0056
-6 3 14 -3.2441 0.0106
-6 3 15 -1.4046 -0.1936
-6 4 1 -9.3131 -0.0059
-6 4 2 -2.8984 0.0042
-6 4 3 -3.0215 0.0380
-6 4 4 -5.5702 -0.0409
-6 4 5 2.6562 -0.0747
-6 4 6 1.1160 -0.0295
-6 4 7 -3.9509 0.0498
-6 4 8 0.9909 0.0217
-6 4 9 -0.1077 -0.0395
-6 4 10 -0.2680 -0.0620
-6 4 11 0.7417 -0.0366
-6 4 12 -3.5915 0.0723
-6 4 13 -3.0238 -0.0099
-6 4 14 1.2343 0.0596
-6 5 1 1.9108 0.0887
-6 5 2 -10.5896 -0.0247
-6 5 3 9.0825 -0.0269
-6 5 4 -2.3173 0.0414
-6 5 5 3.2049 0.0462
-6 5 6 0.0563 -0.0456
-6 5 7 -2.6535 -0.0762
-6 5 8 -1.6258 -0.0455
-6 5 9 1.9778 0.0600
-6 5 10 -2.6165 0.0603
-6 5 11 -2.7786 -0.0422
-6 5 12 1.7953 -0.0278
-6 5 13 -0.8875 0.0090
-6 5 14 2.5582 0.0393
-6 6 1 3.8635 -0.0398
-6 6 2 2.5794 -0.0015
-6 6 3 4.7293 -0.0246
-6 6 4 2.8422 0.0155
-6 6 5 -3.4166 0.0607
-6 6 6 0.6403 0.0614
-6 6 7 3.3444 -0.0679
-6 6 8 -2.6853 -0.0112
-6 6 9 1.4516 0.0306
-6 6 10 1.1421 0.0309
-6 6 11 -1.4770 0.1048
-6 6 12 2.6127 -0.0573
-6 6 13 2.3933 -0.0680
-6 6 14 -1.3790 -0.0587
-6 7 1 -0.3914 0.0119
-6 7 2 5.1428 -0.0004
-6 7 3 -4.9949 -0.0139
-6 7 4 2.0057 0.0212
-6 7 5 -3.1358 -0.0365
-6 7 6 -1.2811 -0.0045
-6 7 7 4.5148 0.0050
-6 7 8 0.1427 0.0467
-6 7 9 -2.6778 0.0402
-6 7 10 2.5198 -0.0134
-6 7 11 3.1897 -0.0044
-6 7 12 -1.3894 0.0105
-6 7 13 0.6917 -0.0092
-6 7 14 -1.6188 -0.1292
-6 8 1 -0.3606 0.0699
-6 8 2 -2.3706 0.0367
-6 8 3 -4.1324 -0.0309
-6 8 4 -1.1680 0.0019
-6 8 5 2.7593 0.0508
-6 8 6 -1.0188 -0.0353
-6 8 7 -1.7840 -0.0167
-6 8 8 3.3341 -0.0731
-6 8 9 -2.7864 -0.0594
-6 8 10 -2.5602 0.0671
-6 8 11 1.1849 -0.0081
-6 8 12 -1.2707 -0.0109
-6 8 13 -1.1527 -0.0224
-6 8 14 0.7622 0.1565
-6 9 1 0.2725 -0.0804
-6 9 2 -1.9028 0.0251
-6 9 3 1.3487 0.0371
-6 9 4 -0.5757 -0.0849
-6 9 5 2.1122 -0.0260
-6 9 6 1.7509 0.0179
-6 9 7 -4.4949 0.0325
-6 9 8 0.7827 -0.0198
-6 9 9 1.9968 -0.0298
-6 9 10 -1.3396 -0.0705
-6 9 11 -2.6749 -0.0361
-6 9 12 1.1142 0.1829
-6 9 13 -0.6718 0.1700
-6 9 14 0.7700 0.1012
-6 10 1 -0.4892 -0.0489
-6 10 2 2.3764 -0.0122
-6 10 3 2.4188 0.0089
-6 10 4 0.6519 -0.0177
-6 10 5 -1.1462 -0.0669
-6 10 6 0.7158 0.0229
-6 10 7 0.5970 0.0498
-6 10 8 -2.0577 0.0311
-6 10 9 2.1792 0.0190
-6 10 10 1.9653 -0.0666
-6 10 11 -0.8652 -0.0088
-6 10 12 0.5602 0.0615
-6 10 13 0.3827 0.3211
-6 11 1 -0.3314 -0.0240
-6 11 2 0.3447 0.0205
-6 11 3 0.3718 0.0025
-6 11 4 -1.2656 0.0179
-6 11 5 -0.9642 0.0252
-6 11 6 -2.1348 0.0371
-6 11 7 2.7534 0.0411
-6 11 8 -0.2836 0.0479
-6 11 9 0.6164 -0.0589
-6 11 10 -0.2173 -0.0135
-6 11 11 1.7420 0.1270
-6 11 12 -0.7628 -0.2469
-6 11 13 0.7364 -0.3559
-6 12 1 -0.0718 -0.0251
-6 12 2 -1.8531 -0.0290
-6 12 3 -0.3615 0.0938
-6 12 4 -0.8959 0.0014
-6 12 5 0.0073 -0.0602
-6 12 6 -0.0392 -0.0429
-6 12 7 -0.4147 0.0018
-6 12 8 -0.4323 0.0521
-6 12 9 -0.1380 -0.0043
-6 12 10 0.1416 -0.0166
-6 12 11 0.5552 -0.1496
-6 12 12 -0.2447 -0.0427
-6 12 13 0.0490 -0.4580
-6 13 1 0.0688 0.0499
-6 13 2 -0.0468 -0.1205
-6 13 3 -0.0610 -0.0128
-6 13 4 2.7726 0.1192
-6 13 5 -0.5357 0.0338
-6 13 6 2.0364 -0.0637
-6 13 7 -0.1972 -0.0680
-6 13 8 0.0968 -0.0599
-6 13 9 -2.8320 0.0121
-6 13 10 1.2745 0.0140
-6 13 11 -1.0894 -0.2323
-6 13 12 0.2482 -0.0041
-6 14 1 0.9624 0.0948
-6 14 2 1.2273 0.0403
-6 14 3 -1.8401 -0.0860
-6 14 4 1.1394 0.0288
-6 14 5 0.6667 0.1313
-6 14 6 -0.8030 0.0235
-6 14 7 -0.3642 -0.0414
-6 14 8 2.0024 -0.0258
-6 14 9 -0.8204 0.1404
-6 14 10 -1.2705 0.0514
-6 14 11 -0.1108 0.2069
-6 14 12 0.2851 -0.0369
-6 15 1 -0.2045 0.0345
-6 15 2 0.3228 0.1210
-6 15 3 -0.7242 0.0165
-6 15 4 -3.2856 -0.0908
-6 15 5 1.8658 -0.0141
-6 15 6 -0.8647 0.0209
-6 15 7 -1.7479 -0.0712
-6 15 8 -1.4314 -0.0297
-6 15 9 2.8399 0.1084
-6 15 10 -1.4082 0.2104
-6 15 11 0.4282 0.2835
-6 16 1 -1.1228 -0.0505
-6 16 2 -0.7991 -0.0420
-6 16 3 2.7760 -0.0658
-6 16 4 -0.8550 -0.0087
-6 16 5 -1.1874 -0.0504
-6 16 6 0.6457 0.0301
-6 16 7 1.5211 -0.0660
-6 16 8 -1.9950 -0.0452
-6 16 9 0.0980 -0.1747
-6 16 10 0.7655 0.0384
-6 16 11 -0.1940 -0.0602
-6 17 1 0.1122 -0.0029
-6 17 2 -0.1296 -0.0253
-6 17 3 0.8837 -0.0578
-6 17 4 2.0694 -0.0595
-6 17 5 -1.5588 -0.1096
-6 17 6 0.1686 0.0221
-6 17 7 2.2741 0.2273
-6 17 8 2.1400 0.0575
-6 17 9 -1.9827 -0.1316
-6 17 10 0.7972 -0.3451
-6 18 1 0.1648 -0.0793
-6 18 2 0.0892 -0.0618
-6 18 3 -1.4473 0.0287
-6 18 4 0.1281 -0.0567
-6 18 5 0.9058 0.0246
-6 18 6 0.6960 0.0564
-6 18 7 -1.1877 0.3725
-6 18 8 1.4507 0.0995
-6 18 9 0.6145 -0.0586
-6 18 10 0.0322 -0.1877
-6 19 1 0.9275 -0.1411
-6 19 2 -0.1073 0.0906
-6 19 3 -0.3655 0.1392
-6 19 4 0.1677 0.0510
-6 19 5 -0.0534 0.1282
-6 19 6 -0.8463 -0.0154
-6 19 7 -1.9465 -0.1665
-6 19 8 -1.0046 0.0734
-6 19 9 1.5780 0.0760
-6 20 1 0.6912 0.0866
-6 20 2 0.4119 0.2133
-6 20 3 -0.4183 0.3077
-6 20 4 0.5450 0.1652
-6 20 5 0.0050 -0.1669
-6 20 6 -1.3128 -0.3364
-6 20 7 0.1527 -0.6228
-6 20 8 -0.8105 -0.1223
-6 21 1 -1.5493 0.2578
-6 21 2 -0.4728 -0.3249
-6 21 3 -0.2013 -0.3206
-6 21 4 -1.2451 0.0694
-6 21 5 0.9165 0.0698
-6 21 6 1.2039 -0.0210
-6 22 1 -0.6857 0.0552
-6 22 2 -0.0493 -0.1530
-6 22 3 0.8534 -0.4763
-6 22 4 -0.6770 -0.2630
-6 22 5 -0.2932 0.2614
-5 0 1 27.4951 0.1472
-5 0 2 2.2487 0.2516
-5 0 3 -5.2150 0.0321
-5 0 4 6.4661 -0.2137
-5 0 5 0.1551 -0.1508
-5 0 6 -4.5959 0.1047
-5 0 7 5.7416 0.2382
-5 0 8 0.6672 0.0391
-5 0 9 -0.2152 -0.1858
-5 0 10 2.6572 -0.1606
-5 0 11 3.3527 0.0214
-5 0 12 4.1005 0.1573
-5 0 13 -0.3367 0.0219
-5 0 14 -1.4409 -0.1336
-5 0 15 1.9271 0.0638
-5 1 1 -11.9809 0.1148
-5 1 2 20.7030 0.0097
-5 1 3 -21.8848 -0.0938
-5 1 4 0.2919 -0.0300
-5 1 5 2.9126 0.0666
-5 1 6 2.2012 0.0253
-5 1 7 -5.1526 -0.0457
-5 1 8 2.1921 -0.0594
-5 1 9 -0.3755 -0.0112
-5 1 10 -0.1426 0.0757
-5 1 11 0.7317 0.0249
-5 1 12 -1.7006 -0.0212
-5 1 13 -0.1664 0.0015
-5 1 14 -3.4539 -0.0854
-5 1 15 0.4289 -0.0575
-5 2 1 -24.5354 -0.0632
-5 2 2 -2.7940 -0.0721
-5 2 3 3.0886 0.0086
-5 2 4 -4.6637 0.0680
-5 2 5 0.5384 0.0321
-5 2 6 3.1656 -0.0528
-5 2 7 -5.6407 -0.0829
-5 2 8 0.2742 -0.0059
-5 2 9 0.2039 0.0071
-5 2 10 -2.5201 -0.0315
-5 2 11 -2.0482 0.0040
-5 2 12 -4.1125 -0.0004
-5 2 13 -0.5602 -0.0637
-5 2 14 2.1749 0.0765
-5 2 15 -1.4443 0.0923
-5 3 1 9.5189 -0.1005
-5 3 2 -14.7356 0.0020
-5 3 3 18.5193 0.1166
-5 3 4 -1.2132 0.0331
-5 3 5 -0.5927 -0.0544
-5 3 6 -1.5794 -0.0266
-5 3 7 2.4074 0.0348
-5 3 8 -1.8122 0.0562
-5 3 9 0.5575 0.0325
-5 3 10 -1.7932 -0.0715
-5 3 11 -1.4196 -0.0522
-5 3 12 3.9545 0.0698
-5 3 13 0.5114 0.0115
-5 3 14 2.8432 -0.0398
-5 3 15 0.4772 0.1317
-5 4 1 17.1191 -0.0637
-5 4 2 3.4186 0.0295
-5 4 3 1.2005 0.0408
-5 4 4 1.2954 0.0206
-5 4 5 -2.2249 0.0134
-5 4 6 -0.4052 0.0061
-5 4 7 5.4796 -0.0172
-5 4 8 -2.1780 -0.0235
-5 4 9 0.1681 -0.0104
-5 4 10 2.8706 0.0726
-5 4 11 0.1383 0.0201
-5 4 12 3.6165 -0.0659
-5 4 13 1.6670 0.0991
-5 4 14 -3.0789 -0.0188
-5 4 15 0.2343 0.0270
-5 5 1 -5.5786 0.0118
-5 5 2 7.0994 -0.0064
-5 5 3 -13.5142 -0.0389
-5 5 4 2.1439 0.0066
-5 5 5 -1.2912 0.0067
-5 5 6 0.0461 0.0315
-5 5 7 1.0167 0.0297
-5 5 8 0.9348 0.0431
-5 5 9 -1.4567 -0.0145
-5 5 10 2.9525 -0.0550
-5 5 11 2.6349 -0.0039
-5 5 12 -4.5860 -0.0103
-5 5 13 -0.7470 0.0495
-5 5 14 -1.8190 -0.0852
-5 5 15 -0.4388 -0.4236
-5 6 1 -8.9455 0.0623
-5 6 2 -3.2628 -0.0566
-5 6 3 -3.9127 -0.0270
-5 6 4 0.6222 0.0155
-5 6 5 3.6079 -0.0064
-5 6 6 -1.3469 -0.0053
-5 6 7 -4.8462 0.0326
-5 6 8 3.6772 -0.0181
-5 6 9 -1.0505 0.0172
-5 6 10 -3.9559 -0.0005
-5 6 11 0.1485 -0.0522
-5 6 12 -2.3722 0.0003
-5 6 13 -1.3853 -0.0560
-5 6 14 2.3181 0.0410
-5 6 15 0.7452 -0.2199
-5 7 1 2.2912 -0.0218
-5 7 2 -1.9525 -0.0300
-5 7 3 8.1891 0.0013
-5 7 4 -1.8999 -0.0042
-5 7 5 1.3472 0.0307
-5 7 6 1.4373 -0.0380
-5 7 7 -3.5018 -0.0139
-5 7 8 0.3656 0.0087
-5 7 9 2.5979 0.0051
-5 7 10 -1.8866 0.0266
-5 7 11 -2.9796 -0.0078
-5 7 12 2.9898 -0.0547
-5 7 13 0.5067 -0.1044
-5 7 14 0.8838 0.1476
-5 8 1 3.3772 0.0126
-5 8 2 2.9103 0.0180
-5 8 3 3.6917 -0.0385
-5 8 4 -0.7851 -0.0373
-5 8 5 -3.6223 0.0081
-5 8 6 1.6696 0.0156
-5 8 7 3.3504 -0.0291
-5 8 8 -3.8354 0.0650
-5 8 9 1.5463 0.0808
-5 8 10 4.0340 -0.0177
-5 8 11 0.2359 0.0304
-5 8 12 1.3850 0.0179
-5 8 13 0.6031 -0.0169
-5 8 14 -0.5296 -0.1070
-5 9 1 -0.6106 0.0366
-5 9 2 -0.1162 0.0016
-5 9 3 -3.7013 -0.0159
-5 9 4 0.3521 0.0263
-5 9 5 -0.5780 -0.0091
-5 9 6 -2.0967 0.0128
-5 9 7 4.1954 -0.0473
-5 9 8 -1.1651 -0.0922
-5 9 9 -2.0171 -0.0237
-5 9 10 0.0305 0.0623
-5 9 11 1.8234 0.0673
-5 9 12 -1.5607 -0.0775
-5 9 13 0.2502 -0.0372
-5 9 14 -0.5788 0.0017
-5 10 1 -1.1032 -0.0038
-5 10 2 -2.4386 0.0102
-5 10 3 -1.7793 0.0125
-5 10 4 0.3521 -0.0246
-5 10 5 2.7979 -0.0037
-5 10 6 -1.2097 -0.0074
-5 10 7 -1.9839 -0.0101
-5 10 8 1.9283 -0.0275
-5 10 9 -0.7754 -0.0459
-5 10 10 -2.1776 0.0278
-5 10 11 -0.1084 -0.0151
-5 10 12 -1.1752 0.0504
-5 10 13 -0.1030 0.0296
-5 10 14 -0.2426 0.1476
-5 11 1 -0.2037 0.0317
-5 11 2 0.5977 0.0333
-5 11 3 1.2336 -0.0229
-5 11 4 1.4118 -0.0519
-5 11 5 -0.3437 0.0038
-5 11 6 2.1640 0.0276
-5 11 7 -2.7754 0.0217
-5 11 8 0.9172 -0.0063
-5 11 9 -0.7740 0.0218
-5 11 10 0.8758 0.0148
-5 11 11 -0.6450 -0.0643
-5 11 12 1.0171 0.2621
-5 11 13 -0.9307 0.2943
-5 12 1 0.9266 0.0047
-5 12 2 1.6928 0.0238
-5 12 3 -0.6174 0.0102
-5 12 4 0.1603 0.0489
-5 12 5 -1.7991 0.0077
-5 12 6 0.2592 0.0132
-5 12 7 0.9323 0.0580
-5 12 8 0.8747 -0.0433
-5 12 9 -0.6368 -0.0693
-5 12 10 0.0723 -0.0568
-5 12 11 -0.1079 0.0993
-5 12 12 0.9937 -0.0399
-5 12 13 -0.2862 -0.0121
-5 13 1 0.2065 -0.0636
-5 13 2 -0.3652 0.0389
-5 13 3 -0.3509 0.0869
-5 13 4 -2.5246 -0.0285
-5 13 5 1.4492 -0.0663
-5 13 6 -1.3114 -0.0035
-5 13 7 0.4247 0.0637
-5 13 8 -0.9249 0.1015
-5 13 9 3.0255 -0.0177
-5 13 10 -0.8866 -0.1021
-5 13 11 0.3234 0.0828
-5 13 12 -1.0352 -0.1844
-5 13 13 0.6679 -0.3595
-5 14 1 -1.2824 -0.0977
-5 14 2 -1.1959 -0.0446
-5 14 3 2.8569 0.0323
-5 14 4 -0.4971 0.0083
-5 14 5 0.3118 -0.0366
-5 14 6 0.6794 -0.0222
-5 14 7 1.0434 -0.0217
-5 14 8 -2.1210 0.1032
-5 14 9 1.1477 -0.0015
-5 14 10 0.4943 -0.0031
-5 14 11 0.1108 -0.1909
-5 14 12 -0.4339 -0.0795
-5 15 1 0.5346 0.0177
-5 15 2 0.0074 -0.0390
-5 15 3 -0.1485 -0.0418
-5 15 4 2.7729 0.1038
-5 15 5 -1.6760 0.0367
-5 15 6 -0.2135 -0.0813
-5 15 7 1.2210 -0.0465
-5 15 8 1.9987 -0.0302
-5 15 9 -2.7134 0.0308
-5 15 10 0.8737 0.0018
-5 15 11 -0.0505 -0.1798
-5 15 12 1.4157 -0.0342
-5 16 1 0.8957 0.1062
-5 16 2 0.7220 -0.0288
-5 16 3 -3.5936 -0.0233
-5 16 4 0.3983 -0.0105
-5 16 5 1.1493 0.0657
-5 16 6 -0.8079 -0.0052
-5 16 7 -3.0387 -0.0132
-5 16 8 1.8144 -0.1361
-5 16 9 -0.3979 0.1303
-5 16 10 0.1203 0.0888
-5 16 11 0.0160 0.1319
-5 17 1 -0.4228 0.0365
-5 17 2 -0.2385 -0.0800
-5 17 3 0.2550 -0.0878
-5 17 4 -1.8606 -0.0682
-5 17 5 0.1500 0.1232
-5 17 6 0.5500 0.0789
-5 17 7 -1.8681 -0.1323
-5 17 8 -2.3457 -0.0077
-5 17 9 1.4598 0.0562
-5 17 10 -0.9685 0.1303
-5 17 11 -0.3935 0.1801
-5 18 1 -0.0786 0.0040
-5 18 2 0.1062 0.1525
-5 18 3 2.0144 0.0211
-5 18 4 -0.0839 -0.0381
-5 18 5 -1.2124 -0.0920
-5 18 6 0.3383 -0.0441
-5 18 7 2.7977 -0.1310
-5 18 8 -1.5844 0.0745
-5 18 9 -0.3658 -0.0892
-5 18 10 -0.5583 -0.0429
-5 19 1 -0.8921 -0.0526
-5 19 2 0.5932 -0.0042
-5 19 3 0.1284 0.0431
-5 19 4 -0.0030 0.0402
-5 19 5 1.5557 -0.0967
-5 19 6 0.5406 0.0896
-5 19 7 1.8232 0.2772
-5 19 8 0.7472 -0.0800
-5 19 9 -1.0363 -0.2266
-5 19 10 0.7022 -0.0971
-5 20 1 0.2373 -0.0385
-5 20 2 -0.2795 -0.1015
-5 20 3 0.0936 -0.0658
-5 20 4 -0.2138 -0.0385
-5 20 5 0.1697 0.0858
-5 20 6 -0.3466 0.2759
-5 20 7 -1.0847 0.3398
-5 20 8 1.2269 0.0091
-5 20 9 0.3452 0.0157
-5 21 1 1.4039 -0.0266
-5 21 2 -0.2187 0.2635
-5 21 3 -0.3336 0.2712
-5 21 4 1.3936 -0.0388
-5 21 5 -1.5578 -0.2181
-5 21 6 -1.0128 -0.2618
-5 21 7 -1.2518 -0.1842
-5 21 8 0.9470 0.0961
-5 22 1 -1.0426 0.0275
-5 22 2 -0.4862 -0.1790
-5 22 3 -0.4735 -0.0690
-5 22 4 0.6079 0.1657
-5 22 5 0.3471 0.0082
-5 22 6 0.8912 -0.4438
-5 22 7 0.1377 -0.3287
-5 23 1 -0.4828 0.1474
-5 23 2 -0.2209 -0.2578
-5 23 3 0.3025 -0.4774
-5 23 4 -1.3240 -0.0174
-5 23 5 0.6089 0.3967
-4 0 1 -38.1894 -0.1951
-4 0 2 2.8524 -0.0989
-4 0 3 12.1889 0.1376
-4 0 4 -4.5613 0.1857
-4 0 5 -6.0217 0.0122
-4 0 6 4.7471 -0.1930
-4 0 7 -4.8931 -0.1573
-4 0 8 -0.5795 0.1122
-4 0 9 -0.6891 0.2096
-4 0 10 -2.0735 0.0067
-4 0 11 -2.9141 -0.1845
-4 0 12 -3.5973 -0.0874
-4 0 13 1.7571 0.1432
-4 0 14 1.1067 0.1562
-4 0 15 -1.3662 -0.0090
-4 1 1 25.8187 0.0946
-4 1 2 -20.0700 0.0279
-4 1 3 24.1692 -0.0882
-4 1 4 -0.5801 -0.0035
-4 1 5 -4.5108 0.0641
-4 1 6 -0.8741 0.0290
-4 1 7 6.1543 0.0277
-4 1 8 -2.1350 0.0574
-4 1 9 -0.3429 0.0204
-4 1 10 0.9998 -0.0266
-4 1 11 1.7500 -0.0218
-4 1 12 3.9211 -0.0224
-4 1 13 -1.2759 0.0313
-4 1 14 1.5891 0.0172
-4 1 15 0.1748 -0.0813
-4 2 1 33.5358 0.1059
-4 2 2 -2.4808 -0.0532
-4 2 3 -9.2556 -0.1226
-4 2 4 2.2459 -0.0479
-4 2 5 4.5751 0.0215
-4 2 6 -3.1321 0.0345
-4 2 7 4.8643 -0.0180
-4 2 8 -0.5412 -0.0469
-4 2 9 0.9185 -0.0123
-4 2 10 2.8947 0.0540
-4 2 11 1.9204 0.0682
-4 2 12 2.9372 -0.0136
-4 2 13 -1.6342 -0.0023
-4 2 14 -1.6838 -0.0223
-4 2 15 1.5491 -0.0305
-4 3 1 -20.6903 -0.0089
-4 3 2 11.9483 -0.0707
-4 3 3 -20.0342 -0.0187
-4 3 4 3.0846 0.0110
-4 3 5 2.0172 0.0049
-4 3 6 -0.2780 -0.0012
-4 3 7 -3.2259 -0.0437
-4 3 8 2.0777 -0.0401
-4 3 9 -0.5103 0.0141
-4 3 10 0.3443 0.0119
-4 3 11 -0.7237 -0.0035
-4 3 12 -5.6970 -0.0002
-4 3 13 0.6122 -0.0535
-4 3 14 -1.2158 0.0352
-4 3 15 -0.4535 0.0491
-4 4 1 -22.4832 0.0084
-4 4 2 1.8269 0.0888
-4 4 3 3.0530 -0.0118
-4 4 4 1.6942 -0.1030
-4 4 5 -1.2040 -0.0062
-4 4 6 0.0957 0.1005
-4 4 7 -4.9829 0.0617
-4 4 8 2.6845 -0.0336
-4 4 9 -1.3022 -0.0342
-4 4 10 -4.7336 -0.0122
-4 4 11 -0.6469 0.0621
-4 4 12 -1.6256 0.0375
-4 4 13 1.3487 -0.1267
-4 4 14 2.3457 0.0624
-4 4 15 -1.2554 0.0726
-4 5 1 13.3551 -0.0162
-4 5 2 -2.2512 0.0800
-4 5 3 14.4963 0.0318
-4 5 4 -5.2467 -0.0490
-4 5 5 -0.0722 -0.0555
-4 5 6 2.3132 -0.0189
-4 5 7 -0.3940 0.0075
-4 5 8 -1.6902 -0.0470
-4 5 9 2.0398 -0.0489
-4 5 10 -0.7269 0.0092
-4 5 11 -0.8988 0.0303
-4 5 12 5.8112 0.0176
-4 5 13 0.0727 0.0502
-4 5 14 0.2266 0.1053
-4 5 15 -0.1125 0.2330
-4 6 1 11.3111 0.0077
-4 6 2 -1.0486 0.0041
-4 6 3 1.5674 0.0265
-4 6 4 -3.0477 0.0530
-4 6 5 -1.9157 0.0004
-4 6 6 1.6642 -0.0580
-4 6 7 4.9358 -0.0201
-4 6 8 -3.9374 0.0285
-4 6 9 1.2849 -0.0050
-4 6 10 5.6671 -0.0125
-4 6 11 0.5759 -0.0395
-4 6 12 0.7795 0.0537
-4 6 13 -0.8626 0.1423
-4 6 14 -1.6341 -0.1513
-4 6 15 0.0304 -0.0731
-4 7 1 -7.1882 -0.0200
-4 7 2 -2.9842 0.0092
-4 7 3 -9.2453 0.0458
-4 7 4 4.8410 0.0113
-4 7 5 0.1867 -0.0194
-4 7 6 -3.8632 0.0292
-4 7 7 2.9200 0.0295
-4 7 8 0.7616 -0.0066
-4 7 9 -3.0242 -0.0156
-4 7 10 -0.3974 -0.0063
-4 7 11 1.7493 -0.0065
-4 7 12 -3.8387 0.0543
-4 7 13 -0.5771 0.0009
-4 7 14 0.4175 -0.1734
-4 7 15 1.1341 -0.2826
-4 8 1 -4.4746 -0.0608
-4 8 2 -0.1325 -0.0474
-4 8 3 -2.3090 0.0625
-4 8 4 1.9833 0.0617
-4 8 5 3.2650 -0.0258
-4 8 6 -1.7544 -0.0353
-4 8 7 -3.8700 0.0276
-4 8 8 3.3950 0.0350
-4 8 9 -0.7571 0.0007
-4 8 10 -4.1110 -0.0375
-4 8 11 -0.4200 -0.0629
-4 8 12 -0.9255 -0.0782
-4 8 13 0.2232 -0.0553
-4 8 14 0.2587 0.1051
-4 9 1 3.1668 0.0473
-4 9 2 3.3675 -0.0288
-4 9 3 4.7582 -0.0337
-4 9 4 -2.4751 0.0235
-4 9 5 -1.2209 0.0522
-4 9 6 3.9363 -0.0177
-4 9 7 -3.5055 0.0010
-4 9 8 0.3227 0.0988
-4 9 9 1.8754 0.0587
-4 9 10 1.3853 -0.0148
-4 9 11 -1.0059 -0.0176
-4 9 12 2.1305 -0.0793
-4 9 13 0.6003 -0.0693
-4 9 14 0.1668 0.0387
-4 10 1 1.9487 -0.0057
-4 10 2 0.9798 -0.0020
-4 10 3 0.3928 -0.0217
-4 10 4 -0.6440 -0.0070
-4 10 5 -2.9365 0.0136
-4 10 6 1.1831 -0.0085
-4 10 7 1.9962 -0.0291
-4 10 8 -1.1111 -0.0291
-4 10 9 0.1222 -0.0270
-4 10 10 1.2864 0.0059
-4 10 11 -0.3747 0.0509
-4 10 12 1.7018 -0.0548
-4 10 13 -0.0059 -0.0866
-4 10 14 -0.0297 -0.0687
-4 11 1 -0.8200 -0.0111
-4 11 2 -1.9291 -0.0249
-4 11 3 -1.7601 -0.0495
-4 11 4 0.1087 0.0074
-4 11 5 2.1041 0.0223
-4 11 6 -2.8812 -0.0150
-4 11 7 2.2444 -0.0468
-4 11 8 -0.8702 -0.0463
-4 11 9 0.9193 0.0246
-4 11 10 -1.3994 0.0320
-4 11 11 -0.1978 -0.0279
-4 11 12 -1.4155 -0.0423
-4 11 13 0.0530 0.0915
-4 11 14 -1.0128 0.0722
-4 12 1 -1.4098 0.0692
-4 12 2 -1.0525 0.0023
-4 12 3 1.9549 -0.0803
-4 12 4 -0.3709 -0.0591
-4 12 5 1.5754 0.0373
-4 12 6 -0.6422 0.0751
-4 12 7 0.0106 -0.0282
-4 12 8 -1.2979 -0.0169
-4 12 9 0.2913 0.0855
-4 12 10 0.1834 0.0890
-4 12 11 0.9172 -0.0045
-4 12 12 -1.8374 0.1512
-4 12 13 0.3552 0.2098
-4 13 1 0.3304 -0.0388
-4 13 2 0.5609 0.0028
-4 13 3 0.0888 0.0350
-4 13 4 1.3116 -0.0221
-4 13 5 -2.4468 -0.0303
-4 13 6 1.0864 0.0234
-4 13 7 -0.6781 -0.0170
-4 13 8 1.0549 -0.0461
-4 13 9 -2.6413 -0.0555
-4 13 10 1.0887 -0.0394
-4 13 11 0.5195 0.0698
-4 13 12 1.2239 0.1692
-4 13 13 -0.3872 -0.0484
-4 14 1 1.0676 -0.0330
-4 14 2 1.0959 0.0474
-4 14 3 -3.4185 0.0594
-4 14 4 0.8434 -0.0275
-4 14 5 0.1248 -0.0336
-4 14 6 0.2198 -0.0087
-4 14 7 -2.1840 0.0605
-4 14 8 1.9008 -0.0399
-4 14 9 -0.4009 -0.0766
-4 14 10 0.1586 -0.0492
-4 14 11 -1.1843 0.0888
-4 14 12 0.6790 -0.0672
-4 14 13 -0.5107 -0.2171
-4 15 1 -0.9474 0.0476
-4 15 2 0.4093 0.0090
-4 15 3 1.0489 0.0021
-4 15 4 -1.9568 0.0081
-4 15 5 1.5525 0.0013
-4 15 6 0.8644 0.0126
-4 15 7 -0.1928 0.1338
-4 15 8 -1.5589 0.0687
-4 15 9 1.9400 -0.0610
-4 15 10 -1.1627 0.0386
-4 15 11 -0.3012 -0.0123
-4 15 12 -1.2374 -0.1807
-4 16 1 -0.2896 0.0201
-4 16 2 -0.9622 0.0308
-4 16 3 3.4142 0.0455
-4 16 4 -0.2518 0.0677
-4 16 5 -1.0077 -0.0555
-4 16 6 0.3141 -0.0523
-4 16 7 3.7254 -0.0328
-4 16 8 -1.3799 0.1081
-4 16 9 0.3344 0.0214
-4 16 10 -0.6764 -0.0546
-4 16 11 1.1813 -0.1796
-4 16 12 0.4787 -0.0448
-4 17 1 0.6643 -0.0624
-4 17 2 -0.5284 0.0507
-4 17 3 -1.2520 0.0767
-4 17 4 1.8418 -0.0103
-4 17 5 0.4748 -0.0659
-4 17 6 -1.6244 -0.0120
-4 17 7 0.9187 -0.0971
-4 17 8 1.6705 -0.0811
-4 17 9 -0.6206 0.1033
-4 17 10 1.5644 -0.0184
-4 17 11 0.3340 -0.0650
-4 18 1 -0.3487 -0.0147
-4 18 2 0.0594 -0.1676
-4 18 3 -1.9038 -0.1298
-4 18 4 -0.7082 0.0096
-4 18 5 0.5820 0.1156
-4 18 6 -0.8439 0.0039
-4 18 7 -2.9140 0.0119
-4 18 8 1.4395 0.0107
-4 18 9 -0.4866 0.0247
-4 18 10 0.3944 -0.0218
-4 18 11 -0.4971 0.1157
-4 19 1 0.2869 0.0796
-4 19 2 -0.1771 -0.0338
-4 19 3 0.3357 -0.1232
-4 19 4 -0.7359 0.0185
-4 19 5 -1.8543 0.0486
-4 19 6 0.9717 -0.1043
-4 19 7 -1.3375 -0.0504
-4 19 8 -0.1650 0.0809
-4 19 9 0.4654 0.0054
-4 19 10 -1.4988 -0.0419
-4 20 1 -0.0896 -0.0773
-4 20 2 0.6460 0.0498
-4 20 3 0.0955 0.0703
-4 20 4 0.9129 0.0048
-4 20 5 0.1068 -0.0147
-4 20 6 1.0019 -0.0076
-4 20 7 0.2818 -0.0207
-4 20 8 -1.4997 -0.1788
-4 20 9 0.7848 -0.0698
-4 21 1 0.0590 -0.0300
-4 21 2 0.5511 0.0173
-4 21 3 0.1975 0.0395
-4 21 4 -0.8515 -0.0441
-4 21 5 1.4035 0.1603
-4 21 6 -0.2801 0.2500
-4 21 7 0.8076 0.0462
-4 21 8 -1.7142 -0.0294
-4 22 1 0.9884 0.0983
-4 22 2 -0.4825 0.2702
-4 22 3 0.4129 0.2028
-4 22 4 -0.6976 -0.0807
-4 22 5 -0.1343 -0.1820
-4 22 6 -0.9861 0.0902
-4 22 7 1.4143 0.0160
-4 23 1 -1.2634 -0.0003
-4 23 2 -0.1668 -0.1691
-4 23 3 0.3794 -0.0278
-4 23 4 1.7205 0.0719
-4 23 5 -0.3371 -0.2651
-4 23 6 0.1860 -0.2574
-4 24 1 -0.8898 0.0378
-4 24 2 0.4136 -0.3721
-4 24 3 0.1383 -0.4127
-4 24 4 0.7825 0.0271
-3 0 1 40.5994 -0.0048
-3 0 2 -11.6798 0.1355
-3 0 3 -18.6862 -0.0591
-3 0 4 4.4343 -0.2406
-3 0 5 13.0131 0.0109
-3 0 6 -6.0638 0.2395
-3 0 7 3.5986 0.0348
-3 0 8 0.2905 -0.2115
-3 0 9 2.4134 -0.1404
-3 0 10 2.7049 0.1100
-3 0 11 0.3221 0.2019
-3 0 12 1.7296 0.0028
-3 0 13 -0.8937 -0.1719
-3 0 14 0.1508 -0.0808
-3 0 15 0.1334 0.0919
-3 1 1 -41.5210 0.0056
-3 1 2 22.9072 0.1348
-3 1 3 -18.6245 0.0520
-3 1 4 -1.3440 -0.0534
-3 1 5 2.1705 -0.0371
-3 1 6 -0.9517 -0.0123
-3 1 7 -5.6065 0.0024
-3 1 8 1.5320 -0.0009
-3 1 9 0.2681 -0.0196
-3 1 10 -2.8331 -0.0466
-3 1 11 -3.8389 -0.0255
-3 1 12 -3.5122 0.0507
-3 1 13 2.2744 -0.0040
-3 1 14 -1.5338 0.0469
-3 1 15 0.9868 0.0789
-3 2 1 -34.5575 0.1242
-3 2 2 11.7970 -0.0484
-3 2 3 14.3231 -0.0134
-3 2 4 -2.4279 0.1488
-3 2 5 -10.5387 0.0247
-3 2 6 4.5611 -0.0686
-3 2 7 -3.8656 0.0596
-3 2 8 0.6716 0.0534
-3 2 9 -2.3972 0.0285
-3 2 10 -3.4044 0.0046
-3 2 11 0.4703 -0.1088
-3 2 12 -0.8968 -0.0098
-3 2 13 1.3938 0.0612
-3 2 14 0.3026 -0.0524
-3 2 15 -0.7779 -0.1686
-3 3 1 32.3082 -0.0279
-3 3 2 -12.7087 -0.0660
-3 3 3 14.8359 0.0307
-3 3 4 -3.5749 0.0314
-3 3 5 -0.3267 -0.0555
-3 3 6 2.7626 -0.0294
-3 3 7 2.7827 0.0274
-3 3 8 -1.9384 0.0321
-3 3 9 1.0774 -0.0222
-3 3 10 2.6065 -0.0362
-3 3 11 3.0880 0.0291
-3 3 12 4.0726 -0.0063
-3 3 13 -2.4139 0.0160
-3 3 14 1.7295 -0.0866
-3 3 15 0.2483 -0.0233
-3 4 1 20.6360 -0.1387
-3 4 2 -11.8130 -0.0189
-3 4 3 -5.2253 0.0914
-3 4 4 -0.8017 0.0358
-3 4 5 4.7838 -0.0190
-3 4 6 -1.6792 -0.0855
-3 4 7 4.8108 -0.0630
-3 4 8 -2.5011 0.0881
-3 4 9 1.8908 0.0532
-3 4 10 4.9005 -0.0698
-3 4 11 -1.2651 -0.0438
-3 4 12 -0.4833 -0.0133
-3 4 13 -1.7787 0.0150
-3 4 14 -0.7191 -0.0121
-3 4 15 1.1604 0.0393
-3 5 1 -19.8420 0.0516
-3 5 2 0.5754 0.0283
-3 5 3 -10.7089 -0.0859
-3 5 4 7.9576 -0.0153
-3 5 5 -0.5284 0.1203
-3 5 6 -5.3901 0.0278
-3 5 7 0.3981 -0.0054
-3 5 8 2.1505 0.0169
-3 5 9 -2.7448 0.0124
-3 5 10 -2.7321 0.0883
-3 5 11 -1.5790 -0.0012
-3 5 12 -4.0472 -0.0502
-3 5 13 2.0160 -0.0575
-3 5 14 -0.5228 0.0435
-3 5 15 -0.4042 -0.0264
-3 6 1 -7.6537 0.0293
-3 6 2 10.3409 -0.0297
-3 6 3 -1.3631 -0.0565
-3 6 4 1.4969 -0.0403
-3 6 5 0.6543 0.0003
-3 6 6 -0.1463 0.0557
-3 6 7 -5.7577 0.0040
-3 6 8 3.4397 -0.0654
-3 6 9 -0.6216 -0.0284
-3 6 10 -5.5514 0.0300
-3 6 11 0.7569 0.0404
-3 6 12 1.0256 -0.0129
-3 6 13 1.1045 -0.0109
-3 6 14 0.1259 0.0992
-3 6 15 0.0637 0.0734
-3 7 1 10.3395 0.0072
-3 7 2 5.7080 -0.0440
-3 7 3 7.4780 -0.0064
-3 7 4 -7.8832 0.0072
-3 7 5 -0.7920 -0.0187
-3 7 6 6.6765 0.0215
-3 7 7 -2.1850 -0.0527
-3 7 8 -1.4215 -0.0419
-3 7 9 3.0578 0.0560
-3 7 10 2.4904 -0.0268
-3 7 11 0.0464 0.0054
-3 7 12 3.4145 0.0083
-3 7 13 -0.7207 0.0893
-3 7 14 -1.1383 0.0397
-3 7 15 -0.7271 -0.0492
-3 8 1 1.2542 0.0262
-3 8 2 -6.5485 0.0749
-3 8 3 2.3375 -0.0319
-3 8 4 -0.1641 -0.0767
-3 8 5 -3.1772 0.0082
-3 8 6 0.5715 0.0409
-3 8 7 4.9817 0.0055
-3 8 8 -2.7417 -0.0362
-3 8 9 -0.5447 -0.0409
-3 8 10 4.0961 0.0190
-3 8 11 -0.3740 0.0672
-3 8 12 -0.6235 0.0968
-3 8 13 -0.5150 0.0240
-3 8 14 0.5425 -0.0889
-3 9 1 -5.1129 -0.0568
-3 9 2 -5.3908 0.0164
-3 9 3 -4.1296 0.0478
-3 9 4 4.5005 0.0011
-3 9 5 2.5267 -0.0481
-3 9 6 -5.4131 -0.0304
-3 9 7 2.4325 0.0413
-3 9 8 -0.1903 0.0131
-3 9 9 -1.3738 -0.0489
-3 9 10 -1.4072 -0.0261
-3 9 11 0.1381 -0.0291
-3 9 12 -2.9402 0.0900
-3 9 13 -0.2010 0.0158
-3 9 14 1.2427 -0.0288
-3 10 1 -0.2496 0.0166
-3 10 2 2.3926 0.0020
-3 10 3 0.1618 0.0486
-3 10 4 -1.0337 0.0334
-3 10 5 2.7594 -0.0218
-3 10 6 -0.6434 0.0018
-3 10 7 -2.3021 0.0383
-3 10 8 0.7449 0.0434
-3 10 9 0.8420 0.0502
-3 10 10 -1.5060 0.0049
-3 10 11 0.8981 -0.0281
-3 10 12 -0.4518 -0.1167
-3 10 13 0.8312 -0.0678
-3 10 14 -0.1815 0.1637
-3 11 1 2.3477 -0.0071
-3 11 2 2.5562 0.0353
-3 11 3 1.1469 0.0426
-3 11 4 -0.8744 -0.0085
-3 11 5 -2.9405 -0.0357
-3 11 6 2.8315 -0.0195
-3 11 7 -1.8053 0.0334
-3 11 8 1.4564 0.0192
-3 11 9 -0.8441 -0.0607
-3 11 10 0.6341 -0.0299
-3 11 11 0.9546 0.0344
-3 11 12 2.4833 -0.1308
-3 11 13 -0.4136 -0.1943
-3 11 14 -0.4560 -0.0273
-3 12 1 0.6207 -0.0148
-3 12 2 0.0520 -0.0578
-3 12 3 -2.6577 -0.0103
-3 12 4 1.7220 0.0757
-3 12 5 -1.0115 0.0108
-3 12 6 1.0268 -0.0842
-3 12 7 -0.4036 -0.0424
-3 12 8 1.2592 0.0019
-3 12 9 -0.6025 0.0090
-3 12 10 -0.0174 -0.0261
-3 12 11 -1.4864 -0.1288
-3 12 12 1.2371 0.0220
-3 12 13 -1.2474 0.0644
-3 13 1 -1.2611 0.0849
-3 13 2 -0.3074 -0.0436
-3 13 3 0.5052 -0.0613
-3 13 4 -1.3335 0.0241
-3 13 5 2.1309 0.0634
-3 13 6 -0.4777 0.0390
-3 13 7 1.2605 -0.0275
-3 13 8 -1.5919 -0.0216
-3 13 9 1.6378 0.1076
-3 13 10 -0.6690 0.0694
-3 13 11 -1.3664 -0.0477
-3 13 12 -1.6443 0.0981
-3 13 13 1.2284 0.2031
-3 14 1 -0.5576 -0.0264
-3 14 2 -1.3076 0.0082
-3 14 3 3.5251 -0.0103
-3 14 4 -1.7868 -0.0470
-3 14 5 -0.4289 0.0341
-3 14 6 -1.2294 0.0263
-3 14 7 2.1528 -0.0399
-3 14 8 -1.8857 0.0354
-3 14 9 0.4752 -0.0342
-3 14 10 -0.0520 -0.0336
-3 14 11 1.8040 0.1657
-3 14 12 -0.6659 0.0707
-3 14 13 1.0643 -0.0416
-3 15 1 1.2697 -0.0811
-3 15 2 -0.8874 0.0450
-3 15 3 -1.3164 -0.0201
-3 15 4 1.9586 -0.0496
-3 15 5 -0.9928 0.0055
-3 15 6 -1.3781 -0.0184
-3 15 7 -0.7506 -0.0575
-3 15 8 1.3467 -0.0118
-3 15 9 -0.8923 -0.0475
-3 15 10 0.8093 0.0025
-3 15 11 0.4301 0.0751
-3 15 12 0.7400 -0.0637
-3 16 1 0.2478 0.0006
-3 16 2 1.8537 -0.0188
-3 16 3 -3.0893 -0.0171
-3 16 4 0.5441 0.0129
-3 16 5 0.8226 -0.0405
-3 16 6 0.4568 0.0524
-3 16 7 -3.0978 0.1302
-3 16 8 1.4145 -0.0851
-3 16 9 -0.7994 -0.0328
-3 16 10 0.3140 0.0783
-3 16 11 -1.6237 -0.0680
-3 16 12 -0.2848 -0.0606
-3 17 1 -0.8172 0.0403
-3 17 2 1.0400 -0.0376
-3 17 3 1.5228 0.0489
-3 17 4 -1.4530 0.0575
-3 17 5 -0.0586 0.0085
-3 17 6 2.2738 0.0438
-3 17 7 -0.4788 0.0507
-3 17 8 -0.9214 0.0182
-3 17 9 0.2640 0.0349
-3 17 10 -0.9345 -0.0764
-3 17 11 0.2831 -0.0711
-3 18 1 0.1927 0.0213
-3 18 2 -0.9308 0.1083
-3 18 3 1.9672 0.0767
-3 18 4 1.1778 -0.0681
-3 18 5 -0.6240 0.0144
-3 18 6 0.5624 -0.0118
-3 18 7 2.2451 -0.1198
-3 18 8 -1.2003 0.0289
-3 18 9 1.5321 0.1168
-3 18 10 0.1058 0.0166
-3 18 11 0.6358 -0.0004
-3 19 1 -0.0307 0.0300
-3 19 2 -0.2524 0.0170
-3 19 3 -0.8595 -0.0092
-3 19 4 0.3644 -0.0426
-3 19 5 0.8996 -0.0567
-3 19 6 -1.4332 -0.1094
-3 19 7 1.6654 0.0361
-3 19 8 -0.6630 0.0773
-3 19 9 -0.7529 -0.1099
-3 19 10 0.9754 0.0580
-3 20 1 -0.5625 0.0332
-3 20 2 -0.6891 -0.0930
-3 20 3 -0.4553 -0.0735
-3 20 4 -1.5550 0.0710
-3 20 5 0.6706 -0.0696
-3 20 6 -0.5550 -0.0159
-3 20 7 0.6544 0.0392
-3 20 8 1.2909 0.0310
-3 20 9 -1.8334 -0.1382
-3 20 10 -0.5877 -0.1716
-3 21 1 -0.1720 -0.1110
-3 21 2 -0.1812 -0.1061
-3 21 3 0.3557 -0.0958
-3 21 4 0.8656 0.0155
-3 21 5 -1.0882 -0.0003
-3 21 6 -0.2238 0.1301
-3 21 7 -1.5178 -0.0130
-3 21 8 2.4188 -0.1876
-3 21 9 1.3063 0.1352
-3 22 1 0.5197 -0.0620
-3 22 2 1.2443 -0.0024
-3 22 3 -0.7984 -0.0322
-3 22 4 0.6783 -0.0196
-3 22 5 -0.9770 0.1958
-3 22 6 0.2241 -0.0481
-3 22 7 -2.6890 -0.0160
-3 22 8 -0.7637 0.0182
-3 23 1 0.9294 0.0617
-3 23 2 -0.5580 0.2715
-3 23 3 -0.9117 0.2704
-3 23 4 -1.6255 0.0456
-3 23 5 0.5281 0.0563
-3 23 6 0.8047 -0.1036
-3 23 7 0.6865 -0.0988
-3 24 1 -0.4092 0.0400
-3 24 2 -0.8840 0.0304
-3 24 3 1.1423 0.0985
-3 24 4 -0.1861 0.0217
-3 24 5 1.0427 -0.2423
-3 25 1 -0.8000 0.0983
-3 25 2 1.1078 -0.2587
-3 25 3 1.3433 -0.3156
-2 0 1 -31.3892 -0.2731
-2 0 2 16.4010 -0.0633
-2 0 3 18.2162 0.2602
-2 0 4 -2.9291 0.1304
-2 0 5 -15.8565 -0.1501
-2 0 6 8.8848 -0.1719
-2 0 7 -2.3600 0.0309
-2 0 8 -0.9302 0.1928
-2 0 9 -2.8477 0.1047
-2 0 10 -0.7865 -0.1403
-2 0 11 2.4322 -0.1462
-2 0 12 -1.4132 0.0862
-2 0 13 1.4017 0.1130
-2 0 14 -1.7167 -0.0706
-2 0 15 -2.1705 -0.1608
-2 1 1 49.3684 -0.0990
-2 1 2 -31.7625 0.0994
-2 1 3 7.3348 0.0024
-2 1 4 8.6797 -0.0768
-2 1 5 2.8407 0.0196
-2 1 6 1.8581 0.0060
-2 1 7 3.1853 -0.0274
-2 1 8 -0.5319 -0.0005
-2 1 9 2.8725 -0.0103
-2 1 10 5.2509 0.0221
-2 1 11 3.0949 0.0695
-2 1 12 2.8214 -0.0324
-2 1 13 -1.6827 -0.0410
-2 1 14 0.7643 0.0400
-2 1 15 -0.6101 0.0811
-2 2 1 25.3218 0.0701
-2 2 2 -17.5209 0.0754
-2 2 3 -12.6068 -0.0789
-2 2 4 2.1969 -0.0874
-2 2 5 12.6366 0.0357
-2 2 6 -7.6558 0.0555
-2 2 7 3.0314 -0.0367
-2 2 8 0.3392 -0.0579
-2 2 9 2.4979 -0.0294
-2 2 10 0.8927 0.0231
-2 2 11 -3.1719 0.0481
-2 2 12 0.9698 -0.0400
-2 2 13 -1.8513 0.0442
-2 2 14 0.8028 0.1032
-2 2 15 2.1040 0.0373
-2 3 1 -35.5941 0.0645
-2 3 2 19.6037 -0.1286
-2 3 3 -6.4732 0.0010
-2 3 4 -1.4355 0.0867
-2 3 5 -2.9243 0.0184
-2 3 6 -4.2856 -0.0117
-2 3 7 -1.2191 -0.0155
-2 3 8 1.2576 -0.0059
-2 3 9 -3.6714 0.0714
-2 3 10 -4.9507 0.0408
-2 3 11 -2.1688 -0.0936
-2 3 12 -2.2863 0.0502
-2 3 13 2.2981 0.0754
-2 3 14 -1.5653 -0.0502
-2 3 15 -1.0124 -0.1411
-2 4 1 -11.7680 -0.0111
-2 4 2 19.5209 -0.0453
-2 4 3 1.5028 -0.0058
-2 4 4 -1.4315 -0.0284
-2 4 5 -5.3028 0.0086
-2 4 6 5.1820 0.0470
-2 4 7 -4.7721 0.0025
-2 4 8 0.9019 -0.0420
-2 4 9 -1.2409 -0.0394
-2 4 10 -1.4842 0.0201
-2 4 11 3.9711 0.0470
-2 4 12 -0.0830 0.0398
-2 4 13 1.7481 -0.0929
-2 4 14 0.1764 -0.0689
-2 4 15 -1.2376 0.1369
-2 5 1 17.8705 -0.0411
-2 5 2 -4.9262 0.0560
-2 5 3 6.3376 0.0183
-2 5 4 -5.8491 -0.0146
-2 5 5 1.4558 -0.0453
-2 5 6 7.6486 0.0029
-2 5 7 -0.6893 0.0042
-2 5 8 -2.2202 0.0086
-2 5 9 4.3463 -0.0073
-2 5 10 4.8377 -0.0775
-2 5 11 0.8004 0.0198
-2 5 12 2.1027 -0.0735
-2 5 13 -1.9719 -0.0308
-2 5 14 0.5636 0.0276
-2 5 15 1.1347 -0.1169
-2 6 1 0.1274 0.0822
-2 6 2 -18.8426 0.0238
-2 6 3 5.2626 -0.0248
-2 6 4 2.2066 0.0544
-2 6 5 -1.1794 -0.0114
-2 6 6 -3.1736 -0.0422
-2 6 7 6.1262 0.0473
-2 6 8 -1.7628 0.0363
-2 6 9 -0.3793 0.0190
-2 6 10 2.6145 0.0017
-2 6 11 -3.3601 -0.0264
-2 6 12 -0.7962 -0.0466
-2 6 13 -0.3388 0.0103
-2 6 14 0.4687 0.0605
-2 6 15 -0.5155 -0.1256
-2 7 1 -6.4208 -0.0054
-2 7 2 -3.3099 -0.0086
-2 7 3 -6.0524 0.0274
-2 7 4 7.5861 -0.0060
-2 7 5 1.4574 0.0002
-2 7 6 -9.0866 -0.0247
-2 7 7 1.4619 0.0175
-2 7 8 2.2843 0.0065
-2 7 9 -3.7356 -0.0597
-2 7 10 -4.0926 0.0407
-2 7 11 0.5086 0.0059
-2 7 12 -2.1437 0.0396
-2 7 13 0.7128 -0.0740
-2 7 14 1.6111 -0.0188
-2 7 15 0.4958 0.3632
-2 8 1 4.2009 -0.0550
-2 8 2 13.3364 -0.0030
-2 8 3 -4.5628 0.0302
-2 8 4 -3.4010 0.0020
-2 8 5 3.4731 0.0211
-2 8 6 1.6978 -0.0072
-2 8 7 -5.0132 -0.0578
-2 8 8 1.6469 -0.0105
-2 8 9 1.0277 0.0469
-2 8 10 -3.1361 0.0057
-2 8 11 2.4746 -0.0468
-2 8 12 1.3076 -0.0212
-2 8 13 -0.4273 0.0262
-2 8 14 -1.2675 -0.0450
-2 9 1 2.8242 0.0360
-2 9 2 4.0231 0.0208
-2 9 3 3.7313 -0.0593
-2 9 4 -4.5984 -0.0143
-2 9 5 -3.4207 0.0340
-2 9 6 7.0594 0.0261
-2 9 7 -1.6082 -0.0128
-2 9 8 -0.9261 -0.0318
-2 9 9 1.8398 0.0367
-2 9 10 2.3961 -0.0238
-2 9 11 -0.6747 0.0212
-2 9 12 1.8287 0.0612
-2 9 13 -0.3725 0.0451
-2 9 14 -2.1360 -0.1161
-2 10 1 -3.2123 -0.0311
-2 10 2 -5.8530 -0.0430
-2 10 3 0.2788 -0.0064
-2 10 4 3.4067 0.0053
-2 10 5 -2.2904 0.0014
-2 10 6 -0.0899 0.0041
-2 10 7 1.7270 0.0069
-2 10 8 -0.5880 0.0221
-2 10 9 -0.7859 -0.0483
-2 10 10 1.9095 -0.0265
-2 10 11 -2.6230 0.0487
-2 10 12 -0.6492 0.1258
-2 10 13 0.1374 0.0443
-2 10 14 0.9432 -0.0738
-2 11 1 -2.2529 -0.0070
-2 11 2 -1.5240 0.0063
-2 11 3 -0.6494 0.0155
-2 11 4 0.6554 -0.0101
-2 11 5 2.9404 0.0007
-2 11 6 -3.4593 0.0259
-2 11 7 1.5613 0.0067
-2 11 8 -0.6826 0.0260
-2 11 9 -0.0017 -0.0076
-2 11 10 -1.1393 0.0681
-2 11 11 -0.5893 0.0138
-2 11 12 -1.2345 -0.1137
-2 11 13 1.3653 0.1108
-2 11 14 1.0576 0.3249
-2 12 1 1.4019 0.0182
-2 12 2 0.6209 0.0469
-2 12 3 3.0933 0.0063
-2 12 4 -2.6084 -0.0361
-2 12 5 0.4734 -0.0217
-2 12 6 -1.5442 0.0184
-2 12 7 0.9338 0.0535
-2 12 8 -0.9087 -0.0341
-2 12 9 0.7033 -0.0169
-2 12 10 0.0213 0.0215
-2 12 11 3.0853 -0.0091
-2 12 12 -0.7483 -0.1428
-2 12 13 -0.1973 -0.0404
-2 13 1 1.8928 -0.0263
-2 13 2 -0.4843 -0.0407
-2 13 3 -0.8402 0.0223
-2 13 4 1.7378 0.0322
-2 13 5 -1.2632 -0.0220
-2 13 6 0.7013 -0.0496
-2 13 7 -1.2528 -0.0171
-2 13 8 1.3144 0.0230
-2 13 9 -0.7061 0.0440
-2 13 10 0.6726 -0.0877
-2 13 11 1.2719 -0.0972
-2 13 12 0.3863 0.0704
-2 13 13 -1.9095 -0.1176
-2 14 1 -0.3986 0.0205
-2 14 2 1.8709 0.0130
-2 14 3 -4.0209 -0.0006
-2 14 4 1.8788 -0.0049
-2 14 5 0.5212 -0.0111
-2 14 6 2.2022 0.0087
-2 14 7 -1.9185 -0.0571
-2 14 8 1.8591 0.0278
-2 14 9 -0.7945 0.0566
-2 14 10 -0.5998 -0.0331
-2 14 11 -2.6804 0.0123
-2 14 12 1.2066 0.0863
-2 14 13 0.4365 -0.0917
-2 15 1 -1.9557 0.0195
-2 15 2 1.2376 0.0010
-2 15 3 1.1187 -0.0131
-2 15 4 -2.0795 0.0076
-2 15 5 0.3628 0.0158
-2 15 6 1.2465 0.0130
-2 15 7 0.5707 0.0083
-2 15 8 -1.1782 -0.0504
-2 15 9 0.5745 -0.0639
-2 15 10 -0.1000 0.0627
-2 15 11 -0.2989 0.1235
-2 15 12 0.5166 -0.0410
-2 16 1 -0.1582 0.0235
-2 16 2 -2.7018 -0.0529
-2 16 3 3.2716 -0.0247
-2 16 4 -0.9861 0.0286
-2 16 5 -1.0595 0.0210
-2 16 6 -1.1704 -0.0428
-2 16 7 2.4329 0.0271
-2 16 8 -1.6650 -0.0275
-2 16 9 0.8873 -0.0226
-2 16 10 -0.1146 0.0905
-2 16 11 1.3928 -0.0485
-2 16 12 -0.6322 -0.1042
-2 17 1 1.6944 0.0038
-2 17 2 -1.2289 0.0376
-2 17 3 -1.4456 -0.0102
-2 17 4 1.1673 -0.0660
-2 17 5 -0.1480 -0.0564
-2 17 6 -2.3614 0.0005
-2 17 7 0.5301 0.0308
-2 17 8 0.3652 0.0128
-2 17 9 -0.6639 -0.0074
-2 17 10 -0.2894 -0.0506
-2 17 11 -0.4719 -0.0890
-2 18 1 -0.0064 -0.0862
-2 18 2 1.6180 0.0457
-2 18 3 -1.8199 0.0290
-2 18 4 -0.1338 0.0238
-2 18 5 1.3135 0.0396
-2 18 6 -0.5495 0.0463
-2 18 7 -1.9077 -0.0487
-2 18 8 1.1224 0.0123
-2 18 9 -1.3679 -0.0446
-2 18 10 0.5062 -0.1504
-2 18 11 -0.0505 0.0750
-2 19 1 -0.3547 -0.0360
-2 19 2 0.8015 -0.0257
-2 19 3 1.4846 0.0110
-2 19 4 -0.1764 0.0874
-2 19 5 -0.7359 0.0970
-2 19 6 1.1608 0.0438
-2 19 7 -1.6374 -0.0254
-2 19 8 1.4472 0.0303
-2 19 9 1.3813 0.0966
-2 19 10 0.0617 0.0517
-2 20 1 0.7479 0.0929
-2 20 2 0.4668 -0.0130
-2 20 3 -0.0713 0.0200
-2 20 4 0.5680 -0.0431
-2 20 5 -1.0161 -0.0849
-2 20 6 1.3028 -0.0918
-2 20 7 -0.7087 0.1151
-2 20 8 -1.0817 0.0539
-2 20 9 1.6684 0.0644
-2 20 10 -0.2118 0.1634
-2 21 1 -0.7756 0.0493
-2 21 2 -0.6074 0.0408
-2 21 3 -0.9918 0.0754
-2 21 4 -0.2724 -0.0384
-2 21 5 1.8930 -0.0564
-2 21 6 1.4035 -0.0855
-2 21 7 1.9069 -0.0663
-2 21 8 -2.7134 -0.0245
-2 21 9 -1.7816 -0.1038
-2 22 1 -0.7667 -0.0220
-2 22 2 -1.0960 -0.0484
-2 22 3 1.8776 -0.1371
-2 22 4 -0.0241 -0.0251
-2 22 5 0.6335 0.0613
-2 22 6 -1.1813 0.1847
-2 22 7 2.8564 -0.1174
-2 22 8 0.8521 -0.1153
-2 23 1 0.7686 0.0142
-2 23 2 1.0804 -0.0756
-2 23 3 0.7513 -0.2158
-2 23 4 0.2222 -0.0665
-2 23 5 -1.7384 0.0085
-2 23 6 -1.9547 0.0862
-2 23 7 -1.1335 0.1391
-2 24 1 -0.0293 -0.1224
-2 24 2 0.1956 0.0626
-2 24 3 -2.4828 0.2462
-2 24 4 -0.4232 0.1053
-2 24 5 -0.7200 -0.0073
-2 24 6 1.1604 -0.1944
-2 25 1 -0.4054 -0.0871
-2 25 2 -1.2847 0.0689
-2 25 3 -0.8253 0.2288
-2 25 4 0.0344 0.1131
-1 0 1 20.5598 0.2030
-1 0 2 -8.4540 -0.2153
-1 0 3 -12.4408 -0.2488
-1 0 4 -4.0102 0.0398
-1 0 5 12.8803 0.2347
-1 0 6 -10.7126 0.1329
-1 0 7 2.7985 -0.1453
-1 0 8 0.4562 -0.1941
-1 0 9 -1.0554 0.0452
-1 0 10 -2.0692 0.1780
-1 0 11 -4.7818 0.0213
-1 0 12 0.7163 -0.1047
-1 0 13 -0.5802 -0.0609
-1 0 14 3.4279 0.0357
-1 0 15 0.9647 0.2270
-1 1 1 -41.7610 -0.1280
-1 1 2 37.7627 -0.0416
-1 1 3 1.8139 0.0201
-1 1 4 -17.1572 0.0188
-1 1 5 -5.1037 0.0107
-1 1 6 -0.1077 -0.0192
-1 1 7 -1.3171 -0.0293
-1 1 8 -2.2384 0.0392
-1 1 9 -4.4903 0.0122
-1 1 10 -4.9564 -0.0183
-1 1 11 -2.5696 0.0185
-1 1 12 -1.0752 -0.0117
-1 1 13 2.1013 -0.0673
-1 1 14 -2.8304 -0.0643
-1 1 15 -2.5029 0.0247
-1 2 1 -15.8235 -0.0164
-1 2 2 11.6421 0.1212
-1 2 3 6.9371 0.0270
-1 2 4 2.8757 -0.0349
-1 2 5 -9.6813 -0.0514
-1 2 6 9.8167 -0.0293
-1 2 7 -3.6357 0.0525
-1 2 8 -0.1503 0.0253
-1 2 9 1.2823 -0.0562
-1 2 10 1.7720 -0.0012
-1 2 11 4.9767 0.0461
-1 2 12 -0.6170 -0.0019
-1 2 13 1.1473 -0.0580
-1 2 14 -2.0625 0.0894
-1 2 15 -0.4765 0.1760
-1 3 1 25.4827 0.0926
-1 3 2 -25.0254 0.0889
-1 3 3 1.5335 -0.0352
-1 3 4 8.9127 -0.0496
-1 3 5 3.4470 -0.0004
-1 3 6 3.0348 0.0761
-1 3 7 0.4796 0.0176
-1 3 8 1.3903 -0.0893
-1 3 9 4.5712 -0.0079
-1 3 10 3.7446 0.0302
-1 3 11 0.9103 -0.0281
-1 3 12 0.5153 -0.0096
-1 3 13 -2.6081 0.0372
-1 3 14 2.5842 0.0122
-1 3 15 2.8528 0.0178
-1 4 1 5.5663 -0.0416
-1 4 2 -18.0418 0.0028
-1 4 3 3.5025 0.0754
-1 4 4 0.2779 0.0019
-1 4 5 2.5436 -0.0797
-1 4 6 -7.9622 -0.0176
-1 4 7 5.6207 0.0296
-1 4 8 -0.4741 0.0469
-1 4 9 -2.2717 0.0339
-1 4 10 -0.8943 -0.0910
-1 4 11 -5.0400 -0.0083
-1 4 12 -0.0220 0.0868
-1 4 13 -1.3001 0.0466
-1 4 14 0.5942 -0.0598
-1 4 15 -0.5935 -0.2711
-1 5 1 -5.8168 -0.0478
-1 5 2 9.7774 0.0057
-1 5 3 -5.8568 0.0330
-1 5 4 0.2482 -0.0120
-1 5 5 -0.1133 0.0055
-1 5 6 -6.9725 -0.0541
-1 5 7 0.2661 -0.0030
-1 5 8 0.2680 0.0510
-1 5 9 -4.4201 -0.0338
-1 5 10 -3.0552 0.0022
-1 5 11 0.9012 0.0592
-1 5 12 -0.8039 0.0551
-1 5 13 1.6631 -0.0229
-1 5 14 -0.8167 0.0602
-1 5 15 -1.7097 0.3154
-1 6 1 2.7934 -0.0245
-1 6 2 20.7796 -0.0234
-1 6 3 -8.7543 -0.0279
-1 6 4 -4.0666 0.0087
-1 6 5 3.3706 0.0637
-1 6 6 6.1215 0.0050
-1 6 7 -6.9540 -0.0234
-1 6 8 0.8100 -0.0103
-1 6 9 3.4128 0.0001
-1 6 10 -0.5818 0.0596
-1 6 11 4.1761 -0.0811
-1 6 12 1.1164 -0.0577
-1 6 13 0.0168 0.0829
-1 6 14 -1.4415 -0.1389
-1 6 15 1.3366 -0.0150
-1 7 1 -4.3007 0.0016
-1 7 2 -0.9869 -0.0586
-1 7 3 7.4174 -0.0091
-1 7 4 -3.9845 0.0500
-1 7 5 -3.1992 -0.0193
-1 7 6 8.7732 0.0043
-1 7 7 -0.6837 0.0360
-1 7 8 -1.3650 0.0211
-1 7 9 3.8209 0.0431
-1 7 10 2.8929 -0.0443
-1 7 11 -1.9885 -0.0505
-1 7 12 1.1934 -0.0090
-1 7 13 -0.2250 0.0560
-1 7 14 -1.5224 -0.0808
-1 8 1 -5.6632 0.0096
-1 8 2 -16.0461 -0.0385
-1 8 3 6.3069 0.0081
-1 8 4 6.0972 0.0089
-1 8 5 -4.8636 -0.0048
-1 8 6 -3.9536 0.0120
-1 8 7 5.6517 -0.0029
-1 8 8 -0.6156 -0.0036
-1 8 9 -3.2812 -0.0144
-1 8 10 1.8367 0.0083
-1 8 11 -2.8939 0.0666
-1 8 12 -1.2990 -0.0656
-1 8 13 1.0473 -0.1029
-1 8 14 2.3436 0.3216
-1 9 1 3.8050 0.0204
-1 9 2 -0.6240 0.0145
-1 9 3 -4.7355 -0.0068
-1 9 4 2.4402 -0.0229
-1 9 5 4.0676 0.0067
-1 9 6 -6.9009 0.0052
-1 9 7 1.2251 -0.0628
-1 9 8 0.8046 -0.0207
-1 9 9 -2.7077 -0.0091
-1 9 10 -1.9876 0.0566
-1 9 11 1.9860 0.0012
-1 9 12 -0.7521 -0.0978
-1 9 13 0.3907 -0.0162
-1 9 14 2.1634 0.1264
-1 10 1 4.7109 0.0417
-1 10 2 7.3109 0.0437
-1 10 3 -0.8705 -0.0351
-1 10 4 -5.2759 -0.0122
-1 10 5 3.1645 0.0009
-1 10 6 1.1702 -0.0236
-1 10 7 -2.2378 -0.0276
-1 10 8 0.0517 -0.0210
-1 10 9 2.4291 0.0262
-1 10 10 -1.2567 -0.0600
-1 10 11 2.5615 0.0196
-1 10 12 -0.2028 0.1492
-1 10 13 -1.3775 -0.0612
-1 10 14 -1.5663 -0.3919
-1 11 1 -0.2944 -0.0037
-1 11 2 -0.7872 -0.0014
-1 11 3 0.6598 -0.0022
-1 11 4 0.4056 -0.0056
-1 11 5 -2.3348 0.0241
-1 11 6 3.3926 0.0057
-1 11 7 -1.4689 0.0308
-1 11 8 0.4244 -0.0225
-1 11 9 1.1681 -0.0103
-1 11 10 0.4938 -0.0105
-1 11 11 -0.9053 0.0515
-1 11 12 0.4917 0.0881
-1 11 13 -1.0576 -0.1346
-1 11 14 -1.1022 -0.1802
-1 12 1 -2.8949 -0.0043
-1 12 2 -0.5379 0.0227
-1 12 3 -3.0417 0.0195
-1 12 4 3.1024 -0.0196
-1 12 5 -1.2777 -0.0344
-1 12 6 1.3065 0.0268
-1 12 7 -0.5950 0.0392
-1 12 8 0.8669 0.0090
-1 12 9 -2.0793 -0.0553
-1 12 10 -0.6138 0.0900
-1 12 11 -2.7816 -0.0131
-1 12 12 2.0211 -0.1522
-1 12 13 1.6940 0.1571
-1 13 1 -1.6972 -0.0206
-1 13 2 1.8162 0.0164
-1 13 3 1.3399 0.0079
-1 13 4 -1.8498 0.0115
-1 13 5 0.2486 -0.0357
-1 13 6 -0.7969 0.0224
-1 13 7 0.6867 -0.0000
-1 13 8 -1.0913 -0.0209
-1 13 9 0.2041 0.0149
-1 13 10 0.6450 -0.0393
-1 13 11 0.0240 -0.1023
-1 13 12 -0.4025 0.0440
-1 13 13 0.5601 0.2399
-1 14 1 1.4589 -0.0338
-1 14 2 -2.5425 -0.0529
-1 14 3 4.2440 0.0253
-1 14 4 -1.6111 0.0513
-1 14 5 -0.0043 0.0358
-1 14 6 -2.4002 -0.0149
-1 14 7 1.8240 0.0363
-1 14 8 -1.7583 0.0377
-1 14 9 1.5097 0.0516
-1 14 10 1.0281 -0.1112
-1 14 11 1.8641 -0.0594
-1 14 12 -2.5291 0.1509
-1 14 13 -1.3687 -0.0402
-1 15 1 2.7719 0.0343
-1 15 2 -1.8051 0.0263
-1 15 3 -1.2827 -0.0036
-1 15 4 1.8928 -0.0167
-1 15 5 0.4558 0.0263
-1 15 6 -1.0433 -0.0730
-1 15 7 0.3700 0.0127
-1 15 8 1.0518 0.1224
-1 15 9 -0.6972 -0.0539
-1 15 10 -1.0869 -0.0194
-1 15 11 -0.1026 0.1596
-1 15 12 -0.3855 -0.0740
-1 16 1 -0.5501 -0.0140
-1 16 2 3.3104 0.0360
-1 16 3 -3.3552 -0.0203
-1 16 4 1.0108 -0.0324
-1 16 5 1.2950 0.0019
-1 16 6 1.8303 -0.0029
-1 16 7 -2.4117 -0.0893
-1 16 8 1.7640 -0.0571
-1 16 9 -0.3199 -0.0013
-1 16 10 0.4563 0.1350
-1 16 11 -0.1751 0.0453
-1 16 12 1.7878 -0.1480
-1 17 1 -2.6880 -0.0402
-1 17 2 1.5496 -0.0782
-1 17 3 0.9423 0.0170
-1 17 4 -1.4022 0.0290
-1 17 5 -0.2920 -0.0179
-1 17 6 2.2917 0.0771
-1 17 7 -0.7314 -0.0070
-1 17 8 0.0513 -0.1149
-1 17 9 0.6037 0.1090
-1 17 10 0.6956 0.1432
-1 17 11 0.0906 -0.2019
-1 18 1 0.3695 0.0757
-1 18 2 -2.4022 -0.0331
-1 18 3 1.2368 -0.0386
-1 18 4 -0.3569 -0.0318
-1 18 5 -1.6367 -0.0164
-1 18 6 -0.0351 0.0108
-1 18 7 2.0140 0.0272
-1 18 8 -1.1441 0.0524
-1 18 9 -0.1714 -0.0037
-1 18 10 -1.4786 -0.1429
-1 18 11 -0.4746 0.0224
-1 19 1 0.5511 0.0260
-1 19 2 -1.3581 0.0647
-1 19 3 -0.5206 -0.0287
-1 19 4 0.8356 -0.0283
-1 19 5 0.5239 0.0278
-1 19 6 -1.2562 -0.0420
-1 19 7 1.0473 -0.0702
-1 19 8 -2.0921 0.0068
-1 19 9 -0.8344 -0.0943
-1 19 10 0.1918 -0.1671
-1 20 1 -0.4939 -0.0711
-1 20 2 0.6948 0.0243
-1 20 3 1.1536 0.0453
-1 20 4 -0.5086 0.0622
-1 20 5 0.2311 0.0013
-1 20 6 -1.7825 0.0229
-1 20 7 -0.0290 0.0534
-1 20 8 0.8967 -0.0773
-1 20 9 -0.1321 -0.0581
-1 20 10 1.0950 0.1118
-1 21 1 1.5848 -0.0033
-1 21 2 0.9969 -0.0031
-1 21 3 -0.4576 0.0106
-1 21 4 -0.6105 -0.0163
-1 21 5 -1.0197 -0.0599
-1 21 6 -1.3912 0.0365
-1 21 7 -1.7182 0.1663
-1 21 8 2.9968 0.0212
-1 21 9 1.2950 -0.0016
-1 22 1 -0.0840 -0.0341
-1 22 2 -0.1472 0.0056
-1 22 3 -2.6179 0.0854
-1 22 4 0.9942 0.0066
-1 22 5 0.9104 -0.0166
-1 22 6 2.2183 -0.1054
-1 22 7 -1.5089 -0.0641
-1 22 8 -0.5899 0.1112
-1 23 1 -1.4712 0.0190
-1 23 2 -0.6180 -0.0581
-1 23 3 1.2434 -0.0119
-1 23 4 0.9610 0.0745
-1 23 5 0.7688 0.0776
-1 23 6 2.1418 -0.0539
-1 23 7 1.6006 -0.1768
-1 24 1 1.0298 0.1904
-1 24 2 0.8842 0.0056
-1 24 3 2.4990 -0.2327
-1 24 4 -0.9907 -0.1160
-1 24 5 -0.1657 0.0485
-1 24 6 -1.2090 0.1520
-1 25 1 0.2427 -0.0736
-1 25 2 0.4457 0.0456
-1 25 3 -1.0337 0.0495
-1 25 4 -1.2271 -0.0586
-1 26 1 -0.8861 -0.2209
-1 26 2 -0.9897 -0.0481
0 0 2 -5.6298 0.2336
0 0 3 6.8829 0.1455
0 0 4 13.3429 -0.1473
0 0 5 -8.2066 -0.2348
0 0 6 9.3751 0.0324
0 0 7 -2.2133 0.2288
0 0 8 1.3654 0.0788
0 0 9 4.8159 -0.1637
0 0 10 5.3250 -0.1862
0 0 11 6.2438 0.0329
0 0 12 -3.3934 0.1638
0 0 13 0.2804 0.1039
0 0 14 -0.0224 -0.1453
0 0 15 1.2912 -0.3955
0 1 2 -32.3906 -0.0929
0 1 3 -6.7241 0.0045
0 1 4 20.1400 0.0719
0 1 5 2.0210 0.0271
0 1 6 -2.0146 0.0024
0 1 7 1.3554 0.0027
0 1 8 3.2510 0.0119
0 1 9 2.9222 0.0365
0 1 10 2.0208 -0.0321
0 1 11 -0.1352 -0.0367
0 1 12 -0.2427 0.0865
0 1 13 0.5891 -0.0055
0 1 14 3.5665 -0.0782
0 1 15 2.1924 -0.1196
0 2 1 14.1243 -0.0889
0 2 2 0.1749 -0.1255
0 2 3 -2.8469 -0.0284
0 2 4 -10.6757 0.0837
0 2 5 5.5965 0.0487
0 2 6 -8.8455 -0.0644
0 2 7 2.9389 -0.0256
0 2 8 -1.6215 0.0192
0 2 9 -4.6290 0.0119
0 2 10 -4.0980 0.0236
0 2 11 -5.7383 -0.0215
0 2 12 3.1923 -0.0858
0 2 13 -0.7313 -0.0523
0 2 14 -0.6753 -0.0793
0 2 15 -1.4481 -0.2519
0 3 1 -11.6056 -0.0449
0 3 2 22.2586 -0.0062
0 3 3 0.3071 0.0142
0 3 4 -12.8122 -0.0001
0 3 5 0.1539 -0.0288
0 3 6 -1.2512 -0.0470
0 3 7 -1.1650 0.0002
0 3 8 -2.2295 0.0255
0 3 9 -3.1285 -0.0107
0 3 10 -1.1633 -0.0027
0 3 11 1.7729 0.0368
0 3 12 1.0957 -0.0567
0 3 13 0.5908 0.0545
0 3 14 -2.4031 0.1554
0 3 15 -1.6940 0.1336
0 4 0 43.5598 0.0835
0 4 1 -7.6300 0.0388
0 4 2 10.9505 -0.0365
0 4 3 -4.6699 -0.0401
0 4 4 4.0062 0.0282
0 4 5 0.0680 0.1095
0 4 6 7.7120 0.0337
0 4 7 -4.7260 -0.0997
0 4 8 1.8972 -0.0443
0 4 9 4.7589 0.0689
0 4 10 1.6997 0.0695
0 4 11 4.8609 -0.0501
0 4 12 -1.7456 -0.0180
0 4 13 1.0525 0.0318
0 4 14 0.6860 0.0088
0 5 1 -6.6201 -0.0084
0 5 2 -10.4349 0.0231
0 5 3 7.0414 -0.0245
0 5 4 4.1195 -0.0358
0 5 5 -3.6952 0.0168
0 5 6 5.5002 0.0255
0 5 7 1.0624 -0.0156
0 5 8 0.0892 -0.0142
0 5 9 2.8479 -0.0390
0 5 10 0.8795 0.0123
0 5 11 -3.3875 0.0328
0 5 12 -1.0819 -0.0022
0 5 13 -0.0842 -0.1151
0 5 14 0.8050 -0.1342
0 6 0 -15.7650 -0.0181
0 6 1 2.0024 0.0538
0 6 2 -17.5157 0.0588
0 6 3 7.9669 -0.0038
0 6 4 2.9989 -0.0438
0 6 5 -4.5142 -0.0636
0 6 6 -6.3368 0.0045
0 6 7 6.0159 0.0257
0 6 8 -1.5566 -0.0183
0 6 9 -5.2642 -0.0230
0 6 10 0.1935 -0.0217
0 6 11 -3.8697 0.0829
0 6 12 -0.3891 0.0123
0 6 13 -0.2067 -0.0517
0 6 14 1.3002 0.3392
0 7 1 13.7713 0.0567
0 7 2 3.8346 0.0083
0 7 3 -9.6344 -0.0095
0 7 4 0.3620 -0.0139
0 7 5 6.2066 -0.0057
0 7 6 -7.6172 0.0477
0 7 7 -0.9286 -0.0071
0 7 8 1.4365 -0.0389
0 7 9 -2.2859 0.0435
0 7 10 -1.3311 -0.0085
0 7 11 3.5590 -0.0468
0 7 12 0.4644 0.0279
0 7 13 -0.9839 0.0577
0 7 14 0.4750 -0.0062
0 8 0 3.5067 -0.0493
0 8 1 1.1316 -0.0526
0 8 2 14.6161 0.0327
0 8 3 -5.2432 0.0438
0 8 4 -6.4300 -0.0126
0 8 5 5.4675 -0.0512
0 8 6 4.1818 -0.0110
0 8 7 -5.0141 0.0665
0 8 8 0.9073 0.0530
0 8 9 4.8893 -0.0420
0 8 10 -1.2141 -0.0594
0 8 11 2.4412 -0.0064
0 8 12 0.3857 0.0954
0 8 13 -1.1397 0.0418
0 8 14 -2.4471 -0.5669
0 9 1 -9.8743 -0.0498
0 9 2 -2.4491 -0.0001
0 9 3 6.6031 0.0255
0 9 4 -0.3687 0.0321
0 9 5 -5.6062 0.0227
0 9 6 6.2810 -0.0372
0 9 7 0.3210 0.0497
0 9 8 -1.0885 0.0361
0 9 9 1.7370 -0.0026
0 9 10 0.9561 0.0177
0 9 11 -2.3524 -0.0625
0 9 12 0.0861 -0.0693
0 9 13 0.3138 0.0973
0 9 14 -0.9693 0.1886
0 10 0 -1.8220 0.0108
0 10 1 -2.3385 -0.0079
0 10 2 -6.2990 -0.0464
0 10 3 0.4937 0.0046
0 10 4 5.5068 0.0246
0 10 5 -4.0517 0.0187
0 10 6 -1.2710 0.0059
0 10 7 2.0937 -0.0099
0 10 8 -0.4355 -0.0056
0 10 9 -3.8083 0.0265
0 10 10 1.0848 0.0363
0 10 11 -1.5143 -0.0819
0 10 12 1.6082 -0.1062
0 10 13 2.0449 0.0303
0 11 1 3.3234 -0.0193
0 11 2 2.8964 -0.0226
0 11 3 -1.7239 0.0026
0 11 4 -0.7955 0.0315
0 11 5 2.7176 -0.0374
0 11 6 -3.1942 -0.0424
0 11 7 0.2465 -0.0593
0 11 8 0.1747 0.0326
0 11 9 -0.6514 -0.0163
0 11 10 0.7039 -0.0802
0 11 11 0.8789 0.1414
0 11 12 -1.1178 0.1751
0 11 13 0.2536 -0.1942
0 12 0 1.9909 0.0557
0 12 1 2.3753 0.0103
0 12 2 -0.6188 -0.0133
0 12 3 2.6365 -0.0464
0 12 4 -2.9648 0.0105
0 12 5 2.2661 0.0776
0 12 6 -1.0188 0.0073
0 12 7 0.6685 -0.0394
0 12 8 -0.2916 -0.0415
0 12 9 2.9577 0.0365
0 12 10 -0.1805 0.0811
0 12 11 1.2886 0.0775
0 12 12 -2.5947 -0.0538
0 12 13 -1.9481 -0.0982
0 13 1 0.9748 0.0551
0 13 2 -2.8814 0.0146
0 13 3 -1.1609 -0.0086
0 13 4 1.1110 -0.0597
0 13 5 0.0762 0.0137
0 13 6 0.6557 0.0245
0 13 7 0.1552 0.0273
0 13 8 0.2728 -0.0649
0 13 9 -0.5887 0.0048
0 13 10 -1.9673 0.1698
0 13 11 0.0214 -0.0787
0 13 12 1.6946 -0.2661
0 13 13 0.6440 0.1507
0 14 0 -2.0029 -0.0461
0 14 1 -1.8771 0.0101
0 14 2 3.5200 0.0150
0 14 3 -3.5740 0.0058
0 14 4 1.3866 -0.0366
0 14 5 -0.4770 -0.0509
0 14 6 1.8831 -0.0163
0 14 7 -2.2148 -0.0539
0 14 8 1.4220 0.0205
0 14 9 -1.7406 -0.0213
0 14 10 0.1019 -0.1255
0 14 11 -0.2140 -0.0835
0 14 12 2.0975 0.1781
0 15 1 -3.1793 -0.0331
0 15 2 2.1549 -0.0073
0 15 3 1.5103 -0.0088
0 15 4 -1.0448 0.0093
0 15 5 -1.6938 0.0106
0 15 6 1.0126 0.0612
0 15 7 -0.6885 0.0131
0 15 8 -0.5518 0.0440
0 15 9 0.5087 -0.0151
0 15 10 1.6343 -0.1498
0 15 11 -0.4906 -0.0020
0 15 12 -0.6482 0.2257
0 16 0 2.4029 0.0026
0 16 1 1.1991 0.0117
0 16 2 -3.7223 0.0099
0 16 3 2.9480 0.0347
0 16 4 -0.7772 0.0581
0 16 5 -1.2697 -0.0173
0 16 6 -1.7054 -0.0019
0 16 7 2.5825 0.1012
0 16 8 -1.9707 0.0160
0 16 9 0.0509 -0.0960
0 16 10 -1.0344 0.0224
0 16 11 -1.2845 0.2222
0 17 1 3.0955 0.0088
0 17 2 -1.3302 0.0134
0 17 3 -0.7328 0.0000
0 17 4 0.9401 0.0185
0 17 5 2.0976 -0.0168
0 17 6 -2.0197 -0.0303
0 17 7 0.1160 -0.0203
0 17 8 0.0745 -0.0501
0 17 9 0.7087 0.0561
0 17 10 -0.5179 0.0017
0 17 11 0.7729 -0.0057
0 18 0 -1.6229 0.0298
0 18 1 -0.2908 -0.0199
0 18 2 2.6463 0.0158
0 18 3 -1.1935 -0.0103
0 18 4 0.2071 -0.0739
0 18 5 1.5308 -0.0281
0 18 6 0.3279 0.0140
0 18 7 -1.6678 0.0161
0 18 8 1.6909 -0.0370
0 18 9 0.5704 0.1469
0 18 10 1.2924 0.0941
0 18 11 1.1895 -0.3429
0 19 1 -0.6295 0.0142
0 19 2 0.5208 -0.0071
0 19 3 -0.4290 0.0011
0 19 4 -0.3032 0.0044
0 19 5 -1.2681 0.0490
0 19 6 1.5662 -0.0754
0 19 7 0.4870 0.0029
0 19 8 1.4441 0.0744
0 19 9 -1.2133 -0.1037
0 19 10 -0.2112 0.0853
0 20 0 -0.4427 -0.0678
0 20 1 -0.7563 -0.0305
0 20 2 -1.0603 -0.0515
0 20 3 -0.6591 -0.0182
0 20 4 0.4188 0.0514
0 20 5 0.0326 0.0876
0 20 6 2.1002 -0.0047
0 20 7 0.1964 -0.0899
0 20 8 -1.4579 0.1136
0 20 9 -0.0412 -0.0251
0 21 1 -1.4347 -0.0145
0 21 2 0.4978 0.0033
0 21 3 1.6259 0.0181
0 21 4 -0.3600 -0.0013
0 21 5 0.0669 -0.0835
0 21 6 0.0876 0.0762
0 21 7 -0.0143 -0.0136
0 21 8 -2.1689 -0.0413
0 21 9 0.4912 0.1291
0 22 0 1.2532 0.0994
0 22 1 1.5468 0.1020
0 22 2 0.0283 0.0777
0 22 3 1.1375 -0.0044
0 22 4 -0.8628 -0.0215
0 22 5 -0.9300 -0.0143
0 22 6 -3.3657 0.0244
0 22 7 0.2484 0.0057
0 22 8 1.1944 -0.2140
0 23 1 0.8802 -0.0580
0 23 2 -1.3263 -0.0226
0 23 3 -1.9723 0.0275
0 23 4 0.1047 -0.0288
0 23 5 0.2347 0.0496
0 23 6 -1.1036 -0.0166
0 23 7 -0.2760 0.0334
0 24 0 -0.1249 -0.1129
0 24 1 -1.6975 -0.1479
0 24 2 -0.0413 -0.1072
0 24 3 -0.2832 0.0466
0 24 4 1.0144 0.0330
0 24 5 -0.1867 -0.0955
0 24 6 2.1077 -0.0556
0 25 1 0.5284 0.1246
0 25 2 1.3618 0.0504
0 25 3 1.2020 -0.1115
0 25 4 0.3966 0.0201
0 26 0 -0.9792 0.1091
0 26 1 1.0844 0.1247
0 26 2 0.3672 0.0728
1 0 1 19.5245 -0.1268
1 0 2 14.9637 -0.1059
1 0 3 -5.3969 -0.0559
1 0 4 -18.4605 0.1302
1 0 5 6.5139 0.1435
1 0 6 -6.4211 -0.1082
1 0 7 0.2222 -0.2066
1 0 8 -3.0609 -0.0017
1 0 9 -6.4068 0.2086
1 0 10 -3.9747 0.1223
1 0 11 -3.9466 -0.1466
1 0 12 3.2909 -0.1560
1 0 13 -2.2588 0.0327
1 0 14 -1.3734 0.3294
1 1 0 20.7184 -0.1560
1 1 1 -17.6159 0.0511
1 1 2 16.9395 0.0502
1 1 3 9.0230 -0.0584
1 1 4 -15.3056 -0.0680
1 1 5 3.0820 0.0168
1 1 6 2.4579 0.0145
1 1 7 -1.6059 -0.0193
1 1 8 -2.3964 -0.0268
1 1 9 1.1072 -0.0322
1 1 10 3.4916 -0.0088
1 1 11 0.6249 0.0177
1 1 12 -1.5962 -0.0128
1 1 13 -0.6819 0.0678
1 1 14 -0.7053 0.1103
1 2 1 -18.0708 0.0511
1 2 2 -8.7631 -0.0178
1 2 3 3.1101 0.0596
1 2 4 15.3601 -0.0005
1 2 5 -4.3806 -0.0469
1 2 6 6.2469 0.0448
1 2 7 -0.9180 0.0586
1 2 8 3.3004 0.0292
1 2 9 6.2589 -0.0127
1 2 10 2.6667 -0.0162
1 2 11 3.0858 0.0587
1 2 12 -3.6425 0.0664
1 2 13 2.1018 0.0563
1 2 14 1.3705 -0.0158
1 3 0 -14.9333 0.0535
1 3 1 3.3333 -0.0290
1 3 2 -11.8626 -0.0261
1 3 3 -1.9506 -0.0088
1 3 4 10.2454 0.0161
1 3 5 -4.6257 0.0055
1 3 6 0.6173 0.0226
1 3 7 1.4539 0.0185
1 3 8 1.2362 -0.0134
1 3 9 -0.0330 -0.0157
1 3 10 -2.8569 0.0417
1 3 11 -1.8054 -0.0678
1 3 12 0.1501 0.0042
1 3 13 -0.6617 -0.1092
1 3 14 0.1834 -0.3103
1 4 0 -36.8754 -0.1071
1 4 1 14.6558 0.0259
1 4 2 -3.9242 0.0788
1 4 3 1.2538 -0.0155
1 4 4 -7.3973 -0.0749
1 4 5 -0.1295 -0.0517
1 4 6 -5.9043 0.0353
1 4 7 2.7355 0.0493
1 4 8 -3.1778 -0.0129
1 4 9 -6.2064 -0.0392
1 4 10 -0.2577 -0.0581
1 4 11 -1.8259 -0.0085
1 4 12 2.8355 0.0627
1 4 13 -1.8419 -0.0320
1 4 14 -0.5164 -0.0243
1 5 0 7.0894 0.0679
1 5 1 11.8413 0.0306
1 5 2 6.3300 -0.0296
1 5 3 -6.3589 0.0183
1 5 4 -4.2922 0.0614
1 5 5 6.9249 -0.0017
1 5 6 -4.5003 -0.0127
1 5 7 -1.4600 0.0214
1 5 8 0.9928 0.0153
1 5 9 -0.4561 0.0440
1 5 10 1.8419 -0.0570
1 5 11 3.5806 0.0476
1 5 12 1.0757 0.0016
1 5 13 0.1573 0.0783
1 5 14 -0.2125 0.2067
1 6 0 12.7254 -0.0552
1 6 1 -10.5835 -0.0572
1 6 2 12.1020 -0.0215
1 6 3 -3.2745 0.0129
1 6 4 -1.3306 0.0388
1 6 5 3.6091 0.0150
1 6 6 5.4129 -0.0613
1 6 7 -4.1410 -0.0106
1 6 8 2.0012 0.0056
1 6 9 6.1930 -0.0431
1 6 10 -1.1154 0.0632
1 6 11 1.2996 0.0563
1 6 12 -0.5971 -0.1112
1 6 13 1.2956 -0.0429
1 6 14 -1.1571 -0.2655
1 7 0 -1.9169 -0.0276
1 7 1 -16.5072 -0.0343
1 7 2 -3.7664 0.0113
1 7 3 9.8821 0.0062
1 7 4 1.0455 -0.0112
1 7 5 -8.0250 0.0112
1 7 6 6.4105 -0.0435
1 7 7 1.6135 -0.0422
1 7 8 -2.3815 0.0044
1 7 9 0.2734 -0.0173
1 7 10 -0.6923 0.0647
1 7 11 -3.8002 -0.0258
1 7 12 -0.9941 -0.0037
1 7 13 1.1925 0.0643
1 7 14 0.3986 0.0978
1 8 0 -2.2028 0.0521
1 8 1 6.2859 0.0255
1 8 2 -10.9469 -0.0418
1 8 3 1.6998 -0.0384
1 8 4 6.0084 0.0080
1 8 5 -4.6329 0.0640
1 8 6 -4.0930 0.0332
1 8 7 3.3389 -0.0499
1 8 8 -0.8703 -0.0263
1 8 9 -5.3305 0.0724
1 8 10 1.4021 -0.0191
1 8 11 -0.8695 -0.0676
1 8 12 0.4033 0.0754
1 8 13 0.1014 -0.0472
1 9 0 0.9281 -0.0492
1 9 1 11.5232 0.0098
1 9 2 3.5062 0.0229
1 9 3 -7.5265 -0.0058
1 9 4 -0.3383 -0.0428
1 9 5 6.4464 -0.0322
1 9 6 -5.3704 0.0333
1 9 7 -1.3430 0.0081
1 9 8 1.9226 -0.0134
1 9 9 -0.2095 -0.0131
1 9 10 0.3084 -0.0334
1 9 11 1.7525 0.0706
1 9 12 -0.4174 0.0795
1 9 13 -0.8300 -0.2003
1 10 0 0.7385 0.0392
1 10 1 -2.4073 0.0336
1 10 2 4.2843 0.0178
1 10 3 0.9617 -0.0148
1 10 4 -5.5097 -0.0046
1 10 5 3.9872 -0.0129
1 10 6 1.6731 0.0015
1 10 7 -0.9678 0.0169
1 10 8 0.6111 0.0240
1 10 9 3.7739 -0.0137
1 10 10 -1.4738 -0.0008
1 10 11 0.6469 -0.0429
1 10 12 -2.0018 -0.0859
1 10 13 -1.5299 0.2888
1 11 0 -1.7209 0.0292
1 11 1 -4.2848 0.0248
1 11 2 -3.4359 -0.0102
1 11 3 2.8973 0.0014
1 11 4 0.2271 -0.0067
1 11 5 -3.1247 0.0144
1 11 6 2.6380 0.0146
1 11 7 0.7376 0.0309
1 11 8 -1.2548 0.0194
1 11 9 -0.1614 -0.0143
1 11 10 -1.1707 -0.0304
1 11 11 0.2374 -0.0760
1 11 12 2.0936 -0.1528
1 11 13 0.2383 0.2162
1 12 0 -1.0961 -0.0591
1 12 1 -0.2176 -0.0317
1 12 2 1.6616 0.0161
1 12 3 -2.2553 0.0681
1 12 4 2.9880 -0.0117
1 12 5 -2.6243 -0.0677
1 12 6 0.6094 -0.0214
1 12 7 -1.0276 0.0208
1 12 8 -0.2830 0.0080
1 12 9 -2.4612 -0.0704
1 12 10 1.5517 -0.0607
1 12 11 -0.6830 0.1316
1 12 12 1.9099 0.1859
1 12 13 1.3836 -0.3703
1 13 0 1.9666 0.0192
1 13 1 -0.8627 -0.0196
1 13 2 2.8061 0.0055
1 13 3 0.1926 -0.0307
1 13 4 -0.1520 0.0231
1 13 5 -0.0547 0.0396
1 13 6 0.0231 0.0230
1 13 7 -0.7156 -0.0197
1 13 8 1.0400 -0.0070
1 13 9 0.7601 0.0472
1 13 10 1.7176 0.0661
1 13 11 -0.8804 -0.0083
1 13 12 -2.1182 0.0878
1 14 0 1.5432 -0.0053
1 14 1 1.5010 -0.0171
1 14 2 -4.0500 0.0209
1 14 3 2.1089 -0.0106
1 14 4 -1.1411 0.0130
1 14 5 1.0156 0.0206
1 14 6 -1.6796 0.0235
1 14 7 2.0456 -0.0205
1 14 8 -0.6292 -0.0343
1 14 9 1.3460 0.1221
1 14 10 -1.5806 0.1027
1 14 11 -0.1782 -0.0420
1 14 12 -0.6441 -0.2294
1 15 0 -1.6677 -0.0147
1 15 1 3.3779 -0.0001
1 15 2 -2.0213 -0.0247
1 15 3 -0.9862 0.0415
1 15 4 0.4454 0.0388
1 15 5 2.3827 -0.0689
1 15 6 -1.6901 -0.0505
1 15 7 1.0358 0.0096
1 15 8 -0.3390 -0.0361
1 15 9 -0.2784 -0.0064
1 15 10 -0.7700 -0.1196
1 15 11 1.3687 0.0174
1 16 0 -1.9818 0.0348
1 16 1 -1.4895 0.0363
1 16 2 3.6550 -0.0488
1 16 3 -1.2740 -0.0604
1 16 4 -0.0578 -0.0316
1 16 5 0.0778 0.0309
1 16 6 1.8750 -0.0220
1 16 7 -2.0390 0.0646
1 16 8 1.0796 0.0508
1 16 9 -0.2608 -0.0725
1 16 10 1.5038 -0.0034
1 16 11 1.3451 -0.1525
1 17 0 1.2207 -0.0350
1 17 1 -3.2106 -0.0175
1 17 2 1.2197 0.0446
1 17 3 0.5018 0.0293
1 17 4 -0.5082 -0.0364
1 17 5 -3.1676 0.0698
1 17 6 2.2891 -0.0632
1 17 7 -0.6202 -0.0664
1 17 8 -0.1653 0.0450
1 17 9 -1.0260 -0.0715
1 17 10 -0.2265 0.2441
1 17 11 -1.8598 0.0888
1 18 0 1.0332 -0.0024
1 18 1 0.2287 -0.0516
1 18 2 -2.0135 -0.0010
1 18 3 -0.0306 0.0472
1 18 4 0.7408 0.0681
1 18 5 -0.0055 0.0377
1 18 6 -1.1744 0.0513
1 18 7 0.9133 -0.0782
1 18 8 -0.6968 -0.0112
1 18 9 -0.0666 -0.0201
1 18 10 -1.1307 -0.1426
1 19 0 -0.3846 0.0886
1 19 1 1.2031 0.0469
1 19 2 -0.1754 -0.0590
1 19 3 0.6473 -0.0955
1 19 4 -0.1347 -0.0189
1 19 5 1.5190 -0.0982
1 19 6 -2.2633 0.1392
1 19 7 -0.0825 0.0954
1 19 8 -0.5223 0.0002
1 19 9 1.3054 0.1059
1 19 10 0.0636 -0.2867
1 20 0 0.7497 -0.0059
1 20 1 1.1783 0.0803
1 20 2 0.0032 0.0455
1 20 3 1.1168 0.0119
1 20 4 -0.4640 -0.0430
1 20 5 -0.6064 -0.0734
1 20 6 -0.6946 -0.0918
1 20 7 0.1662 -0.0764
1 20 8 0.4194 -0.1365
1 20 9 -0.3599 -0.0128
1 21 0 -0.5068 -0.0884
1 21 1 0.2522 -0.0654
1 21 2 -0.7510 0.0030
1 21 3 -1.6873 0.0356
1 21 4 0.4444 -0.0282
1 21 5 0.9007 0.1339
1 21 6 1.9588 -0.0054
1 21 7 0.1510 0.0084
1 21 8 1.0810 -0.0062
1 22 0 -1.0794 -0.0518
1 22 1 -1.3923 -0.0529
1 22 2 1.5707 -0.0285
1 22 3 -0.9732 -0.0851
1 22 4 -0.0275 -0.0518
1 22 5 0.5998 -0.0255
1 22 6 2.0923 0.0860
1 22 7 -0.0519 0.2489
1 23 0 0.7313 0.0256
1 23 1 0.0783 0.0909
1 23 2 0.9192 0.1245
1 23 3 1.4826 0.0572
1 23 4 0.2646 0.1546
1 23 5 -1.2027 -0.0956
1 23 6 -1.1775 -0.1364
1 24 0 -0.0492 0.1373
1 24 1 0.6241 -0.0043
1 24 2 -1.9430 0.0074
1 24 3 0.1114 0.1361
1 24 4 -0.0590 0.0886
1 24 5 -0.0501 0.0943
1 25 0 -0.3591 0.0179
1 25 1 -0.9003 -0.0909
1 25 2 -0.5678 -0.1567
1 25 3 -0.3357 -0.0194
1 25 4 -0.8585 -0.2023
1 26 0 0.7266 -0.1745
1 26 1 -0.0247 -0.0043
2 0 0 49.7086 0.0985
2 0 1 -18.9417 0.1140
2 0 2 -13.1862 0.2214
2 0 3 5.0452 -0.0380
2 0 4 15.4536 -0.2389
2 0 5 -6.8381 -0.0446
2 0 6 4.3401 0.1809
2 0 7 2.2640 0.1252
2 0 8 3.0653 -0.0765
2 0 9 3.2402 -0.1569
2 0 10 -0.3404 0.0066
2 0 11 3.2750 0.1635
2 0 12 -1.6201 0.0792
2 0 13 1.1930 -0.1041
2 0 14 0.9000 -0.3823
2 1 0 -26.1016 -0.1200
2 1 1 15.3996 0.0583
2 1 2 -2.4865 0.0765
2 1 3 -12.0998 -0.0587
2 1 4 8.5653 -0.0056
2 1 5 -5.1445 0.0217
2 1 6 -1.6607 0.0025
2 1 7 0.5687 -0.0086
2 1 8 -0.7227 0.0050
2 1 9 -3.5533 -0.0196
2 1 10 -4.3906 0.0046
2 1 11 0.0409 0.0367
2 1 12 1.0170 -0.0211
2 1 13 0.2798 -0.0583
2 1 14 -0.4878 -0.0306
2 2 0 -40.6933 -0.1302
2 2 1 18.8078 0.0228
2 2 2 8.2742 -0.0140
2 2 3 -3.9992 -0.0398
2 2 4 -12.9429 0.0477
2 2 5 5.0667 0.0235
2 2 6 -4.3676 -0.0739
2 2 7 -1.5709 -0.0630
2 2 8 -3.2490 -0.0262
2 2 9 -3.5270 -0.0028
2 2 10 0.8137 -0.0088
2 2 11 -2.4745 -0.0567
2 2 12 2.6902 -0.0584
2 2 13 -0.7319 -0.0143
2 2 14 -0.7721 0.2231
2 3 0 18.0797 0.0623
2 3 1 -4.2726 -0.0740
2 3 2 1.6522 -0.0167
2 3 3 6.0787 0.1059
2 3 4 -5.3883 -0.0023
2 3 5 6.1724 -0.0723
2 3 6 -0.8804 -0.0010
2 3 7 -0.6172 0.0536
2 3 8 1.8926 0.0001
2 3 9 2.6995 0.0316
2 3 10 3.3038 -0.0323
2 3 11 -0.1667 0.0055
2 3 12 -0.4101 0.0093
2 3 13 0.8525 0.2431
2 3 14 0.2470 0.3365
2 4 0 21.2323 -0.0222
2 4 1 -18.0046 -0.0899
2 4 2 1.7925 -0.0299
2 4 3 2.0034 0.0395
2 4 4 6.2862 0.0223
2 4 5 -1.2701 0.0014
2 4 6 4.4480 -0.0399
2 4 7 -0.4087 -0.0281
2 4 8 2.8781 0.0452
2 4 9 4.2370 0.0629
2 4 10 -1.8832 -0.0354
2 4 11 0.9594 -0.0260
2 4 12 -3.1771 0.0094
2 4 13 0.5146 0.0200
2 5 0 -7.5007 -0.0446
2 5 1 -7.5299 0.0210
2 5 2 -1.3679 0.0221
2 5 3 2.0583 -0.0454
2 5 4 2.2253 -0.0332
2 5 5 -7.6023 0.0618
2 5 6 3.9227 0.0001
2 5 7 1.0388 -0.0629
2 5 8 -3.6243 0.0403
2 5 9 -2.0402 -0.0101
2 5 10 -2.1184 0.0025
2 5 11 -1.3731 -0.0735
2 5 12 -0.8388 0.0844
2 5 13 -0.5508 -0.1349
2 6 0 -5.3032 0.1063
2 6 1 15.5678 0.0413
2 6 2 -8.4377 -0.0402
2 6 3 -1.1166 -0.0153
2 6 4 1.3929 0.0241
2 6 5 -1.8063 0.0136
2 6 6 -4.4965 0.0491
2 6 7 2.1589 0.0614
2 6 8 -1.3850 0.0018
2 6 9 -4.7965 -0.0297
2 6 10 2.5355 0.0289
2 6 11 0.0625 -0.0355
2 6 12 1.3649 0.0184
2 6 13 -1.0080 0.0231
2 7 0 0.8693 0.0109
2 7 1 11.4083 0.0017
2 7 2 2.2502 -0.0073
2 7 3 -7.1463 -0.0004
2 7 4 -0.9894 0.0142
2 7 5 8.0914 -0.0282
2 7 6 -4.9959 0.0045
2 7 7 -1.6137 0.0373
2 7 8 4.1528 -0.0417
2 7 9 1.5306 0.0046
2 7 10 1.0761 0.0326
2 7 11 2.5699 0.0421
2 7 12 1.2091 -0.1692
2 7 13 -0.6602 -0.0853
2 8 0 -1.1090 -0.0118
2 8 1 -11.1240 0.0263
2 8 2 7.9329 0.0387
2 8 3 1.7657 0.0155
2 8 4 -5.8430 -0.0425
2 8 5 3.0479 -0.0386
2 8 6 3.9653 0.0123
2 8 7 -1.6707 -0.0406
2 8 8 0.2235 -0.0228
2 8 9 4.4205 0.0026
2 8 10 -2.2246 0.0185
2 8 11 -0.2484 0.0880
2 8 12 -0.4500 -0.0732
2 8 13 0.5287 0.1194
2 9 0 -0.0143 0.0069
2 9 1 -7.9892 0.0113
2 9 2 -3.1563 -0.0138
2 9 3 6.8432 -0.0018
2 9 4 0.4671 0.0159
2 9 5 -6.4487 0.0139
2 9 6 3.7494 0.0077
2 9 7 1.5452 -0.0226
2 9 8 -3.1557 0.0096
2 9 9 -0.6443 -0.0098
2 9 10 -0.4653 -0.0289
2 9 11 -1.0869 0.0682
2 9 12 0.4802 0.0445
2 9 13 0.6677 0.0722
2 10 0 1.6719 -0.0730
2 10 1 5.8547 -0.0420
2 10 2 -3.0665 0.0257
2 10 3 -2.4481 0.0124
2 10 4 5.6003 0.0030
2 10 5 -2.9631 0.0213
2 10 6 -2.2403 -0.0202
2 10 7 -0.2121 0.0028
2 10 8 -0.2136 -0.0057
2 10 9 -3.0252 0.0289
2 10 10 1.8457 -0.0156
2 10 11 -0.3129 -0.0085
2 10 12 1.1623 0.1751
2 10 13 0.6949 -0.3890
2 11 0 1.6839 0.0107
2 11 1 2.4953 -0.0063
2 11 2 2.8883 -0.0016
2 11 3 -3.4956 -0.0055
2 11 4 0.4327 0.0040
2 11 5 3.0738 -0.0101
2 11 6 -1.7013 -0.0086
2 11 7 -0.8319 0.0486
2 11 8 2.4736 -0.0052
2 11 9 -0.0310 -0.0078
2 11 10 0.8058 0.0218
2 11 11 -0.7693 -0.1435
2 11 12 -2.3220 0.1494
2 12 0 -0.6809 0.0182
2 12 1 -1.5084 -0.0083
2 12 2 -1.4989 -0.0443
2 12 3 2.1357 -0.0243
2 12 4 -3.0988 0.0404
2 12 5 1.9725 -0.0096
2 12 6 0.0010 -0.0261
2 12 7 1.3925 0.0259
2 12 8 0.1920 0.0330
2 12 9 1.5426 -0.0413
2 12 10 -1.9813 -0.0140
2 12 11 0.6610 -0.0154
2 12 12 -0.9382 -0.2262
2 13 0 -2.6621 -0.0038
2 13 1 1.6069 -0.0112
2 13 2 -1.8759 0.0006
2 13 3 0.9122 0.0261
2 13 4 -0.8456 0.0052
2 13 5 0.4001 -0.0168
2 13 6 -0.1812 -0.0053
2 13 7 0.4881 -0.0541
2 13 8 -2.4372 -0.0302
2 13 9 0.1377 0.0351
2 13 10 -1.0670 -0.0559
2 13 11 1.0002 0.1137
2 13 12 1.9020 -0.1158
2 14 0 -0.7301 0.0626
2 14 1 -0.8839 0.0555
2 14 2 3.4245 -0.0090
2 14 3 -1.2732 -0.0381
2 14 4 0.7767 -0.0299
2 14 5 -0.6607 0.0477
2 14 6 1.3035 0.0110
2 14 7 -1.8284 0.0019
2 14 8 0.4397 0.0070
2 14 9 -0.7584 0.0035
2 14 10 1.7054 0.0405
2 14 11 0.1882 -0.1325
2 15 0 2.4434 -0.0335
2 15 1 -3.2852 0.0135
2 15 2 1.1239 0.0251
2 15 3 -0.1479 -0.0316
2 15 4 0.5721 -0.0668
2 15 5 -2.7454 0.0600
2 15 6 1.5607 -0.0562
2 15 7 -0.7362 -0.0378
2 15 8 1.6898 0.1105
2 15 9 -0.5233 -0.0472
2 15 10 0.2301 0.1495
2 15 11 -1.0480 0.0161
2 16 0 1.4305 -0.0350
2 16 1 1.0948 -0.0381
2 16 2 -3.0699 0.0404
2 16 3 0.2439 0.0727
2 16 4 0.9493 -0.0145
2 16 5 0.1719 -0.0512
2 16 6 -1.3741 0.0827
2 16 7 1.9464 -0.0283
2 16 8 -0.7991 -0.0923
2 16 9 0.4277 -0.0468
2 16 10 -0.6713 -0.1263
2 17 0 -1.4246 0.0428
2 17 1 2.7076 -0.0002
2 17 2 -0.4872 -0.0369
2 17 3 0.2557 -0.0245
2 17 4 -0.8316 0.0619
2 17 5 3.1984 -0.0698
2 17 6 -2.0464 0.1550
2 17 7 0.6785 0.1260
2 17 8 -0.6694 -0.0870
2 17 9 1.3114 0.0597
2 17 10 0.4379 -0.2579
2 18 0 -0.4624 -0.0716
2 18 1 0.1188 0.0208
2 18 2 1.5219 0.0334
2 18 3 0.8620 -0.0124
2 18 4 -1.5947 -0.0039
2 18 5 -0.3717 -0.0155
2 18 6 0.7802 -0.1247
2 18 7 -1.3471 -0.1120
2 18 8 0.5994 0.0774
2 18 9 -0.0883 0.1927
2 19 0 0.0280 -0.0121
2 19 1 -1.0850 -0.0083
2 19 2 -0.4320 0.0207
2 19 3 -0.9275 0.0934
2 19 4 1.4076 0.0025
2 19 5 -1.4882 0.0479
2 19 6 2.0718 -0.0725
2 19 7 -0.0874 -0.0058
2 19 8 0.6794 -0.0287
2 19 9 -1.3650 -0.0743
2 20 0 -0.6022 0.1269
2 20 1 -1.1635 -0.0360
2 20 2 0.3849 -0.0943
2 20 3 -1.2308 -0.0440
2 20 4 0.7226 0.0610
2 20 5 -0.0831 0.0200
2 20 6 0.1059 0.0314
2 20 7 0.5996 0.3571
2 20 8 -0.5046 0.0698
2 21 0 0.8125 -0.0250
2 21 1 -0.1945 -0.0215
2 21 2 0.8600 0.0809
2 21 3 1.7764 0.0118
2 21 4 -0.8495 0.0373
2 21 5 -0.7003 -0.0539
2 21 6 -2.1507 -0.1889
2 21 7 -0.4045 -0.2488
2 22 0 0.0883 -0.0371
2 22 1 1.1159 0.0066
2 22 2 -1.6692 -0.0069
2 22 3 0.4764 0.0343
2 22 4 0.2631 -0.0473
2 22 5 0.8922 0.0778
2 22 6 -0.6651 0.0962
2 22 7 -0.5509 -0.4100
2 23 0 -0.6902 0.0336
2 23 1 0.7309 0.0844
2 23 2 -0.2802 -0.2477
2 23 3 -1.7042 -0.2391
2 23 4 -0.4208 -0.1739
2 23 5 1.0712 0.0833
2 23 6 1.5307 0.3101
2 24 0 0.9819 -0.1395
2 24 1 -0.4358 0.0342
2 24 2 1.6753 0.1235
2 24 3 0.2036 -0.0055
2 24 4 -0.1766 0.0240
2 25 0 0.3040 0.0064
2 25 1 -0.7256 -0.1097
2 25 2 -0.2497 0.2804
2 25 3 0.8074 0.2458
3 0 0 -26.0757 -0.0332
3 0 1 12.5426 -0.2795
3 0 2 7.7197 -0.1109
3 0 3 -3.2512 0.2086
3 0 4 -9.7504 0.1873
3 0 5 6.1237 -0.0733
3 0 6 -2.9217 -0.2067
3 0 7 -2.2699 -0.0527
3 0 8 -1.4032 0.1889
3 0 9 -1.1165 0.1546
3 0 10 3.1379 -0.1170
3 0 11 -1.1151 -0.1511
3 0 12 0.7106 -0.0409
3 0 13 -0.8967 0.0475
3 1 0 16.2644 -0.0452
3 1 1 -13.4662 0.0037
3 1 2 -3.9876 0.0018
3 1 3 13.3050 -0.0089
3 1 4 -5.1380 -0.0071
3 1 5 4.4534 0.0040
3 1 6 1.6966 -0.0190
3 1 7 1.2593 0.0247
3 1 8 2.3956 0.0358
3 1 9 2.2440 0.0500
3 1 10 3.4082 -0.0291
3 1 11 0.2479 -0.0370
3 1 12 -1.3222 0.0869
3 1 13 -1.0402 -0.0571
3 2 0 20.7107 0.0224
3 2 1 -12.9548 0.1160
3 2 2 -4.7102 -0.0366
3 2 3 2.6617 -0.0887
3 2 4 7.7558 -0.0377
3 2 5 -4.8272 0.0388
3 2 6 3.2700 0.0731
3 2 7 1.7691 0.0339
3 2 8 1.1033 -0.0383
3 2 9 1.1834 -0.0442
3 2 10 -2.5616 0.0982
3 2 11 1.3563 0.1336
3 2 12 -1.8109 -0.0250
3 2 13 0.2785 -0.1054
3 3 0 -9.5512 0.0720
3 3 1 6.3838 0.0349
3 3 2 3.0068 -0.0383
3 3 3 -9.0207 -0.0161
3 3 4 3.0020 0.0345
3 3 5 -5.2993 0.0378
3 3 6 0.0733 -0.0122
3 3 7 -0.9718 -0.0735
3 3 8 -3.5140 -0.0166
3 3 9 -2.5170 -0.0113
3 3 10 -2.7693 0.1080
3 3 11 1.1619 -0.0135
3 3 12 1.6870 -0.1285
3 3 13 0.0309 -0.1749
3 4 0 -9.3644 0.0557
3 4 1 13.6429 0.0028
3 4 2 -1.6060 0.0430
3 4 3 -1.9010 -0.0113
3 4 4 -2.6814 -0.0413
3 4 5 1.9153 0.0068
3 4 6 -3.9223 0.0572
3 4 7 -0.1237 0.0183
3 4 8 -0.1370 -0.0473
3 4 9 -1.6786 -0.0454
3 4 10 2.1472 0.0518
3 4 11 -1.0935 -0.0326
3 4 12 2.7301 -0.0088
3 4 13 0.1415 0.1321
3 5 0 1.1352 -0.0620
3 5 1 1.4185 -0.0010
3 5 2 -0.9976 0.0363
3 5 3 2.2022 -0.0304
3 5 4 -1.1920 -0.0307
3 5 5 6.4431 -0.0372
3 5 6 -2.4077 0.0023
3 5 7 -0.0693 0.0212
3 5 8 4.9864 -0.0128
3 5 9 2.6510 -0.0027
3 5 10 1.6908 -0.1218
3 5 11 -0.4656 0.0931
3 5 12 -0.5354 0.0232
3 5 13 0.3479 0.0989
3 6 0 0.5033 -0.0495
3 6 1 -13.2109 0.0277
3 6 2 6.0473 0.0124
3 6 3 2.4086 0.0122
3 6 4 -2.9197 0.0026
3 6 5 0.4649 -0.0123
3 6 6 4.2168 -0.0247
3 6 7 -1.5203 -0.0474
3 6 8 -0.9429 0.0174
3 6 9 2.8083 0.0484
3 6 10 -2.6596 -0.1319
3 6 11 -0.2724 0.0728
3 6 12 -1.4437 0.1272
3 6 13 0.4868 -0.0806
3 7 0 3.4472 0.0022
3 7 1 -4.5542 -0.0082
3 7 2 -1.4233 -0.0182
3 7 3 3.5156 0.0391
3 7 4 0.9792 0.0047
3 7 5 -6.9213 -0.0272
3 7 6 3.0538 0.0096
3 7 7 1.3204 0.0496
3 7 8 -5.3161 0.0105
3 7 9 -2.2660 -0.0404
3 7 10 -0.3930 0.0199
3 7 11 -1.2208 -0.0336
3 7 12 -0.8389 0.1559
3 8 0 2.7133 -0.0420
3 8 1 10.4969 -0.0785
3 8 2 -5.9585 -0.0021
3 8 3 -3.5296 0.0174
3 8 4 6.0660 0.0492
3 8 5 -1.2848 0.0012
3 8 6 -3.7619 -0.0722
3 8 7 1.2137 0.0445
3 8 8 1.0132 0.0278
3 8 9 -3.6105 -0.0047
3 8 10 2.6676 0.0503
3 8 11 0.9949 -0.1976
3 8 12 0.0998 -0.0795
3 9 0 -2.9187 0.0338
3 9 1 3.0841 0.0028
3 9 2 2.8323 0.0097
3 9 3 -5.0585 -0.0203
3 9 4 -0.8154 -0.0090
3 9 5 5.6686 0.0451
3 9 6 -1.6498 -0.0034
3 9 7 -1.5521 -0.0299
3 9 8 4.2254 -0.0031
3 9 9 1.2407 0.0482
3 9 10 -0.3639 0.0741
3 9 11 0.6567 -0.1446
3 9 12 0.0848 -0.1401
3 10 0 -2.6595 0.0533
3 10 1 -5.9280 0.0329
3 10 2 2.7397 -0.0264
3 10 3 3.3607 -0.0157
3 10 4 -5.6071 -0.0220
3 10 5 1.4429 -0.0078
3 10 6 2.4105 0.0277
3 10 7 0.2910 -0.0369
3 10 8 -0.1778 -0.0034
3 10 9 2.7421 -0.0118
3 10 10 -2.2181 0.0310
3 10 11 0.0041 0.1586
3 10 12 0.0026 -0.1548
3 11 0 0.0836 -0.0028
3 11 1 -0.0304 -0.0088
3 11 2 -2.5075 0.0040
3 11 3 3.1909 -0.0012
3 11 4 -0.2918 0.0199
3 11 5 -2.5251 0.0242
3 11 6 0.1207 -0.0052
3 11 7 0.7312 -0.0530
3 11 8 -3.1667 0.0223
3 11 9 0.0092 0.0515
3 11 10 0.0229 -0.0862
3 11 11 0.9063 0.1979
3 11 12 1.3375 -0.0277
3 12 0 1.4506 0.0214
3 12 1 1.5211 0.0514
3 12 2 0.4794 0.0397
3 12 3 -1.9561 -0.0023
3 12 4 2.9788 -0.0557
3 12 5 -1.4410 0.0022
3 12 6 -0.5614 0.0788
3 12 7 -0.9409 0.0406
3 12 8 -0.2877 -0.0568
3 12 9 -0.7689 -0.0445
3 12 10 2.4118 0.0117
3 12 11 -0.9365 -0.0511
3 13 0 2.0599 -0.0421
3 13 1 -2.2952 -0.0050
3 13 2 1.4525 -0.0189
3 13 3 -1.2273 0.0329
3 13 4 0.9287 -0.0220
3 13 5 -1.0033 -0.0418
3 13 6 0.9071 -0.0102
3 13 7 -0.1149 0.0623
3 13 8 2.7171 -0.0068
3 13 9 -0.6246 -0.1705
3 13 10 0.4729 0.1180
3 13 11 -1.3351 -0.0382
3 14 0 0.2512 -0.0449
3 14 1 0.7115 -0.0575
3 14 2 -1.9037 -0.0209
3 14 3 0.7955 0.0260
3 14 4 -0.2516 0.0511
3 14 5 0.8976 0.0299
3 14 6 -0.7407 -0.0333
3 14 7 0.9532 -0.0551
3 14 8 0.0279 0.0402
3 14 9 -0.2483 0.0895
3 14 10 -2.2625 -0.1170
3 14 11 0.2623 0.0812
3 15 0 -2.3173 0.0349
3 15 1 3.0578 0.0022
3 15 2 -0.7072 0.0271
3 15 3 0.6414 -0.0090
3 15 4 -0.7062 0.0723
3 15 5 2.8826 -0.0305
3 15 6 -2.1361 0.0495
3 15 7 0.3961 0.0207
3 15 8 -1.9593 -0.0209
3 15 9 0.4365 0.2078
3 15 10 -0.2431 -0.2178
3 16 0 -1.0241 0.0013
3 16 1 -0.5562 -0.0020
3 16 2 1.7399 -0.0303
3 16 3 0.1446 -0.0322
3 16 4 -1.4716 0.0356
3 16 5 -0.3654 -0.0662
3 16 6 0.8840 -0.0744
3 16 7 -1.1496 0.0039
3 16 8 0.2041 0.0515
3 16 9 -0.1027 0.0362
3 16 10 0.9642 0.1976
3 17 0 1.0190 0.0338
3 17 1 -2.4293 0.0428
3 17 2 -0.0480 -0.0386
3 17 3 -0.5838 -0.0257
3 17 4 1.0468 -0.1146
3 17 5 -2.4938 0.0265
3 17 6 3.0751 -0.0353
3 17 7 -0.8826 -0.0024
3 17 8 0.7867 -0.0725
3 17 9 -0.2602 -0.2009
3 18 0 0.1671 0.0272
3 18 1 -0.3799 0.0138
3 18 2 -0.6442 0.0267
3 18 3 -1.2773 -0.0147
3 18 4 1.7216 -0.0324
3 18 5 0.2640 0.0960
3 18 6 -0.4274 -0.0198
3 18 7 0.9753 0.1773
3 18 8 -0.1595 -0.0633
3 18 9 0.3313 -0.2482
3 19 0 0.3483 -0.1174
3 19 1 1.2528 -0.0723
3 19 2 0.9144 0.0574
3 19 3 0.6032 -0.0266
3 19 4 -1.5010 0.0433
3 19 5 0.9920 0.0882
3 19 6 -3.0876 -0.0976
3 19 7 0.7140 -0.2275
3 19 8 -0.1210 0.2062
3 20 0 0.6423 -0.0018
3 20 1 0.8261 0.0318
3 20 2 -0.8241 -0.0353
3 20 3 1.4352 0.0378
3 20 4 -0.7544 -0.0526
3 20 5 0.2284 -0.0781
3 20 6 0.1751 0.2886
3 20 7 -0.3670 -0.3406
3 21 0 -0.5387 0.1179
3 21 1 -0.2956 0.0980
3 21 2 -0.9580 -0.0941
3 21 3 -0.8245 0.0125
3 21 4 0.5355 0.0324
3 21 5 0.0489 -0.1308
3 21 6 2.5353 0.2390
3 21 7 -0.0600 0.4234
3 22 0 -0.2111 -0.0949
3 22 1 -1.0348 -0.0478
3 22 2 1.6823 0.2275
3 22 3 -0.2757 0.0585
3 22 4 -0.1769 0.0406
3 22 5 -0.8235 -0.0076
3 22 6 -0.2064 -0.4297
3 23 0 0.0270 0.0169
3 23 1 -0.3111 -0.1519
3 23 2 0.1929 0.1522
3 23 3 0.8674 0.1427
3 23 4 0.8003 0.0142
3 23 5 -0.1268 0.0490
3 24 0 -0.4167 0.2246
3 24 1 1.2144 0.0363
3 24 2 -1.4295 -0.4017
3 24 3 -0.4747 -0.1618
3 25 0 0.1649 -0.1651
3 25 1 0.5979 0.1358
4 0 0 13.3726 0.1334
4 0 1 -5.1964 0.1075
4 0 2 -3.8698 -0.0131
4 0 3 1.2562 -0.1790
4 0 4 5.7403 -0.1006
4 0 5 -4.7386 0.1750
4 0 6 1.1388 0.1876
4 0 7 1.4578 -0.0833
4 0 8 0.5183 -0.2467
4 0 9 -0.4856 -0.0820
4 0 10 -5.2661 0.1631
4 0 11 0.0691 0.0754
4 0 12 1.1752 0.0433
4 1 0 -3.9585 -0.0421
4 1 1 9.7078 -0.0358
4 1 2 5.0466 0.0595
4 1 3 -12.6180 0.0353
4 1 4 3.9382 -0.0027
4 1 5 -2.9741 -0.0072
4 1 6 -1.3501 -0.0243
4 1 7 -1.7827 -0.0194
4 1 8 -3.8576 0.0615
4 1 9 -0.8990 -0.0311
4 1 10 -0.4875 -0.0347
4 1 11 0.9107 0.0027
4 1 12 0.8889 -0.0507
4 2 0 -10.7170 -0.0138
4 2 1 5.4434 0.0051
4 2 2 2.3113 0.0116
4 2 3 -0.7611 0.0519
4 2 4 -3.9802 0.0622
4 2 5 4.0155 -0.0720
4 2 6 -1.6313 -0.0614
4 2 7 -1.0119 0.0438
4 2 8 0.4056 0.0463
4 2 9 0.7339 0.0077
4 2 10 3.7995 -0.1326
4 2 11 -1.2090 -0.0654
4 2 12 -0.2937 0.0836
4 3 0 0.0562 0.0043
4 3 1 -5.6612 0.0127
4 3 2 -3.6669 -0.0029
4 3 3 9.1138 -0.0435
4 3 4 -2.9864 -0.0325
4 3 5 4.1823 -0.0104
4 3 6 0.9283 0.0260
4 3 7 1.1729 0.0266
4 3 8 3.8009 -0.0591
4 3 9 1.5800 0.0186
4 3 10 1.2994 -0.0365
4 3 11 -1.6950 0.0345
4 3 12 -1.6470 0.0624
4 4 0 4.9337 -0.0513
4 4 1 -6.3047 -0.0693
4 4 2 1.1392 0.0290
4 4 3 0.3093 0.0856
4 4 4 -0.1716 0.0206
4 4 5 -2.0674 -0.0342
4 4 6 2.7561 -0.0387
4 4 7 -0.3890 -0.0113
4 4 8 -2.2681 0.0334
4 4 9 -0.5620 0.0727
4 4 10 -1.8224 0.0110
4 4 11 2.0970 -0.0356
4 4 12 -0.9327 -0.0389
4 5 0 4.8199 -0.0107
4 5 1 1.1473 0.0251
4 5 2 1.0425 -0.0095
4 5 3 -3.6208 0.0173
4 5 4 1.9735 0.0248
4 5 5 -5.4767 0.0186
4 5 6 0.5038 -0.0213
4 5 7 0.2343 0.0438
4 5 8 -4.5770 0.0192
4 5 9 -2.0628 -0.0337
4 5 10 -0.9595 0.1666
4 5 11 0.9109 -0.0955
4 5 12 0.8861 -0.0715
4 6 0 -0.2332 0.0122
4 6 1 7.2134 -0.0053
4 6 2 -3.9166 -0.0323
4 6 3 -1.4454 -0.0531
4 6 4 4.2119 -0.0187
4 6 5 0.3503 0.0432
4 6 6 -3.5959 -0.0105
4 6 7 1.7111 -0.0160
4 6 8 3.3709 0.0058
4 6 9 -0.9706 -0.0570
4 6 10 1.6549 0.0716
4 6 11 -0.4234 -0.0410
4 6 12 0.8564 -0.1682
4 7 0 -7.0105 0.0808
4 7 1 0.7313 -0.0403
4 7 2 1.8951 -0.0210
4 7 3 -1.1936 0.0006
4 7 4 -1.8938 0.0280
4 7 5 5.6460 0.0626
4 7 6 -1.3755 0.0453
4 7 7 -1.5458 -0.0669
4 7 8 5.6615 0.0207
4 7 9 2.1169 0.0358
4 7 10 -0.6926 -0.1124
4 7 11 0.6579 0.0827
4 7 12 0.5800 -0.0268
4 8 0 -1.4577 0.0249
4 8 1 -6.5438 0.0590
4 8 2 4.2289 0.0132
4 8 3 3.2955 -0.0359
4 8 4 -6.0648 -0.0536
4 8 5 -0.1822 -0.0087
4 8 6 3.4100 0.0814
4 8 7 -1.3069 0.0160
4 8 8 -2.9237 -0.0291
4 8 9 2.5117 -0.0396
4 8 10 -1.7545 -0.0346
4 8 11 -1.1968 0.2838
4 9 0 5.3071 -0.0750
4 9 1 -0.0696 0.0051
4 9 2 -3.4407 0.0037
4 9 3 3.1186 0.0132
4 9 4 1.8339 -0.0044
4 9 5 -4.3313 -0.0671
4 9 6 0.3887 -0.0435
4 9 7 1.4730 0.0281
4 9 8 -5.4644 -0.0387
4 9 9 -1.3555 -0.0204
4 9 10 1.6417 -0.0443
4 9 11 -0.7600 0.0563
4 10 0 1.3293 0.0017
4 10 1 3.7212 0.0228
4 10 2 -2.3458 -0.0174
4 10 3 -3.3291 0.0160
4 10 4 5.1375 0.0374
4 10 5 0.2315 -0.0015
4 10 6 -2.2709 -0.0236
4 10 7 -0.1161 0.0090
4 10 8 1.5083 0.0098
4 10 9 -1.9176 0.0560
4 10 10 1.2905 -0.0181
4 10 11 0.3751 -0.3030
4 11 0 -1.6174 -0.0172
4 11 1 -1.2752 0.0047
4 11 2 2.9665 0.0199
4 11 3 -2.3199 0.0142
4 11 4 -0.4675 -0.0413
4 11 5 1.8747 -0.0434
4 11 6 0.9295 -0.0066
4 11 7 -0.1639 -0.0262
4 11 8 3.8694 0.0473
4 11 9 -0.7484 -0.0191
4 11 10 -1.0949 0.0728
4 11 11 0.0643 -0.1334
4 12 0 -0.6531 -0.0262
4 12 1 -0.5857 -0.0914
4 12 2 0.1333 -0.0028
4 12 3 1.6959 0.0158
4 12 4 -2.2357 0.0372
4 12 5 0.6435 0.0284
4 12 6 0.6985 -0.0374
4 12 7 0.6660 0.0037
4 12 8 -0.3309 0.0445
4 12 9 -0.3945 0.0592
4 12 10 -1.3036 -0.0572
4 13 0 -1.3008 0.0288
4 13 1 2.2197 0.0427
4 13 2 -1.7799 0.0425
4 13 3 0.9035 -0.0729
4 13 4 -0.9230 -0.0067
4 13 5 0.8627 0.0433
4 13 6 -1.5275 0.0361
4 13 7 -0.8922 0.0563
4 13 8 -2.3188 -0.0645
4 13 9 2.5942 0.1094
4 13 10 0.3398 -0.0458
4 14 0 -0.3456 0.0077
4 14 1 -0.6990 0.0239
4 14 2 0.8982 0.0068
4 14 3 -0.7255 0.0017
4 14 4 -0.8426 -0.0013
4 14 5 -0.8248 -0.0784
4 14 6 0.6054 0.0056
4 14 7 -0.5978 -0.0515
4 14 8 0.1109 -0.1123
4 14 9 1.8639 -0.1249
4 14 10 1.2360 0.1910
4 15 0 1.8850 0.0536
4 15 1 -2.6332 -0.0299
4 15 2 0.8772 -0.1177
4 15 3 -0.3222 0.0312
4 15 4 0.9739 0.0234
4 15 5 -2.3767 0.0379
4 15 6 2.2672 -0.0258
4 15 7 0.6216 -0.0005
4 15 8 1.6351 0.0373
4 15 9 -2.0778 -0.2226
4 16 0 0.8863 -0.0031
4 16 1 0.3238 0.0519
4 16 2 -0.7597 0.0656
4 16 3 0.3577 0.0225
4 16 4 2.2830 -0.0840
4 16 5 -0.4253 0.1075
4 16 6 -0.9263 -0.0736
4 16 7 0.9923 0.0864
4 16 8 -0.4153 0.1358
4 16 9 -1.4978 0.0023
4 17 0 -0.6236 -0.0943
4 17 1 2.2925 -0.0675
4 17 2 0.1103 0.1000
4 17 3 0.2716 0.0537
4 17 4 -0.8707 0.0450
4 17 5 1.8791 0.0665
4 17 6 -3.0007 0.0231
4 17 7 0.4414 -0.1809
4 17 8 -1.2970 0.0928
4 18 0 -0.2606 0.0382
4 18 1 -0.0557 0.0036
4 18 2 0.1016 -0.0902
4 18 3 0.7152 -0.0435
4 18 4 -1.8351 0.0564
4 18 5 1.3643 -0.1447
4 18 6 0.4840 0.3284
4 18 7 -1.3339 -0.1280
4 18 8 0.3796 -0.1071
4 19 0 -0.5515 0.0679
4 19 1 -1.2302 0.1388
4 19 2 -0.9204 -0.0022
4 19 3 -0.1187 -0.0246
4 19 4 1.1279 -0.0200
4 19 5 -0.6330 -0.2778
4 19 6 2.7014 -0.0290
4 19 7 -0.9061 0.3626
4 20 0 -0.5317 -0.0525
4 20 1 0.3605 -0.1280
4 20 2 0.6029 0.0607
4 20 3 -1.4211 0.0133
4 20 4 0.8375 -0.0164
4 20 5 -1.1725 0.1923
4 20 6 -0.2544 -0.5157
4 21 0 0.6816 0.0131
4 21 1 0.3311 -0.1874
4 21 2 0.6592 -0.1244
4 21 3 -0.0193 -0.0074
4 21 4 -0.5428 -0.0779
4 21 5 0.1430 0.2932
4 21 6 -1.6460 0.0268
4 22 0 0.4282 0.0241
4 22 1 -0.2461 0.1896
4 22 2 -0.9049 -0.1672
4 22 3 0.6823 -0.0515
4 22 4 -0.2790 0.1045
4 22 5 0.5285 -0.1749
4 23 0 -0.5887 -0.1751
4 23 1 -0.1509 0.2405
4 23 2 0.0819 0.1885
4 23 3 -0.1397 -0.0750
4 24 0 -0.0372 -0.0086
4 24 1 -0.3141 -0.1472
5 0 0 -9.4128 -0.1320
5 0 1 -0.6244 -0.1023
5 0 2 3.6291 0.1120
5 0 3 0.6122 0.1900
5 0 4 -3.5724 -0.0317
5 0 5 2.7447 -0.1670
5 0 6 -0.6900 -0.0471
5 0 7 0.4191 0.1019
5 0 8 2.2749 0.1324
5 0 9 1.6997 -0.0160
5 0 10 3.6064 -0.1251
5 0 11 -0.9303 -0.0237
5 1 0 -3.0882 0.0240
5 1 1 -4.6388 -0.0326
5 1 2 -4.7446 0.0033
5 1 3 10.9510 -0.0404
5 1 4 -3.1442 0.0081
5 1 5 0.9687 0.0344
5 1 6 1.0045 -0.0279
5 1 7 2.6116 0.0149
5 1 8 4.1089 -0.0421
5 1 9 -2.0703 -0.0267
5 1 10 -2.4779 -0.0084
5 1 11 -0.6485 0.0239
5 2 0 8.0875 -0.0606
5 2 1 0.2037 -0.0288
5 2 2 -2.6613 0.0078
5 2 3 -0.3892 -0.0365
5 2 4 2.0433 -0.0289
5 2 5 -2.9645 0.0511
5 2 6 0.7773 0.0226
5 2 7 -0.5593 -0.0089
5 2 8 -2.6825 0.0344
5 2 9 -1.7544 -0.0558
5 2 10 -2.4837 0.0503
5 2 11 1.6766 0.0709
5 3 0 4.4207 0.0268
5 3 1 2.1606 -0.0033
5 3 2 3.2117 -0.0706
5 3 3 -7.3668 0.0608
5 3 4 3.3828 0.0315
5 3 5 -2.6836 0.0035
5 3 6 -1.3794 0.0432
5 3 7 -1.0888 -0.0225
5 3 8 -2.7387 0.0472
5 3 9 0.6685 0.0074
5 3 10 -0.0308 0.0373
5 3 11 0.4952 0.0030
5 4 0 -4.9900 0.0792
5 4 1 1.1857 0.0419
5 4 2 0.5354 -0.0650
5 4 3 -0.1082 -0.0807
5 4 4 1.4591 -0.0210
5 4 5 2.4816 0.0693
5 4 6 -1.4945 -0.0138
5 4 7 1.3121 -0.0883
5 4 8 3.5838 -0.0098
5 4 9 1.1434 0.0642
5 4 10 0.8946 -0.0392
5 4 11 -1.9567 -0.0006
5 5 0 -6.5644 -0.0254
5 5 1 0.2840 -0.0521
5 5 2 -0.6190 0.0596
5 5 3 2.5299 0.0306
5 5 4 -3.0017 0.0052
5 5 5 4.4884 -0.0400
5 5 6 0.7093 -0.0001
5 5 7 -1.0003 -0.0204
5 5 8 2.5256 -0.0158
5 5 9 0.7845 0.0521
5 5 10 1.0536 -0.1673
5 5 11 0.0113 0.0439
5 6 0 2.2614 0.0097
5 6 1 -2.9289 0.0659
5 6 2 1.2069 0.0259
5 6 3 1.1825 0.0066
5 6 4 -4.4499 0.0244
5 6 5 -1.0621 -0.0988
5 6 6 2.7323 0.0238
5 6 7 -2.3876 0.1053
5 6 8 -4.4393 -0.0394
5 6 9 0.6018 -0.0232
5 6 10 -0.6462 0.0579
5 6 11 0.2027 0.0263
5 7 0 7.3679 -0.0262
5 7 1 -0.7973 0.0429
5 7 2 -2.1930 0.0079
5 7 3 0.9962 -0.0256
5 7 4 2.8540 -0.0772
5 7 5 -4.5193 -0.0302
5 7 6 0.0318 -0.0620
5 7 7 2.1484 -0.0303
5 7 8 -3.8645 -0.0345
5 7 9 -1.6932 0.0047
5 7 10 0.3377 0.1231
5 7 11 -0.3142 -0.1445
5 8 0 -1.2696 -0.0161
5 8 1 3.3645 -0.0805
5 8 2 -1.5744 0.0037
5 8 3 -2.7609 0.0879
5 8 4 5.2345 0.0349
5 8 5 0.6195 0.0420
5 8 6 -3.0891 -0.0040
5 8 7 2.5005 -0.0171
5 8 8 4.5027 0.0011
5 8 9 -2.0449 0.0323
5 8 10 0.7704 -0.0575
5 8 11 1.3299 -0.2340
5 9 0 -5.2382 -0.0037
5 9 1 -0.0509 0.0399
5 9 2 3.7828 0.0086
5 9 3 -2.2693 -0.0541
5 9 4 -2.9634 0.0384
5 9 5 2.9808 0.0434
5 9 6 0.8213 0.0497
5 9 7 -1.5366 0.0379
5 9 8 4.1814 0.0472
5 9 9 1.3599 -0.0707
5 9 10 -1.2716 0.0512
5 10 0 1.1541 -0.0061
5 10 1 -1.9666 -0.0384
5 10 2 0.6718 -0.0128
5 10 3 3.0150 -0.0297
5 10 4 -4.0202 0.0169
5 10 5 -0.8500 0.0278
5 10 6 1.8998 -0.0062
5 10 7 -1.6215 -0.0377
5 10 8 -2.8143 -0.0293
5 10 9 1.8685 -0.0394
5 10 10 -0.6204 0.0509
5 11 0 1.5584 0.0782
5 11 1 0.8562 -0.0451
5 11 2 -3.3777 -0.0531
5 11 3 1.7410 0.0388
5 11 4 1.3963 0.0445
5 11 5 -1.3226 0.0190
5 11 6 -2.1055 -0.0430
5 11 7 -0.1461 0.1089
5 11 8 -2.1803 -0.0175
5 11 9 1.0449 0.0369
5 11 10 0.4637 -0.0571
5 12 0 -0.8707 -0.0100
5 12 1 0.2367 0.0634
5 12 2 0.5324 0.0344
5 12 3 -1.5310 -0.0157
5 12 4 1.5113 -0.0613
5 12 5 0.0596 -0.0490
5 12 6 0.0258 -0.0498
5 12 7 1.0209 -0.0693
5 12 8 0.0402 0.0639
5 12 9 -0.6294 -0.0441
5 13 0 1.0788 -0.0352
5 13 1 -1.4122 -0.0038
5 13 2 2.1217 -0.0034
5 13 3 -0.3430 0.0182
5 13 4 1.0777 -0.0211
5 13 5 -0.2711 0.0195
5 13 6 2.3605 0.1298
5 13 7 1.3521 -0.1559
5 13 8 -0.2033 0.0112
5 13 9 -3.5187 -0.0444
5 14 0 0.8823 0.0036
5 14 1 0.5147 0.0736
5 14 2 -1.0382 -0.0030
5 14 3 0.6044 -0.0426
5 14 4 1.3889 -0.0661
5 14 5 0.5135 0.0498
5 14 6 -1.4183 0.0159
5 14 7 -0.8669 0.1733
5 14 8 1.2348 0.0806
5 14 9 -0.4063 0.1234
5 15 0 -1.5836 -0.0645
5 15 1 1.9516 -0.0217
5 15 2 -1.1546 0.0691
5 15 3 -0.7184 0.0143
5 15 4 -1.5363 -0.0105
5 15 5 1.7597 -0.0162
5 15 6 -2.3849 -0.1275
5 15 7 -1.1155 -0.0636
5 15 8 0.8095 -0.0400
5 16 0 -1.2182 0.0148
5 16 1 -0.6466 -0.1451
5 16 2 0.7526 -0.0565
5 16 3 -0.6847 0.0453
5 16 4 -2.8377 0.1532
5 16 5 0.6595 -0.1349
5 16 6 1.3592 0.2436
5 16 7 0.3790 -0.0711
5 16 8 -0.2250 -0.2587
5 17 0 0.7476 0.0459
5 17 1 -1.7496 0.0561
5 17 2 0.1883 -0.0290
5 17 3 0.7111 -0.0669
5 17 4 0.4051 -0.0465
5 17 5 -1.9988 -0.2145
5 17 6 2.6662 -0.0808
5 17 7 0.0580 0.2834
5 18 0 0.8527 0.0173
5 18 1 0.8714 -0.0100
5 18 2 -0.4003 -0.0229
5 18 3 -0.0641 0.0164
5 18 4 2.0959 -0.0612
5 18 5 -1.7766 0.3165
5 18 6 -0.3103 -0.4823
5 18 7 0.2614 -0.0788
5 19 0 -0.0316 0.0417
5 19 1 0.4052 -0.0072
5 19 2 0.6777 -0.0804
5 19 3 -0.1917 0.0586
5 19 4 -0.0224 0.0701
5 19 5 0.9971 0.3766
5 19 6 -2.2558 0.2417
5 20 0 -0.0922 -0.0769
5 20 1 -1.0378 0.2855
5 20 2 0.4434 0.1896
5 20 3 1.2509 -0.0467
5 20 4 -0.8657 0.0253
5 20 5 1.1434 -0.4327
5 21 0 -0.1194 -0.0751
5 21 1 0.7572 -0.0143
5 21 2 -0.6900 0.2086
5 21 3 -0.0924 -0.0714
5 21 4 0.2228 -0.0257
5 22 0 0.1932 0.1234
5 22 1 0.8246 -0.4464
5 22 2 -0.5685 -0.1841
5 22 3 -1.1092 0.0911
5 23 0 0.3409 0.0948
5 23 1 -0.6455 -0.0482
6 0 0 7.3329 0.1652
6 0 1 4.1921 0.0558
6 0 2 -4.6443 -0.1998
6 0 3 -2.4806 -0.1708
6 0 4 2.5065 0.0732
6 0 5 -0.4962 0.1522
6 0 6 -0.4256 -0.0061
6 0 7 -3.5182 -0.1660
6 0 8 -3.8336 -0.0435
6 0 9 -0.5136 0.2178
6 0 10 -0.3532 0.0584
6 1 0 3.2412 -0.0517
6 1 1 1.2200 0.0234
6 1 2 5.4165 -0.0256
6 1 3 -8.7735 0.0377
6 1 4 2.4621 0.0297
6 1 5 -0.2497 -0.0020
6 1 6 -1.2653 0.0287
6 1 7 -1.0575 -0.0932
6 1 8 -1.1769 -0.0049
6 1 9 4.3816 0.1115
6 1 10 2.3776 0.0468
6 2 0 -6.3859 0.0592
6 2 1 -3.0479 0.0580
6 2 2 3.7407 0.0313
6 2 3 1.2001 0.0408
6 2 4 -1.2186 -0.0009
6 2 5 1.4971 -0.1062
6 2 6 0.4828 -0.0280
6 2 7 2.7647 0.1170
6 2 8 3.3012 -0.0872
6 2 9 0.7346 -0.0497
6 2 10 0.4018 -0.0021
6 3 0 -3.8368 -0.0226
6 3 1 0.2505 0.0051
6 3 2 -2.9207 0.0738
6 3 3 5.7339 -0.0472
6 3 4 -3.6422 -0.0544
6 3 5 1.2993 -0.0045
6 3 6 1.1588 -0.0108
6 3 7 -0.2537 0.0778
6 3 8 0.8767 -0.1492
6 3 9 -2.1274 -0.1710
6 3 10 -0.2719 -0.0050
6 4 0 4.3070 -0.0373
6 4 1 0.4624 -0.0219
6 4 2 -1.8464 0.0288
6 4 3 0.8055 -0.0054
6 4 4 -1.7816 0.0202
6 4 5 -2.3990 0.0211
6 4 6 0.0816 0.0654
6 4 7 -1.7211 0.0084
6 4 8 -2.5515 0.0086
6 4 9 -0.7254 -0.0924
6 4 10 -0.5826 0.0659
6 5 0 5.1566 0.0273
6 5 1 -1.3332 0.0427
6 5 2 0.0874 -0.0537
6 5 3 -1.6366 -0.0608
6 5 4 3.6611 0.0117
6 5 5 -3.0848 0.0623
6 5 6 -0.4689 -0.0585
6 5 7 2.1074 -0.0650
6 5 8 -1.3240 0.1534
6 5 9 -0.2545 0.0592
6 5 10 -0.6854 0.0674
6 6 0 -2.7238 -0.0703
6 6 1 1.7216 -0.0584
6 6 2 0.4631 -0.0067
6 6 3 -1.8715 0.0766
6 6 4 4.0313 -0.0009
6 6 5 1.4339 0.0310
6 6 6 -1.3856 -0.0264
6 6 7 1.8541 -0.0190
6 6 8 2.9073 0.0134
6 6 9 0.0603 0.0580
6 6 10 0.6637 -0.1229
6 7 0 -5.4473 -0.0048
6 7 1 0.9326 -0.0190
6 7 2 1.9780 -0.0060
6 7 3 -1.1070 0.0324
6 7 4 -3.0764 0.0583
6 7 5 3.8252 -0.0483
6 7 6 0.0539 0.0389
6 7 7 -3.3072 0.1489
6 7 8 2.2761 0.0217
6 7 9 1.4409 -0.0357
6 7 10 -0.3039 -0.0510
6 8 0 2.2830 0.0286
6 8 1 -2.3473 -0.0023
6 8 2 -0.1981 0.0185
6 8 3 2.8188 -0.0800
6 8 4 -3.9031 -0.0504
6 8 5 -0.7021 0.0056
6 8 6 1.7046 -0.0391
6 8 7 -2.4411 -0.0936
6 8 8 -3.5950 0.0950
6 8 9 0.4609 -0.0012
6 9 0 3.3516 0.0094
6 9 1 0.1610 -0.0347
6 9 2 -3.1396 0.0428
6 9 3 1.8647 0.0523
6 9 4 3.0682 -0.0841
6 9 5 -2.8111 0.0219
6 9 6 -0.7717 0.0680
6 9 7 2.9432 -0.0613
6 9 8 -2.3592 -0.1029
6 9 9 -1.2071 0.0589
6 10 0 -1.9224 0.0238
6 10 1 1.8511 0.1051
6 10 2 0.5812 -0.0148
6 10 3 -3.1133 -0.0323
6 10 4 2.6650 -0.0210
6 10 5 1.2965 -0.0355
6 10 6 -0.2523 -0.0096
6 10 7 2.1240 0.0475
6 10 8 2.0014 -0.0656
6 10 9 -0.5243 0.0187
6 11 0 -0.4284 -0.0043
6 11 1 -0.9399 0.0167
6 11 2 2.9442 -0.0527
6 11 3 -1.2954 -0.0136
6 11 4 -1.7439 0.0474
6 11 5 1.4425 -0.0193
6 11 6 1.4316 0.0059
6 11 7 -1.2453 -0.2151
6 11 8 1.2711 -0.0110
6 11 9 -0.3889 0.0112
6 12 0 1.0753 -0.0110
6 12 1 -1.0939 -0.0830
6 12 2 -1.0039 -0.0123
6 12 3 1.6207 0.0943
6 12 4 -1.3902 0.0471
6 12 5 -1.3128 -0.0796
6 12 6 -1.6455 0.0831
6 12 7 -1.1089 0.2290
6 12 8 1.7732 -0.0188
6 13 0 -1.4376 -0.0339
6 13 1 1.4517 -0.0372
6 13 2 -1.8029 0.0287
6 13 3 -0.3092 -0.0236
6 13 4 -1.1575 0.0133
6 13 5 -0.1681 0.0151
6 13 6 -0.9794 -0.2483
6 13 7 -0.2798 0.2178
6 13 8 -0.0293 0.0678
6 14 0 -0.7670 0.0284
6 14 1 0.1785 -0.0163
6 14 2 1.0797 0.0011
6 14 3 -0.2025 -0.0332
6 14 4 -0.6129 0.1017
6 14 5 0.5262 0.1583
6 14 6 2.4458 0.0590
6 14 7 0.3756 -0.3374
6 14 8 -3.7222 -0.0978
6 15 0 2.1736 0.0641
6 15 1 -1.8427 0.1046
6 15 2 0.7834 0.0046
6 15 3 2.0108 -0.0434
6 15 4 2.2466 -0.0461
6 15 5 -1.2831 -0.1303
6 15 6 0.5738 0.1973
6 15 7 0.3497 0.1137
6 16 0 1.0926 0.0108
6 16 1 0.7184 0.0693
6 16 2 -0.6888 -0.0347
6 16 3 0.4642 -0.0231
6 16 4 2.4616 -0.1529
6 16 5 -0.6606 0.0796
6 16 6 -1.7039 -0.3183
6 17 0 -2.1531 -0.0459
6 17 1 1.5357 0.0192
6 17 2 0.1323 0.0399
6 17 3 -2.0911 0.0960
6 17 4 -0.7814 0.0341
6 17 5 1.7591 0.3250
6 17 6 -1.0342 0.2020
6 18 0 -0.6204 -0.1742
6 18 1 -0.7845 -0.0027
6 18 2 0.3088 0.2062
6 18 3 -0.7245 -0.0295
6 18 4 -2.2640 0.0177
6 18 5 1.2701 -0.4277
6 19 0 1.6703 -0.0030
6 19 1 -0.3869 -0.3351
6 19 2 -1.1702 -0.1103
6 19 3 0.7428 -0.0782
6 19 4 -0.1955 -0.0102
6 20 0 -0.4821 0.2567
6 20 1 0.0122 -0.1969
6 20 2 -0.4217 -0.3724
6 20 3 -0.0098 0.1612
6 21 0 -1.2629 0.0298
6 21 1 -0.5424 0.4973
6 21 2 1.6437 0.0531
6 22 0 0.5059 -0.1586
7 0 0 -4.7311 -0.1086
7 0 1 -6.5399 0.1047
7 0 2 5.3879 0.2274
7 0 3 3.1241 0.0135
7 0 4 -1.5634 -0.1739
7 0 5 0.4336 -0.0873
7 0 6 1.3955 0.0905
7 0 7 3.7638 0.2197
7 0 8 1.9074 0.0698
7 0 9 -1.5355 -0.2824
7 1 0 -0.6934 0.1048
7 1 1 0.7853 -0.0036
7 1 2 -6.8752 -0.0498
7 1 3 5.4015 -0.0627
7 1 4 -1.2069 -0.0026
7 1 5 0.0722 0.0613
7 1 6 0.0374 -0.0899
7 1 7 -2.2464 0.0261
7 1 8 -1.9591 0.1476
7 1 9 -3.7272 -0.0353
7 2 0 4.1198 -0.0468
7 2 1 4.5535 -0.1093
7 2 2 -4.8259 -0.0666
7 2 3 -1.3703 0.0603
7 2 4 0.8401 0.0677
7 2 5 -1.0257 0.0091
7 2 6 -1.0996 -0.0398
7 2 7 -2.9232 -0.1249
7 2 8 -1.6059 0.2002
7 2 9 0.9897 0.1761
7 3 0 1.9693 -0.0322
7 3 1 -1.3807 -0.0142
7 3 2 3.1227 0.0691
7 3 3 -3.5866 0.0736
7 3 4 2.8760 -0.0194
7 3 5 0.0708 -0.0913
7 3 6 0.1860 0.1120
7 3 7 1.4205 0.0358
7 3 8 0.3585 0.1469
7 3 9 2.1301 0.1955
7 4 0 -3.0066 -0.0096
7 4 1 -0.7126 0.0039
7 4 2 3.3928 0.0138
7 4 3 -1.4191 0.0090
7 4 4 1.2515 -0.0359
7 4 5 1.6189 0.0469
7 4 6 0.0174 -0.0147
7 4 7 1.4238 -0.0154
7 4 8 1.2370 -0.1884
7 4 9 -0.0835 0.0013
7 5 0 -3.5590 0.0031
7 5 1 1.5878 0.0134
7 5 2 0.3340 -0.0510
7 5 3 0.7457 -0.0033
7 5 4 -3.1091 0.0393
7 5 5 1.0872 0.0331
7 5 6 -0.5863 -0.0329
7 5 7 -1.2410 0.0328
7 5 8 1.1577 -0.1938
7 5 9 -0.5377 -0.1416
7 6 0 2.4452 0.1160
7 6 1 -1.6053 0.0186
7 6 2 -1.9347 -0.0369
7 6 3 2.6347 -0.0592
7 6 4 -3.1792 0.0296
7 6 5 -1.2563 -0.0146
7 6 6 1.2929 0.0056
7 6 7 -0.8057 -0.0656
7 6 8 -1.6104 0.0819
7 6 9 -0.3121 -0.0266
7 7 0 3.6790 0.0624
7 7 1 -0.8419 -0.0111
7 7 2 -1.7957 -0.0317
7 7 3 1.1889 0.0032
7 7 4 1.9981 -0.0404
7 7 5 -2.4095 0.0075
7 7 6 0.8384 0.0798
7 7 7 2.1789 -0.2050
7 7 8 -1.2793 -0.0738
7 8 0 -2.2787 -0.0512
7 8 1 1.9066 0.0433
7 8 2 1.2394 0.0030
7 8 3 -3.2783 -0.0013
7 8 4 3.1441 0.0036
7 8 5 1.3177 -0.0960
7 8 6 -1.3699 -0.0551
7 8 7 1.0101 0.2091
7 8 8 2.1825 -0.0694
7 9 0 -2.1763 -0.0812
7 9 1 -0.3866 -0.0192
7 9 2 2.4645 0.0155
7 9 3 -1.5170 -0.0190
7 9 4 -1.7859 0.0680
7 9 5 1.9706 -0.0163
7 9 6 -0.7074 -0.1947
7 9 7 -2.6063 0.1381
7 9 8 0.7487 0.2163
7 10 0 1.6621 -0.0560
7 10 1 -1.7085 0.0242
7 10 2 -1.1736 0.0367
7 10 3 3.4739 0.0412
7 10 4 -2.2604 0.0171
7 10 5 -2.3253 0.1007
7 10 6 0.1423 0.2147
7 10 7 -0.8856 -0.0195
7 10 8 -1.2383 0.0327
7 11 0 0.7010 0.0241
7 11 1 1.3365 0.0246
7 11 2 -2.5376 0.0544
7 11 3 1.1327 -0.0324
7 11 4 1.5238 -0.0343
7 11 5 -0.5206 0.0728
7 11 6 0.6190 0.0429
7 11 7 1.1879 0.1070
7 12 0 -0.7490 0.0826
7 12 1 1.2523 -0.0905
7 12 2 1.2719 0.0068
7 12 3 -1.6606 -0.0228
7 12 4 1.7865 -0.0426
7 12 5 2.3231 0.1187
7 12 6 0.8896 -0.2072
7 12 7 0.1051 -0.3692
7 13 0 0.4385 -0.0483
7 13 1 -1.6531 0.0867
7 13 2 1.7156 0.0572
7 13 3 0.0280 0.0238
7 13 4 0.3671 -0.1277
7 13 5 -0.6121 -0.1999
7 13 6 -0.8901 0.2686
7 13 7 0.7438 -0.0667
7 14 0 0.4656 -0.0615
7 14 1 0.1867 -0.0180
7 14 2 -1.2754 -0.1217
7 14 3 -0.7252 -0.0082
7 14 4 -0.4686 0.0106
7 14 5 -0.8083 -0.2111
7 14 6 -0.8900 -0.0856
7 15 0 -1.8152 0.1081
7 15 1 1.4294 -0.1471
7 15 2 -0.8786 -0.1819
7 15 3 -1.8698 0.0984
7 15 4 -1.8124 0.2065
7 15 5 1.2517 0.3123
7 16 0 -0.5733 -0.0770
7 16 1 -1.7430 0.0158
7 16 2 0.8338 0.2383
7 16 3 0.9390 0.0515
7 16 4 -1.5111 -0.0173
7 16 5 -0.0575 -0.1274
7 17 0 2.3217 -0.0333
7 17 1 -1.0304 -0.0994
7 17 2 0.4235 0.0023
7 17 3 2.4598 -0.1825
7 17 4 0.9868 -0.0861
7 18 0 -0.1278 0.3237
7 18 1 1.7043 0.2350
7 18 2 -0.0369 -0.2871
7 18 3 0.1272 -0.0254
7 19 0 -1.2209 -0.0566
7 19 1 0.7797 0.4993
7 19 2 0.1988 0.2417
7 20 0 1.3463 -0.3948
7 20 1 -0.4254 -0.3497
8 0 0 1.0071 -0.0878
8 0 1 7.2269 -0.1254
8 0 2 -3.7030 -0.0765
8 0 3 -2.5012 0.0379
8 0 4 -0.0064 0.1660
8 0 5 -0.6774 0.0414
8 0 6 -0.2675 -0.1201
8 0 7 -0.7768 -0.2798
8 0 8 1.1154 -0.2668
8 1 0 -1.9905 -0.0347
8 1 1 -0.7298 0.1417
8 1 2 7.7866 -0.0389
8 1 3 -2.4543 -0.1015
8 1 4 0.9681 0.0537
8 1 5 1.1710 0.0040
8 1 6 1.1664 0.0826
8 1 7 3.7122 0.0174
8 1 8 2.0129 -0.1895
8 2 0 -0.8328 0.1386
8 2 1 -4.8484 -0.0045
8 2 2 3.6513 -0.0650
8 2 3 1.0063 -0.0487
8 2 4 -0.0228 0.0125
8 2 5 0.2956 0.0599
8 2 6 0.1518 -0.0677
8 2 7 1.1027 0.0208
8 2 8 -0.7306 -0.1507
8 3 0 -0.0169 0.0200
8 3 1 0.5130 -0.0848
8 3 2 -3.8469 -0.0578
8 3 3 1.8913 0.0334
8 3 4 -1.8528 -0.1149
8 3 5 -1.1984 -0.0365
8 3 6 -0.7933 -0.1485
8 3 7 -1.6927 -0.0194
8 3 8 -0.3490 -0.0138
8 4 0 0.7113 -0.1119
8 4 1 0.4516 0.1048
8 4 2 -3.0174 0.1257
8 4 3 1.4480 -0.0671
8 4 4 -0.8410 -0.1059
8 4 5 0.3473 -0.0854
8 4 6 0.4023 0.1424
8 4 7 -1.4696 0.1069
8 5 0 1.8369 -0.0067
8 5 1 -0.2240 -0.0072
8 5 2 0.0300 0.0601
8 5 3 -0.6080 -0.0219
8 5 4 1.8609 0.0683
8 5 5 0.2370 0.0056
8 5 6 0.3570 0.0800
8 5 7 0.1237 -0.0498
8 6 0 -0.9850 0.0015
8 6 1 1.8299 0.0147
8 6 2 1.7213 -0.0242
8 6 3 -2.4764 0.0516
8 6 4 2.6723 0.0469
8 6 5 -0.3688 -0.0290
8 6 6 -1.2538 -0.0913
8 6 7 1.1494 0.1519
8 7 0 -1.9089 -0.0702
8 7 1 -0.2774 -0.0257
8 7 2 1.6538 0.1018
8 7 3 -0.2421 0.0944
8 7 4 -1.1711 -0.0095
8 7 5 0.6743 0.0743
8 7 6 -0.3727 -0.0714
8 7 7 -0.4255 0.1669
8 8 0 1.2538 0.0585
8 8 1 -1.8051 -0.0756
8 8 2 -0.7549 -0.0514
8 8 3 2.7960 0.0779
8 8 4 -3.5029 0.0177
8 8 5 -0.5520 0.2043
8 8 6 1.5803 0.1696
8 8 7 -0.5060 -0.3948
8 9 0 1.2779 0.0269
8 9 1 1.1702 0.0849
8 9 2 -2.2410 -0.0718
8 9 3 0.2133 -0.1341
8 9 4 1.4986 -0.0330
8 9 5 -0.0175 -0.1082
8 9 6 0.7121 0.0665
8 10 0 -1.1791 0.0049
8 10 1 1.5659 -0.1476
8 10 2 0.5212 -0.0086
8 10 3 -2.9857 -0.0744
8 10 4 2.9756 -0.0361
8 10 5 1.6123 -0.2209
8 10 6 -1.1701 -0.3738
8 11 0 -1.0844 0.1103
8 11 1 -1.9372 -0.0017
8 11 2 2.0687 -0.1327
8 11 3 -0.3039 0.0908
8 11 4 -2.0804 -0.0091
8 11 5 -1.1605 -0.0416
8 11 6 -0.7250 0.1097
8 12 0 0.9217 -0.0813
8 12 1 -1.3012 0.1417
8 12 2 -0.6398 -0.0165
8 12 3 1.7270 0.0386
8 12 4 -2.1599 0.1032
8 12 5 -1.3802 0.0072
8 13 0 0.1250 -0.0480
8 13 1 1.6869 -0.1090
8 13 2 -0.9044 0.1031
8 13 3 0.1480 -0.0076
8 13 4 0.8042 0.1345
8 13 5 1.2816 0.3011
8 14 0 -0.6977 0.0272
8 14 1 0.1052 0.2875
8 14 2 0.8679 0.2484
8 14 3 0.4834 -0.1108
8 14 4 0.9116 -0.1978
8 15 0 2.0010 -0.0623
8 15 1 -0.5188 0.0394
8 15 2 -0.0858 0.0031
8 15 3 1.0258 -0.1080
8 15 4 1.1926 -0.1184
8 16 0 0.5361 0.1882
8 16 1 1.1980 -0.3604
8 16 2 -0.8144 -0.3881
8 16 3 -1.1119 0.1430
8 17 0 -2.7233 -0.1204
8 17 1 -0.3102 0.1533
8 17 2 0.0490 0.1772
8 18 0 -0.2828 -0.4240
8 18 1 -1.1949 -0.2001
9 0 0 1.4983 -0.0780
9 0 1 -7.3265 0.1613
9 0 2 1.6118 0.1935
9 0 3 1.2354 -0.0264
9 0 4 -0.3858 -0.1487
9 0 5 -0.1749 0.0973
9 0 6 -1.4146 0.2030
9 1 0 1.9673 0.0389
9 1 1 0.3217 0.0365
9 1 2 -6.2775 0.0570
9 1 3 -0.4450 0.0797
9 1 4 -1.5401 -0.0150
9 1 5 -1.5868 -0.0149
9 1 6 -0.6230 -0.0562
9 2 0 -1.3659 0.1253
9 2 1 5.3690 0.0519
9 2 2 -1.7466 -0.1067
9 2 3 -0.5284 0.0902
9 2 4 0.5056 0.1291
9 2 5 0.7164 -0.0640
9 2 6 0.9465 0.1024
9 3 0 0.1241 -0.0255
9 3 1 0.0608 -0.1099
9 3 2 3.1315 0.0488
9 3 3 0.1309 0.0784
9 3 4 0.8315 0.2730
9 3 5 0.8046 0.0951
9 3 6 0.5193 0.0351
9 4 0 0.8833 0.0218
9 4 1 -1.6246 -0.1015
9 4 2 1.7643 -0.0423
9 4 3 -0.6304 -0.0129
9 4 4 -0.0381 -0.0280
9 4 5 -1.4207 0.0460
9 4 6 -0.2162 -0.1966
9 5 0 -1.7489 -0.0724
9 5 1 -0.2675 0.1951
9 5 2 0.4702 -0.0612
9 5 3 -0.2361 -0.1314
9 5 4 -0.3292 -0.1986
9 5 5 0.3066 0.0316
9 6 0 -0.1333 -0.0651
9 6 1 -0.5330 -0.0915
9 6 2 -1.4558 -0.0560
9 6 3 0.9801 -0.0119
9 6 4 -1.3373 0.0139
9 6 5 1.2505 0.0152
9 7 0 1.6924 0.1236
9 7 1 0.3459 -0.0354
9 7 2 -2.5252 -0.1245
9 7 3 0.5166 -0.0913
9 7 4 0.8014 0.0057
9 7 5 -0.6409 -0.2424
9 8 0 -0.6227 -0.0581
9 8 1 0.6316 0.0500
9 8 2 1.2021 0.2207
9 8 3 -0.9248 -0.0341
9 8 4 2.0728 -0.0774
9 8 5 -0.5676 -0.1315
9 9 0 -1.4157 0.0438
9 9 1 -0.8576 -0.0845
9 9 2 3.0550 0.1361
9 9 3 -0.5678 0.2373
9 9 4 -2.1233 0.0461
9 10 0 1.2399 0.0123
9 10 1 -0.2514 0.3432
9 10 2 -0.9171 -0.0822
9 10 3 1.1446 -0.0091
9 10 4 -1.4754 0.1168
9 11 0 1.6187 -0.1849
9 11 1 1.5246 -0.0081
9 11 2 -2.4711 0.0621
9 11 3 0.6473 -0.1433
9 11 4 2.8325 0.0518
9 12 0 -1.2819 0.1870
9 12 1 -0.0389 -0.3457
9 12 2 0.3868 -0.0756
9 12 3 -0.7840 0.0354
9 13 0 -0.7609 -0.0197
9 13 1 -1.3279 -0.0728
9 13 2 1.1334 -0.0907
9 14 0 0.4287 -0.1981
9 14 1 0.5378 -0.1907
9 14 2 -0.0239 -0.0816
9 15 0 -1.2865 0.2059
9 15 1 0.2543 0.3829
10 0 0 -1.5734 -0.1769
10 0 1 5.5582 -0.2738
10 0 2 0.2751 0.0030
10 0 3 1.0091 -0.1590
10 0 4 1.3858 -0.1618
10 1 0 -1.1878 -0.2809
10 1 1 0.1330 0.1773
10 1 2 4.1986 0.0062
10 1 3 1.2925 -0.2284
10 1 4 0.7181 0.0155
10 2 0 1.5156 0.0239
10 2 1 -4.2596 0.0334
10 2 2 -0.1674 -0.0281
10 2 3 -0.8263 -0.0992
10 2 4 -0.9426 -0.1446
10 3 0 -0.0735 0.1866
10 3 1 0.2316 -0.0907
10 3 2 -2.2393 -0.0583
10 3 3 -0.8649 0.0776
10 3 4 0.5224 -0.2902
10 4 0 -1.1841 -0.1945
10 4 1 1.4463 -0.0287
10 4 2 -0.3089 0.2112
10 4 3 0.5557 0.1626
10 5 0 0.8613 0.1351
10 5 1 -0.5195 -0.0412
10 5 2 -0.2123 0.0627
10 5 3 0.5763 0.0486
10 6 0 0.4818 0.2704
10 6 1 0.7458 0.2152
10 6 2 1.1639 -0.0707
10 6 3 -0.5173 -0.0504
10 7 0 -0.5063 -0.1691
10 7 1 0.4121 -0.0625
10 7 2 1.5272 0.0305
10 7 3 -0.7023 0.1324
10 8 0 0.4726 -0.0457
10 8 1 -1.2233 -0.1037
10 8 2 -1.7556 -0.2633
10 9 0 0.1470 -0.1836
10 9 1 -0.0022 0.0370
10 9 2 -1.4592 -0.0253
10 10 0 -1.4419 -0.0534
10 10 1 0.5774 -0.3123
10 11 0 -0.3257 0.3282
10 11 1 -0.2558 0.2030
10 12 0 1.6999 -0.0393
11 0 0 0.2342 0.1341
11 0 1 -3.9934 0.0651
11 1 0 -0.0606 0.0418
11 1 1 -0.6556 -0.0534
11 2 0 -0.7609 0.0704
11 2 1 3.0954 0.1736
11 3 0 0.4419 0.0366
11 4 0 1.5417 0.0045
11 5 0 -0.5672 -0.4240
11 6 0 -1.5291 -0.1164
0 0 0 0.0 0.0
;
_shelx_fab_checksum              13265
_olex2_submission_special_instructions 'No special instructions were received'
loop_
_space_group_symop_operation_xyz
'x, y, z'
'-x, y+1/2, -z'
'-x, -y, -z'
'x, -y-1/2, z'
loop_
_atom_site_label
_atom_site_type_symbol
_atom_site_fract_x
_atom_site_fract_y
_atom_site_fract_z
_atom_site_U_iso_or_equiv
_atom_site_adp_type
_atom_site_occupancy
_atom_site_site_symmetry_order
_atom_site_calc_flag
_atom_site_refinement_flags_posn
_atom_site_refinement_flags_adp
_atom_site_refinement_flags_occupancy
_atom_site_disorder_assembly
_atom_site_disorder_group
Co1 Co 0.000000 0.500000 0.000000 0.00707(13) Uani 1 2 d S T P . .
Co2 Co 0.11224(4) 0.54709(2) 0.25739(3) 0.00881(11) Uani 1 1 d . . . . .
S1 S 0.10252(10) 0.750000 0.13198(7) 0.0112(2) Uani 1 2 d S T P . .
S2 S 0.58409(7) 0.53160(3) 0.20874(6) 0.01536(17) Uani 1 1 d . . . . .
O7 O 0.89077(19) 0.55841(9) 0.26135(15) 0.0140(4) Uani 1 1 d . . . . .
O6 O 0.94426(19) 0.50143(8) 0.14218(14) 0.0103(4) Uani 1 1 d . . . . .
O5 O 0.0632(2) 0.58947(8) 0.00675(15) 0.0128(4) Uani 1 1 d . . . . .
O3 O 0.20854(19) 0.46787(9) 0.07719(15) 0.0131(4) Uani 1 1 d . . . . .
O1 O 0.1988(2) 0.59441(9) 0.39633(16) 0.0215(4) Uani 1 1 d . U . . .
O2 O 0.29461(19) 0.52500(9) 0.22210(15) 0.0148(4) Uani 1 1 d . . . . .
O4 O 0.0960(2) 0.62444(8) 0.17226(15) 0.0152(4) Uani 1 1 d . . . . .
N1 N 0.1201(2) 0.46538(10) 0.34548(18) 0.0136(5) Uani 1 1 d . . . . .
N5 N 0.1313(3) 0.250000 0.4726(3) 0.0130(7) Uani 1 2 d S T P . .
C4 C 0.6525(3) 0.45022(13) 0.0922(2) 0.0143(6) Uani 1 1 d . . . . .
H4 H 0.705675 0.425663 0.057748 0.017 Uiso 1 1 calc R . . . .
C5 C 0.7080(3) 0.49765(13) 0.1570(2) 0.0127(6) Uani 1 1 d . . . . .
O8 O 0.2878(4) 0.250000 1.1383(3) 0.0501(11) Uani 1 2 d S T P . .
C7 C 0.0815(3) 0.63060(12) 0.0746(2) 0.0109(6) Uani 1 1 d . . . . .
C26 C 0.2156(4) 0.250000 0.8113(3) 0.0135(8) Uani 1 2 d S T P . .
C8 C 0.0862(3) 0.69430(12) 0.0384(2) 0.0133(6) Uani 1 1 d . . . . .
C23 C 0.1438(3) 0.30204(12) 0.5271(2) 0.0129(6) Uani 1 1 d . . . . .
C6 C 0.8538(3) 0.52115(12) 0.1872(2) 0.0101(6) Uani 1 1 d . . . . .
C1 C 0.3067(3) 0.49224(12) 0.1463(2) 0.0122(6) Uani 1 1 d . . . . .
C2 C 0.4546(3) 0.48268(13) 0.1404(2) 0.0126(6) Uani 1 1 d . . . . .
C25 C 0.1841(4) 0.250000 0.6943(3) 0.0119(8) Uani 1 2 d S T P . .
C27 C 0.2282(3) 0.30424(13) 0.8684(2) 0.0181(7) Uani 1 1 d . . . . .
H27 H 0.220085 0.341792 0.831803 0.022 Uiso 1 1 calc R . . . .
C3 C 0.5068(3) 0.44178(13) 0.0822(2) 0.0144(6) Uani 1 1 d . . . . .
H3 H 0.451107 0.411064 0.039779 0.017 Uiso 1 1 calc R . . . .
C20 C 0.1325(3) 0.35876(13) 0.4642(2) 0.0140(6) Uani 1 1 d . . . . .
C18 C 0.1278(3) 0.46676(13) 0.4480(2) 0.0182(7) Uani 1 1 d . . . . .
H18 H 0.129364 0.505245 0.480787 0.022 Uiso 1 1 calc R . . . .
C24 C 0.1697(3) 0.30366(13) 0.6367(2) 0.0150(6) Uani 1 1 d . . . . .
H24 H 0.177566 0.341614 0.672140 0.018 Uiso 1 1 calc R . . . .
C22 C 0.1157(4) 0.41047(14) 0.3016(2) 0.0247(7) Uani 1 1 d . . . . .
H22 H 0.108250 0.408111 0.228291 0.030 Uiso 1 1 calc R . . . .
C19 C 0.1337(3) 0.41565(13) 0.5089(2) 0.0202(7) Uani 1 1 d . . . . .
H19 H 0.138479 0.419393 0.581597 0.024 Uiso 1 1 calc R . . . .
C9 C 0.0691(3) 0.71782(13) -0.0602(2) 0.0180(6) Uani 1 1 d . . . . .
H9 H 0.058387 0.693795 -0.121768 0.022 Uiso 1 1 calc R . . . .
C28 C 0.2522(3) 0.30461(15) 0.9772(2) 0.0234(7) Uani 1 1 d . . . . .
H28 H 0.259667 0.342039 1.014170 0.028 Uiso 1 1 calc R . . B .
C21 C 0.1214(4) 0.35716(14) 0.3571(2) 0.0260(8) Uani 1 1 d . . . . .
H21 H 0.117734 0.319265 0.321990 0.031 Uiso 1 1 calc R . . . .
C29 C 0.2653(5) 0.250000 1.0318(3) 0.0246(10) Uani 1 2 d S T P B .
C13 C 0.3260(7) 0.5882(3) 0.4417(5) 0.0269(13) Uani 0.5 1 d . U . A -2
H13 H 0.389322 0.578344 0.401241 0.032 Uiso 0.5 1 calc R . . A -2
N2 N 0.2178(6) 0.68159(19) 0.4974(3) 0.0300(10) Uani 0.5 1 d D U . A -1
C10 C 0.1859(6) 0.6514(3) 0.4038(5) 0.0236(10) Uani 0.5 1 d D U . A -1
H10 H 0.152116 0.674255 0.340749 0.028 Uiso 0.5 1 calc R . . A -1
C12 C 0.2606(14) 0.6532(4) 0.5926(6) 0.071(3) Uani 0.5 1 d D U . A -1
H12A H 0.251842 0.609133 0.582157 0.107 Uiso 0.5 1 calc GR . . A -1
H12B H 0.201301 0.666343 0.637286 0.107 Uiso 0.5 1 calc GR . . A -1
H12C H 0.359401 0.663568 0.626738 0.107 Uiso 0.5 1 calc GR . . A -1
C11 C 0.2068(7) 0.7432(3) 0.4969(5) 0.0378(12) Uani 0.5 1 d D U . A -1
H11A H 0.301365 0.761120 0.520227 0.057 Uiso 0.5 1 calc GR . . A -1
H11B H 0.151288 0.755626 0.544751 0.057 Uiso 0.5 1 calc GR . . A -1
H11C H 0.159674 0.757090 0.425224 0.057 Uiso 0.5 1 calc GR . . A -1
C14 C 0.2864(8) 0.6091(3) 0.6135(5) 0.0322(15) Uani 0.5 1 d . U . A -2
H14A H 0.189253 0.615656 0.570180 0.048 Uiso 0.5 1 calc GR . . A -2
H14B H 0.321056 0.645932 0.654033 0.048 Uiso 0.5 1 calc GR . . A -2
H14C H 0.288152 0.575209 0.662098 0.048 Uiso 0.5 1 calc GR . . A -2
N3 N 0.3764(6) 0.5949(3) 0.5455(4) 0.0328(12) Uani 0.5 1 d . U . A -2
C15 C 0.5333(8) 0.5873(4) 0.6004(7) 0.0388(15) Uani 0.5 1 d . U . A -2
H15A H 0.549676 0.547354 0.634385 0.058 Uiso 0.5 1 calc GR . . A -2
H15B H 0.563870 0.619089 0.653735 0.058 Uiso 0.5 1 calc GR . . A -2
H15C H 0.587356 0.590488 0.548208 0.058 Uiso 0.5 1 calc GR . . A -2
C30 C 0.3210(9) 0.2941(4) 1.2003(5) 0.041(2) Uani 0.5 1 d . . . B -1
H30A H 0.407208 0.313027 1.191627 0.061 Uiso 0.5 1 calc GR . . B -1
H30B H 0.337610 0.279784 1.273086 0.061 Uiso 0.5 1 calc GR . . B -1
H30C H 0.244023 0.323850 1.184579 0.061 Uiso 0.5 1 calc GR . . B -1
N4 N 0.500000 0.500000 0.500000 0.100 Uiso 0.5 2 d DS T P C 3
C16 C 0.4756(15) 0.4460(5) 0.4570(11) 0.100 Uiso 0.5 1 d D . . C 3
C17 C 0.4579(16) 0.3834(7) 0.4215(13) 0.100 Uiso 0.5 1 d . . . C 3
H17A H 0.471213 0.356462 0.482637 0.150 Uiso 0.5 1 calc GR . . C 3
H17B H 0.527936 0.373676 0.383541 0.150 Uiso 0.5 1 calc GR . . C 3
H17C H 0.362599 0.377791 0.374401 0.150 Uiso 0.5 1 calc GR . . C 3
loop_
_atom_site_aniso_label
_atom_site_aniso_U_11
_atom_site_aniso_U_22
_atom_site_aniso_U_33
_atom_site_aniso_U_23
_atom_site_aniso_U_13
_atom_site_aniso_U_12
Co1 0.0083(3) 0.0049(3) 0.0089(3) -0.0011(2) 0.0038(2) -0.0002(2)
Co2 0.01021(19) 0.00754(19) 0.0095(2) 0.00024(15) 0.00412(15) -0.00016(14)
S1 0.0184(5) 0.0071(5) 0.0086(5) 0.000 0.0044(4) 0.000
S2 0.0099(3) 0.0208(4) 0.0168(4) -0.0069(3) 0.0061(3) -0.0013(3)
O7 0.0130(10) 0.0167(10) 0.0128(10) -0.0045(8) 0.0046(8) -0.0012(8)
O6 0.0106(9) 0.0117(10) 0.0094(10) 0.0002(8) 0.0042(8) 0.0008(8)
O5 0.0190(10) 0.0067(9) 0.0145(10) -0.0030(8) 0.0075(8) -0.0019(8)
O3 0.0083(9) 0.0141(10) 0.0168(11) 0.0000(8) 0.0034(8) 0.0000(8)
O1 0.0209(10) 0.0200(9) 0.0216(10) -0.0062(8) 0.0025(8) -0.0041(8)
O2 0.0103(10) 0.0194(11) 0.0155(11) -0.0040(9) 0.0049(8) 0.0002(8)
O4 0.0246(11) 0.0081(10) 0.0143(11) 0.0013(8) 0.0074(9) 0.0007(8)
N1 0.0133(12) 0.0127(12) 0.0143(13) 0.0013(10) 0.0026(10) 0.0006(10)
N5 0.0159(17) 0.0104(17) 0.0131(18) 0.000 0.0049(14) 0.000
C4 0.0149(14) 0.0154(15) 0.0147(15) 0.0010(12) 0.0076(12) 0.0035(12)
C5 0.0101(14) 0.0178(15) 0.0113(14) 0.0006(12) 0.0047(11) 0.0032(12)
O8 0.038(2) 0.099(4) 0.0117(18) 0.000 0.0036(16) 0.000
C7 0.0111(14) 0.0078(13) 0.0146(15) 0.0011(12) 0.0048(11) 0.0018(11)
C26 0.013(2) 0.017(2) 0.012(2) 0.000 0.0052(17) 0.000
C8 0.0179(15) 0.0087(14) 0.0141(15) -0.0032(11) 0.0057(12) -0.0007(11)
C23 0.0152(15) 0.0104(14) 0.0133(15) 0.0018(11) 0.0042(12) 0.0011(11)
C6 0.0106(13) 0.0105(13) 0.0092(14) 0.0034(11) 0.0028(11) 0.0022(11)
C1 0.0103(14) 0.0125(14) 0.0150(15) 0.0043(12) 0.0056(12) 0.0001(11)
C2 0.0105(14) 0.0165(15) 0.0111(14) 0.0002(12) 0.0034(11) -0.0006(11)
C25 0.0098(19) 0.014(2) 0.012(2) 0.000 0.0030(16) 0.000
C27 0.0231(17) 0.0153(16) 0.0159(16) -0.0009(12) 0.0053(13) -0.0044(13)
C3 0.0122(14) 0.0153(15) 0.0157(15) -0.0005(12) 0.0034(12) -0.0027(11)
C20 0.0164(15) 0.0119(14) 0.0129(15) 0.0005(12) 0.0029(12) -0.0012(12)
C18 0.0298(17) 0.0107(14) 0.0179(16) 0.0006(12) 0.0127(13) 0.0038(13)
C24 0.0211(16) 0.0086(14) 0.0155(15) -0.0012(12) 0.0051(12) 0.0000(12)
C22 0.044(2) 0.0163(16) 0.0114(15) 0.0016(13) 0.0034(14) -0.0040(14)
C19 0.0319(18) 0.0162(16) 0.0165(16) 0.0009(13) 0.0134(14) 0.0032(13)
C9 0.0283(17) 0.0132(15) 0.0129(15) -0.0024(12) 0.0066(13) 0.0008(13)
C28 0.0286(18) 0.0271(18) 0.0155(16) -0.0083(14) 0.0079(14) -0.0091(14)
C21 0.050(2) 0.0107(15) 0.0139(16) -0.0013(13) 0.0028(15) -0.0073(15)
C29 0.024(2) 0.037(3) 0.012(2) 0.000 0.0044(19) 0.000
C13 0.0220(16) 0.035(4) 0.0232(19) 0.002(2) 0.0049(15) -0.004(2)
N2 0.030(3) 0.0224(10) 0.0362(12) -0.0108(9) 0.0070(14) -0.0003(13)
C10 0.018(3) 0.0199(9) 0.0346(12) -0.0080(8) 0.0102(14) -0.0061(9)
C12 0.138(9) 0.0293(16) 0.0354(12) -0.0102(12) 0.0062(17) 0.013(3)
C11 0.044(3) 0.0223(10) 0.0451(17) -0.0119(10) 0.009(2) 0.0002(14)
C14 0.039(3) 0.038(4) 0.016(3) 0.005(3) 0.002(3) 0.000(3)
N3 0.031(2) 0.041(3) 0.0228(18) 0.002(2) 0.0012(14) -0.007(2)
C15 0.0334(18) 0.040(2) 0.039(2) 0.0047(18) 0.0032(14) -0.0014(17)
C30 0.058(5) 0.050(5) 0.015(4) -0.011(3) 0.010(3) -0.011(4)
loop_
_atom_type_symbol
_atom_type_description
_atom_type_scat_dispersion_real
_atom_type_scat_dispersion_imag
_atom_type_scat_source
C C 0.0033 0.0016 'International Tables Vol C Tables 4.2.6.8 and 6.1.1.4'
H H 0.0000 0.0000 'International Tables Vol C Tables 4.2.6.8 and 6.1.1.4'
Co Co 0.3494 0.9721 'International Tables Vol C Tables 4.2.6.8 and 6.1.1.4'
N N 0.0061 0.0033 'International Tables Vol C Tables 4.2.6.8 and 6.1.1.4'
O O 0.0106 0.0060 'International Tables Vol C Tables 4.2.6.8 and 6.1.1.4'
S S 0.1246 0.1234 'International Tables Vol C Tables 4.2.6.8 and 6.1.1.4'
loop_
_geom_angle_atom_site_label_1
_geom_angle_atom_site_label_2
_geom_angle_atom_site_label_3
_geom_angle
_geom_angle_site_symmetry_1
_geom_angle_site_symmetry_3
_geom_angle_publ_flag
O6 Co1 O6 180.00(10) 3_665 1_455 ?
O6 Co1 O3 88.17(7) 1_455 3_565 ?
O6 Co1 O3 91.82(7) 1_455 . ?
O6 Co1 O3 91.83(7) 3_665 3_565 ?
O6 Co1 O3 88.18(7) 3_665 . ?
O5 Co1 O6 95.57(7) 3_565 3_665 ?
O5 Co1 O6 84.43(7) . 3_665 ?
O5 Co1 O6 95.57(7) . 1_455 ?
O5 Co1 O6 84.43(7) 3_565 1_455 ?
O5 Co1 O5 180.0 3_565 . ?
O5 Co1 O3 86.72(7) 3_565 . ?
O5 Co1 O3 93.28(7) 3_565 3_565 ?
O5 Co1 O3 93.28(7) . . ?
O5 Co1 O3 86.73(7) . 3_565 ?
O3 Co1 O3 180.0 3_565 . ?
O6 Co2 O7 59.99(7) 1_455 1_455 ?
O1 Co2 O7 95.22(8) . 1_455 ?
O1 Co2 O6 154.54(8) . 1_455 ?
O1 Co2 N1 89.92(9) . . ?
O2 Co2 O7 166.27(8) . 1_455 ?
O2 Co2 O6 106.30(7) . 1_455 ?
O2 Co2 O1 98.51(8) . . ?
O2 Co2 N1 91.17(9) . . ?
O4 Co2 O7 89.41(8) . 1_455 ?
O4 Co2 O6 94.21(8) . 1_455 ?
O4 Co2 O1 90.99(8) . . ?
O4 Co2 O2 90.86(8) . . ?
O4 Co2 N1 177.63(9) . . ?
N1 Co2 O7 88.33(8) . 1_455 ?
N1 Co2 O6 84.04(8) . 1_455 ?
C8 S1 C8 91.27(19) . 4_575 ?
C5 S2 C2 91.34(13) . . ?
C6 O7 Co2 89.14(16) . 1_655 ?
Co1 O6 Co2 107.36(8) 1_655 1_655 ?
C6 O6 Co1 144.17(17) . 1_655 ?
C6 O6 Co2 90.66(16) . 1_655 ?
C7 O5 Co1 134.94(18) . . ?
C1 O3 Co1 130.54(18) . . ?
C13 O1 Co2 119.1(3) . . ?
C10 O1 Co2 122.7(3) . . ?
C1 O2 Co2 126.72(18) . . ?
C7 O4 Co2 128.73(18) . . ?
C18 N1 Co2 121.10(19) . . ?
C18 N1 C22 116.5(2) . . ?
C22 N1 Co2 122.42(19) . . ?
C23 N5 C23 117.6(3) . 4_565 ?
C5 C4 C3 112.3(3) . . ?
C4 C5 S2 112.0(2) . . ?
C4 C5 C6 129.1(3) . . ?
C6 C5 S2 118.9(2) . . ?
C30 O8 C29 127.8(4) . . ?
O5 C7 O4 127.2(2) . . ?
O5 C7 C8 117.8(2) . . ?
O4 C7 C8 115.1(2) . . ?
C27 C26 C25 121.39(18) . . ?
C27 C26 C25 121.39(18) 4_565 . ?
C27 C26 C27 117.2(4) 4_565 . ?
C7 C8 S1 116.7(2) . . ?
C9 C8 S1 112.1(2) . . ?
C9 C8 C7 131.0(3) . . ?
N5 C23 C20 116.0(2) . . ?
N5 C23 C24 122.7(3) . . ?
C24 C23 C20 121.3(3) . . ?
O7 C6 O6 119.8(2) . . ?
O7 C6 C5 119.7(2) . . ?
O6 C6 C5 120.5(2) . . ?
O3 C1 O2 126.8(2) . . ?
O3 C1 C2 118.0(2) . . ?
O2 C1 C2 115.2(2) . . ?
C1 C2 S2 118.4(2) . . ?
C3 C2 S2 111.5(2) . . ?
C3 C2 C1 129.9(3) . . ?
C24 C25 C26 121.79(18) . . ?
C24 C25 C26 121.79(18) 4_565 . ?
C24 C25 C24 116.4(4) 4_565 . ?
C28 C27 C26 121.8(3) . . ?
C2 C3 C4 112.8(3) . . ?
C19 C20 C23 122.2(3) . . ?
C19 C20 C21 116.5(3) . . ?
C21 C20 C23 121.3(3) . . ?
N1 C18 C19 123.7(3) . . ?
C25 C24 C23 120.3(3) . . ?
N1 C22 C21 123.4(3) . . ?
C18 C19 C20 119.9(3) . . ?
C8 C9 C9 112.29(17) . 4_575 ?
C27 C28 C29 119.7(3) . . ?
C22 C21 C20 120.0(3) . . ?
O8 C29 C28 120.0(2) . 4_565 ?
O8 C29 C28 120.0(2) . . ?
C28 C29 C28 119.9(4) . 4_565 ?
O1 C13 N3 121.9(6) . . ?
C10 N2 C12 123.2(6) . . ?
C10 N2 C11 118.9(5) . . ?
C11 N2 C12 117.9(5) . . ?
O1 C10 N2 123.4(6) . . ?
C13 N3 C14 122.6(6) . . ?
C13 N3 C15 121.3(6) . . ?
C14 N3 C15 116.1(6) . . ?
C16 N4 C16 180.0(4) 3_666 . ?
N4 C16 C17 173.2(15) . . ?
loop_
_geom_bond_atom_site_label_1
_geom_bond_atom_site_label_2
_geom_bond_distance
_geom_bond_site_symmetry_2
_geom_bond_publ_flag
Co1 O6 2.0922(18) 1_455 ?
Co1 O6 2.0922(18) 3_665 ?
Co1 O5 2.0607(18) 3_565 ?
Co1 O5 2.0607(18) . ?
Co1 O3 2.1447(18) . ?
Co1 O3 2.1447(18) 3_565 ?
Co2 O7 2.2079(19) 1_455 ?
Co2 O6 2.1613(18) 1_455 ?
Co2 O1 2.076(2) . ?
Co2 O2 2.0322(19) . ?
Co2 O4 2.0218(19) . ?
Co2 N1 2.132(2) . ?
S1 C8 1.716(3) . ?
S1 C8 1.716(3) 4_575 ?
S2 C5 1.722(3) . ?
S2 C2 1.722(3) . ?
O7 C6 1.251(3) . ?
O6 C6 1.274(3) . ?
O5 C7 1.250(3) . ?
O3 C1 1.252(3) . ?
O1 C13 1.238(7) . ?
O1 C10 1.269(6) . ?
O2 C1 1.264(3) . ?
O4 C7 1.264(3) . ?
N1 C18 1.332(4) . ?
N1 C22 1.336(4) . ?
N5 C23 1.340(3) . ?
N5 C23 1.340(3) 4_565 ?
C4 C5 1.365(4) . ?
C4 C3 1.416(4) . ?
C5 C6 1.473(4) . ?
O8 C29 1.360(6) . ?
O8 C30 1.252(7) . ?
C7 C8 1.487(4) . ?
C26 C25 1.487(6) . ?
C26 C27 1.400(4) . ?
C26 C27 1.400(4) 4_565 ?
C8 C9 1.366(4) . ?
C23 C20 1.487(4) . ?
C23 C24 1.397(4) . ?
C1 C2 1.494(4) . ?
C2 C3 1.370(4) . ?
C25 C24 1.390(3) . ?
C25 C24 1.390(3) 4_565 ?
C27 C28 1.388(4) . ?
C20 C19 1.383(4) . ?
C20 C21 1.386(4) . ?
C18 C19 1.375(4) . ?
C22 C21 1.376(4) . ?
C9 C9 1.417(6) 4_575 ?
C28 C29 1.389(4) . ?
C13 N3 1.329(8) . ?
N2 C10 1.360(5) . ?
N2 C12 1.360(5) . ?
N2 C11 1.360(5) . ?
C14 N3 1.457(10) . ?
N3 C15 1.523(10) . ?
N4 C16 1.310(9) 3_666 ?
N4 C16 1.310(9) . ?
C16 C17 1.452(16) . ?
