#------------------------------------------------------------------------------
#$Date: 2020-04-05 13:49:24 +0300 (Sun, 05 Apr 2020) $
#$Revision: 250287 $
#$URL: file:///home/coder/svn-repositories/cod/cif/7/70/36/7703626.cif $
#------------------------------------------------------------------------------
#
# This file is available in the Crystallography Open Database (COD),
# http://www.crystallography.net/
#
# All data on this site have been placed in the public domain by the
# contributors.
#
data_7703626
loop_
_publ_author_name
'Kharwar, Ajit Kumar'
'Konar, Sanjit'
_publ_section_title
;
 Exchange coupled Co(ii) based layered and porous metal-organic
 frameworks: structural diversity, gas adsorption, and magnetic
 properties.
;
_journal_issue                   13
_journal_name_full
'Dalton transactions (Cambridge, England : 2003)'
_journal_page_first              4012
_journal_page_last               4021
_journal_paper_doi               10.1039/d0dt00211a
_journal_volume                  49
_journal_year                    2020
_chemical_formula_moiety         'C42 H43 Co2 N3 O9, 4[CH3CN]'
_chemical_formula_sum            'C50 H55 Co2 N7 O9'
_chemical_formula_weight         1015.87
_space_group_crystal_system      triclinic
_space_group_IT_number           2
_space_group_name_Hall           '-P 1'
_space_group_name_H-M_alt        'P -1'
_atom_sites_solution_hydrogens   mixed
_audit_creation_date             2020-01-01
_audit_creation_method
;
Olex2 1.3-alpha
(compiled Nov 21 2019 18:26:39 for OlexSys, GUI svn.r6003)
;
_audit_update_record
;
2020-01-02 deposited with the CCDC.	2020-02-28 downloaded from the CCDC.
;
_cell_angle_alpha                85.585(5)
_cell_angle_beta                 65.242(3)
_cell_angle_gamma                88.095(3)
_cell_formula_units_Z            2
_cell_length_a                   12.6375(16)
_cell_length_b                   13.5987(17)
_cell_length_c                   15.052(3)
_cell_measurement_reflns_used    9920
_cell_measurement_temperature    100(2)
_cell_measurement_theta_max      24.69
_cell_measurement_theta_min      2.26
_cell_volume                     2342.0(6)
_computing_cell_refinement       'SAINT v8.37A (Bruker, 2015)'
_computing_data_reduction        'SAINT v8.37A (Bruker, 2015)'
_computing_molecular_graphics    'Olex2 1.3-alpha (Dolomanov et al., 2009)'
_computing_publication_material  'Olex2 1.3-alpha (Dolomanov et al., 2009)'
_computing_structure_refinement  'SHELXL 2018/3 (Sheldrick, 2015)'
_computing_structure_solution
'olex2.solve 1.3-alpha (Bourhis et al., 2015)'
_diffrn_ambient_temperature      100(2)
_diffrn_measured_fraction_theta_full 0.982
_diffrn_measured_fraction_theta_max 0.982
_diffrn_measurement_device_type  'Bruker APEX-II CCD'
_diffrn_measurement_method       '\f and \w scans'
_diffrn_radiation_type           MoK\a
_diffrn_radiation_wavelength     0.71073
_diffrn_reflns_av_R_equivalents  0.1196
_diffrn_reflns_av_unetI/netI     0.1212
_diffrn_reflns_Laue_measured_fraction_full 0.982
_diffrn_reflns_Laue_measured_fraction_max 0.982
_diffrn_reflns_limit_h_max       14
_diffrn_reflns_limit_h_min       -14
_diffrn_reflns_limit_k_max       15
_diffrn_reflns_limit_k_min       -15
_diffrn_reflns_limit_l_max       16
_diffrn_reflns_limit_l_min       -17
_diffrn_reflns_number            30870
_diffrn_reflns_point_group_measured_fraction_full 0.982
_diffrn_reflns_point_group_measured_fraction_max 0.982
_diffrn_reflns_theta_full        24.499
_diffrn_reflns_theta_max         24.499
_diffrn_reflns_theta_min         2.191
_exptl_absorpt_coefficient_mu    0.774
_exptl_absorpt_correction_T_max  0.7451
_exptl_absorpt_correction_T_min  0.6609
_exptl_absorpt_correction_type   multi-scan
_exptl_crystal_colour            brown
_exptl_crystal_density_diffrn    1.441
_exptl_crystal_description       block
_exptl_crystal_F_000             1060
_exptl_crystal_size_max          0.81
_exptl_crystal_size_mid          0.62
_exptl_crystal_size_min          0.51
_refine_diff_density_max         0.873
_refine_diff_density_min         -1.310
_refine_diff_density_rms         0.129
_refine_ls_extinction_method     none
_refine_ls_goodness_of_fit_ref   1.028
_refine_ls_hydrogen_treatment    constr
_refine_ls_matrix_type           full
_refine_ls_number_parameters     717
_refine_ls_number_reflns         7659
_refine_ls_number_restraints     730
_refine_ls_restrained_S_all      0.991
_refine_ls_R_factor_all          0.1644
_refine_ls_R_factor_gt           0.1141
_refine_ls_shift/su_max          0.001
_refine_ls_shift/su_mean         0.000
_refine_ls_structure_factor_coef Fsqd
_refine_ls_weighting_details
'w=1/[\s^2^(Fo^2^)+(0.0949P)^2^+28.4486P] where P=(Fo^2^+2Fc^2^)/3'
_refine_ls_weighting_scheme      calc
_refine_ls_wR_factor_gt          0.2577
_refine_ls_wR_factor_ref         0.2759
_reflns_Friedel_coverage         0.000
_reflns_number_gt                4930
_reflns_number_total             7659
_reflns_threshold_expression     'I > 2\s(I)'
_cod_data_source_file            d0dt00211a2.cif
_cod_data_source_block           3
_cod_depositor_comments
'Adding full bibliography for 7703626--7703629.cif.'
_cod_original_cell_volume        2342.1(6)
_cod_database_code               7703626
_shelx_shelxl_version_number     2018/3
_shelx_space_group_comment
;
The symmetry employed for this shelxl refinement is uniquely defined
by the following loop, which should always be used as a source of
symmetry information in preference to the above space-group names.
They are only intended as comments.
;
_olex2_refinement_description
;
1. Fixed Uiso
 At 1.2 times of:
  All C(H) groups, All C(H,H) groups
 At 1.5 times of:
  All C(H,H,H) groups
2. Shared sites
{C3, C21B}
{C6, C23B}
3. Uiso/Uaniso restraints and constraints
Uanis(C3) = Uanis(C21B)
Uanis(C6) = Uanis(C23B)
4. Rigid body (RIGU) restrains
 All non-hydrogen atoms
 with sigma for 1-2 distances of 0.0001 and sigma for 1-3 distances of 0.0001
5. Others
 Fixed Sof: C3(0.6) C13A(0.7) C6(0.6) C11A(0.7) C12A(0.7) C19(0.6) H19(0.6)
 C20(0.6) H20(0.6) C122(0.7) H12A(0.7) H12B(0.7) H12C(0.7) C23(0.6) H23(0.6)
 C22(0.6) H22(0.6) C14A(0.7) H14A(0.7) H14B(0.7) C4(0.6) H4A(0.6) H4B(0.6)
 C5(0.6) H5A(0.6) H5B(0.6) C15A(0.7) H15A(0.7) H15B(0.7) C121(0.7) H12D(0.7)
 H12E(0.7) H12F(0.7) C7(0.6) C16(0.4) H16A(0.4) H16B(0.4) H16C(0.4) C17(0.6)
 H17A(0.6) H17B(0.6) H17C(0.6) C1B(0.3) C3B(0.3) C2B(0.3) C8(0.3) H8A(0.3)
 H8B(0.3) H8C(0.3) C5B(0.3) H5BA(0.3) H5BB(0.3) C4B(0.3) H4BA(0.3) H4BB(0.3)
 C13(0.3) H13A(0.3) H13B(0.3) H13C(0.3) C1A3(0.35) H1AA(0.35) H1AB(0.35)
 H1AC(0.35) C1A1(0.35) H1AD(0.35) H1AE(0.35) H1AF(0.35) C21B(0.4) C23B(0.4)
 C25B(0.4) H25A(0.4) H25B(0.4) C24B(0.4) H24A(0.4) H24B(0.4) C22B(0.4)
 C16A(0.4) H16D(0.4) H16E(0.4) H16F(0.4) C17A(0.6) H17D(0.6) H17E(0.6)
 H17F(0.6) C20A(0.4) H20A(0.4) C23A(0.4) H23A(0.4) C22A(0.4) H22A(0.4)
 C19A(0.4) H19A(0.4) C41(0.3) H41A(0.3) H41B(0.3) H41C(0.3) C44(0.3) H44A(0.3)
 H44B(0.3) H44C(0.3) C46(0.2) H46A(0.2) H46B(0.2) H46C(0.2) C45(0.2) H45A(0.2)
 H45B(0.2) H45C(0.2) C13B(0.15) H13D(0.15) H13E(0.15) H13F(0.15) C11B(0.15)
 H11A(0.15) H11B(0.15) H11C(0.15)
6.a Riding coordinates:
 C1A3(H1AA,H1AB,H1AC), C13B(H13D,H13E,H13F), C11B(H11A,H11B,H11C)
6.b Secondary CH2 refined with riding coordinates:
 C14A(H14A,H14B), C4(H4A,H4B), C5(H5A,H5B), C15A(H15A,H15B), C5B(H5BA,H5BB),
 C4B(H4BA,H4BB), C25B(H25A,H25B), C24B(H24A,H24B)
6.c Aromatic/amide H refined with riding coordinates:
 C25(H25), C27(H27), C31(H31), C30(H30), C32(H32), C39(H39), C33(H33),
 C19(H19), C20(H20), C35(H35), C23(H23), C36(H36), C22(H22), C38(H38),
 C20A(H20A), C23A(H23A), C22A(H22A), C19A(H19A)
6.d Idealised Me refined as rotating group:
 C122(H12A,H12B,H12C), C40(H40A,H40B,H40C), C121(H12D,H12E,H12F), C16(H16A,
 H16B,H16C), C17(H17A,H17B,H17C), C8(H8A,H8B,H8C), C13(H13A,H13B,H13C),
 C1A1(H1AD,H1AE,H1AF), C16A(H16D,H16E,H16F), C17A(H17D,H17E,H17F), C41(H41A,
 H41B,H41C), C44(H44A,H44B,H44C), C46(H46A,H46B,H46C), C45(H45A,H45B,H45C)
;
_smtbx_masks_special_details
;
A solvent mask was calculated and 184 electrons were
found in a volume of 737\%A^3 in 1 void per unit cell.
This is consistent with the presence of 4[CH3CN] per Formula Unit 
which account for 176 electrons per unit cell.
;
_smtbx_masks_void_probe_radius   1.2
_smtbx_masks_void_truncation_radius 1.2
_shelx_res_file
;
TITL
    ajtr1_a.res
    created by SHELXL-2018/3 at 22:30:40 on 01-Jan-2020
CELL 0.71073 12.6375 13.5987 15.0525 85.585 65.242 88.095
ZERR 2 0.0016 0.0017 0.0025 0.005 0.003 0.003
LATT 1
SFAC C Co H N O
UNIT 100 4 110 14 18
RIGU 0.0001 0.0001
EADP C3 C21B
EADP C6 C23B
EXYZ C3 C21B
EXYZ C6 C23B

L.S. 4
PLAN  4 0 0
TEMP -173(2)
CONF
FREE H45a H46b
FREE H13e H11a
FREE C13B H8a
FREE H13f H11a
FREE H46c H45a
FREE C8 C13B
FREE C8 H13e
FREE H8a H13e
FREE C5B C1A3
FREE H5Bb H1Ac
BOND $H
MORE -1
ABIN
fmap 2 1 53
acta
OMIT 0 180
OMIT 0 -2 2
REM <olex2.extras>
REM <HklSrc "%.\\AJTR1_a.hkl">
REM </olex2.extras>

WGHT    0.094900   28.448601
FVAR       0.46832
CO1   2    1.478727    0.489814    0.097154    11.00000    0.02912    0.04099 =
         0.02058   -0.01134   -0.01430   -0.00486
CO2   2    0.932048    0.007599    0.101841    11.00000    0.01754    0.04136 =
         0.03836   -0.01927   -0.01392    0.00637
O2    5    1.347582    0.542260   -0.030570    11.00000    0.03011    0.03412 =
         0.04532   -0.01116   -0.01997    0.00127
O1    5    1.312875    0.530801    0.126899    11.00000    0.02724    0.04934 =
         0.04492   -0.00831   -0.01876   -0.00247
O8    5    1.183582    0.035810   -0.050530    11.00000    0.02684    0.04567 =
         0.05321   -0.01647   -0.02324    0.00211
N1    4    0.510143    0.466512    0.778728    11.00000    0.02393    0.03038 =
         0.02252   -0.00680   -0.00664   -0.00031
O6    5    1.438679    0.344447    0.126963    11.00000    0.03154    0.04602 =
         0.05046   -0.01325   -0.02242   -0.00287
O7    5    1.077320    0.052677    0.108578    11.00000    0.02645    0.04879 =
         0.05303   -0.01591   -0.02288    0.00174
O3    5    1.041927    0.868442    0.006083    11.00000    0.03438    0.04877 =
         0.05111   -0.01061   -0.01672    0.00749
O4    5    0.936022    0.868325    0.164247    11.00000    0.03178    0.04596 =
         0.05079   -0.01303   -0.01801    0.00281
N4    4    0.804528    0.090673    0.207758    11.00000    0.02851    0.03972 =
         0.03420   -0.01826   -0.01654    0.00499
O5    5    1.473838    0.366695   -0.030463    11.00000    0.04199    0.04776 =
         0.05170   -0.01279   -0.02587   -0.00417
N3    4    0.548781    0.306028    0.475084    11.00000    0.02906    0.03782 =
         0.02851   -0.01393   -0.01284    0.00433
C29   1    0.477671    0.395717    0.622029    11.00000    0.02691    0.03721 =
         0.02717   -0.01278   -0.01065    0.00372
C24   1    0.531417    0.270730    0.400819    11.00000    0.02917    0.03294 =
         0.02681   -0.01075   -0.01209    0.00221
C1    1    1.282224    0.549291    0.057872    11.00000    0.02967    0.04552 =
         0.04548   -0.01236   -0.02002    0.00294
C18   1    1.172938    0.056883    0.033561    11.00000    0.02647    0.04491 =
         0.05294   -0.01603   -0.02294    0.00176
C25   1    0.431068    0.286622    0.387281    11.00000    0.03243    0.04797 =
         0.03346   -0.02113   -0.01676    0.00940
AFIX  43
H25   3    0.424982    0.262160    0.332165    11.00000   -1.20000
AFIX   0
PART 1
C3    1    1.412975    0.206814    0.049114    10.60000    0.02708    0.04569 =
         0.05166   -0.01463   -0.02256    0.00030
PART 0
C28   1    0.458188    0.357715    0.538899    11.00000    0.03005    0.04091 =
         0.02967   -0.01545   -0.01329    0.00591
C27   1    0.355841    0.374108    0.530405    11.00000    0.02961    0.03709 =
         0.02901   -0.01413   -0.01277    0.00479
AFIX  43
H27   3    0.295788    0.410496    0.577556    11.00000   -1.20000
AFIX   0
PART 1
C13A  1    1.015384    0.713373    0.095916    10.70000    0.02980    0.04594 =
         0.04945   -0.01305   -0.02105    0.00324
PART 0
C10   1    1.442639    0.312645    0.049104    11.00000    0.02643    0.04561 =
         0.05062   -0.01430   -0.02185    0.00032
C21   1    0.628343    0.209054    0.334446    11.00000    0.02874    0.03547 =
         0.02879   -0.01324   -0.01334    0.00279
C26   1    0.338016    0.338369    0.453758    11.00000    0.03576    0.06664 =
         0.04119   -0.03271   -0.02127    0.01721
PART 1
C6    1    1.282984    0.083971    0.041722    10.60000    0.02676    0.04535 =
         0.05294   -0.01525   -0.02316    0.00112
PART 0
C31   1    0.428960    0.502465    0.751906    11.00000    0.04408    0.05421 =
         0.04006   -0.02775   -0.02550    0.02181
AFIX  43
H31   3    0.382099    0.555138    0.786157    11.00000   -1.20000
AFIX   0
C2    1    0.997665    0.824391    0.087777    11.00000    0.02868    0.04593 =
         0.04991   -0.01261   -0.01930    0.00323
PART 1
C11A  1    1.158727    0.579741    0.076385    10.70000    0.02976    0.04609 =
         0.04829   -0.01299   -0.02084    0.00321
PART 0
C30   1    0.408215    0.467773    0.676688    11.00000    0.04979    0.06442 =
         0.04664   -0.03565   -0.03154    0.02868
AFIX  43
H30   3    0.345624    0.494039    0.662973    11.00000   -1.20000
AFIX   0
C32   1    0.577346    0.394682    0.726356    11.00000    0.06308    0.07787 =
         0.06082   -0.04951   -0.04563    0.04290
AFIX  43
H32   3    0.637862    0.368348    0.742888    11.00000   -1.20000
AFIX   0
O9    5   -0.076528    0.396050    0.404012    11.00000    0.03942    0.22680 =
         0.05056   -0.02243   -0.02573    0.02800
C34   1    0.227909    0.354320    0.442641    11.00000    0.03634    0.06958 =
         0.04313   -0.03354   -0.02242    0.01790
PART 1
C12A  1    1.127676    0.686106    0.117350    10.70000    0.02987    0.04639 =
         0.04919   -0.01353   -0.02107    0.00346
PART 0
C39   1    0.227762    0.373553    0.350098    11.00000    0.03818    0.09838 =
         0.04356   -0.03285   -0.02307    0.02293
AFIX  43
H39   3    0.299672    0.375954    0.293461    11.00000   -1.20000
AFIX   0
C33   1    0.562886    0.357702    0.650540    11.00000    0.05572    0.06968 =
         0.05348   -0.04155   -0.03807    0.03422
AFIX  43
H33   3    0.611489    0.305521    0.616957    11.00000   -1.20000
AFIX   0
PART 1
C19   1    0.803551    0.119520    0.290236    10.60000    0.02950    0.03645 =
         0.03353   -0.01658   -0.01648    0.00363
AFIX  43
H19   3    0.867622    0.099918    0.304950    10.60000   -1.20000
AFIX   0
C20   1    0.720347    0.173869    0.354827    10.60000    0.02990    0.03341 =
         0.03145   -0.01412   -0.01537    0.00268
AFIX  43
H20   3    0.724570    0.188078    0.414071    10.60000   -1.20000
AFIX   0
PART 0
C35   1    0.123449    0.356994    0.522054    11.00000    0.03701    0.17468 =
         0.04385   -0.03172   -0.02211    0.02848
AFIX  43
H35   3    0.121361    0.350389    0.586059    11.00000   -1.20000
AFIX   0
PART 1
C122  1    1.225497    0.752803    0.066589    10.70000    0.02948    0.04552 =
         0.05230   -0.01294   -0.02147    0.00400
AFIX 137
H12A  3    1.206137    0.817304    0.094353    10.70000   -1.50000
H12B  3    1.242137    0.760243   -0.003283    10.70000   -1.50000
H12C  3    1.294193    0.725845    0.074461    10.70000   -1.50000
AFIX   0
PART 0
C37   1    0.021447    0.379948    0.420865    11.00000    0.03830    0.16267 =
         0.04736   -0.02596   -0.02434    0.02331
PART 1
C23   1    0.720433    0.130532    0.184113    10.60000    0.02445    0.03677 =
         0.02979   -0.01435   -0.01224    0.00134
AFIX  43
H23   3    0.721306    0.116906    0.122849    10.60000   -1.20000
AFIX   0
PART 0
C36   1    0.018084    0.369427    0.510891    11.00000    0.03736    0.19037 =
         0.04675   -0.02633   -0.02323    0.02677
AFIX  43
H36   3   -0.054333    0.370284    0.566862    11.00000   -1.20000
AFIX   0
PART 1
C22   1    0.632544    0.190245    0.243462    10.60000    0.02812    0.04124 =
         0.02952   -0.01561   -0.01363    0.00535
AFIX  43
H22   3    0.576083    0.217913    0.222511    10.60000   -1.20000
AFIX   0
PART 0
C38   1    0.127002    0.388814    0.339752    11.00000    0.03894    0.11706 =
         0.04615   -0.03055   -0.02433    0.02370
AFIX  43
H38   3    0.128873    0.405632    0.276675    11.00000   -1.20000
AFIX   0
PART 1
C14A  1    1.037549    0.661975    0.003904    10.70000    0.03120    0.04739 =
         0.05038   -0.01409   -0.02244    0.00476
AFIX  23
H14A  3    0.964535    0.631177    0.010409    10.70000   -1.20000
H14B  3    1.062812    0.710943   -0.053187    10.70000   -1.20000
AFIX   0
C4    1    1.478439    0.163059   -0.052956    10.60000    0.02702    0.04657 =
         0.05203   -0.01532   -0.02289    0.00062
AFIX  23
H4A   3    1.495153    0.215110   -0.106768    10.60000   -1.20000
H4B   3    1.552742    0.131927   -0.058643    10.60000   -1.20000
AFIX   0
C5    1    1.395002    0.086587   -0.056168    10.60000    0.02670    0.04601 =
         0.05289   -0.01549   -0.02320    0.00119
AFIX  23
H5A   3    1.432614    0.020840   -0.065028    10.60000   -1.20000
H5B   3    1.374492    0.103925   -0.112113    10.60000   -1.20000
AFIX   0
C15A  1    1.129257    0.584789   -0.012618    10.70000    0.03049    0.04679 =
         0.04891   -0.01336   -0.02162    0.00411
AFIX  23
H15A  3    1.199337    0.602414   -0.073371    10.70000   -1.20000
H15B  3    1.100091    0.520216   -0.018975    10.70000   -1.20000
AFIX   0
PART 0
C40   1   -0.176147    0.391172    0.477273    11.00000    0.03898    0.28950 =
         0.05199   -0.01893   -0.02548    0.02851
AFIX 137
H40A  3   -0.237265    0.386206    0.453863    11.00000   -1.50000
H40B  3   -0.188740    0.450636    0.513327    11.00000   -1.50000
H40C  3   -0.178742    0.332937    0.520747    11.00000   -1.50000
AFIX   0
PART 1
C121  1    1.094871    0.679637    0.226035    10.70000    0.03153    0.04839 =
         0.04929   -0.01449   -0.02152    0.00585
AFIX 137
H12D  3    1.162319    0.657329    0.238413    10.70000   -1.50000
H12E  3    1.030773    0.632619    0.259090    10.70000   -1.50000
H12F  3    1.070174    0.744751    0.251325    10.70000   -1.50000
AFIX   0
C7    1    1.281998    0.189019    0.075046    10.60000    0.02696    0.04535 =
         0.05278   -0.01521   -0.02267    0.00065
PART 0
PART 2
C16   1    1.207002    0.262069    0.072244    10.40000    0.02718    0.04505 =
         0.05201   -0.01493   -0.02243    0.00073
AFIX 137
H16A  3    1.190573    0.255670    0.142093    10.40000   -1.50000
H16B  3    1.138170    0.242329    0.063661    10.40000   -1.50000
H16C  3    1.226386    0.330787    0.046974    10.40000   -1.50000
AFIX   0
PART 0
PART 1
C17   1    1.205156    0.207777    0.174936    10.60000    0.02745    0.04640 =
         0.05301   -0.01570   -0.02217   -0.00029
AFIX 137
H17A  3    1.124268    0.208995    0.182442    10.60000   -1.50000
H17B  3    1.224601    0.271564    0.190420    10.60000   -1.50000
H17C  3    1.214491    0.155491    0.219683    10.60000   -1.50000
AFIX   0
PART 0
PART 2
C1B   1    1.018343    0.715249    0.109982    10.30000    0.02926    0.04590 =
         0.04875   -0.01299   -0.02010    0.00308
C3B   1    1.155292    0.580148    0.101794    10.30000    0.02951    0.04526 =
         0.04779   -0.01315   -0.02018    0.00281
C2B   1    1.146746    0.681145    0.046246    10.30000    0.02931    0.04526 =
         0.04836   -0.01301   -0.02011    0.00304
C8    1    1.155288    0.651663   -0.054214    10.30000    0.03013    0.04447 =
         0.04828   -0.01258   -0.02035    0.00280
AFIX 137
H8A   3    1.077299    0.636625   -0.048513    10.30000   -1.50000
H8B   3    1.205232    0.593369   -0.073736    10.30000   -1.50000
H8C   3    1.188720    0.706395   -0.103773    10.30000   -1.50000
AFIX   0
C5B   1    1.016940    0.697328    0.227366    10.30000    0.02946    0.04673 =
         0.04863   -0.01372   -0.02007    0.00339
AFIX  23
H5BA  3    1.051844    0.753695    0.243373    10.30000   -1.20000
H5BB  3    0.937348    0.684893    0.278943    10.30000   -1.20000
AFIX   0
C4B   1    1.091575    0.607612    0.212113    10.30000    0.02882    0.04649 =
         0.04785   -0.01343   -0.01993    0.00296
AFIX  23
H4BA  3    1.042591    0.551108    0.251608    10.30000   -1.20000
H4BB  3    1.151223    0.617645    0.237081    10.30000   -1.20000
AFIX   0
C13   1    1.242231    0.753988    0.013122    10.30000    0.02918    0.04494 =
         0.04841   -0.01328   -0.01991    0.00327
AFIX 137
H13A  3    1.276130    0.763689   -0.058581    10.30000   -1.50000
H13B  3    1.302403    0.729718    0.034379    10.30000   -1.50000
H13C  3    1.211460    0.816845    0.041608    10.30000   -1.50000
AFIX   0
PART 0
PART 1
C1A3  1    0.910453    0.667942    0.188271    10.35000    0.02983    0.04564 =
         0.05069   -0.01221   -0.02073    0.00353
AFIX   3
H1AA  3    0.881233    0.644492    0.144251    10.35000   -1.50000
H1AB  3    0.854144    0.711242    0.231631    10.35000   -1.50000
H1AC  3    0.924363    0.612952    0.225931    10.35000   -1.50000
AFIX   0
C1A1  1    1.077845    0.508156    0.126781    10.35000    0.02962    0.04623 =
         0.04983   -0.01228   -0.02116    0.00324
AFIX 137
H1AD  3    1.063138    0.504853    0.196245    10.35000   -1.50000
H1AE  3    1.107281    0.444332    0.100063    10.35000   -1.50000
H1AF  3    1.005165    0.523995    0.120143    10.35000   -1.50000
AFIX   0
PART 0
PART 2
C21B  1    1.412975    0.206814    0.049114    10.40000    0.02708    0.04569 =
         0.05166   -0.01463   -0.02256    0.00030
C23B  1    1.282984    0.083971    0.041722    10.40000    0.02676    0.04535 =
         0.05294   -0.01525   -0.02316    0.00112
C25B  1    1.365571    0.150839    0.146861    10.40000    0.02682    0.04527 =
         0.05193   -0.01444   -0.02260    0.00008
AFIX  23
H25A  3    1.327163    0.196666    0.199214    10.40000   -1.20000
H25B  3    1.429664    0.116834    0.158364    10.40000   -1.20000
AFIX   0
C24B  1    1.273863    0.072156    0.149057    10.40000    0.02675    0.04492 =
         0.05285   -0.01484   -0.02302    0.00056
AFIX  23
H24A  3    1.295168    0.004528    0.165067    10.40000   -1.20000
H24B  3    1.194242    0.087411    0.197296    10.40000   -1.20000
AFIX   0
C22B  1    1.309015    0.196132    0.016501    10.40000    0.02723    0.04540 =
         0.05186   -0.01527   -0.02276    0.00092
C16A  1    1.349978    0.222322   -0.097790    10.40000    0.02768    0.04675 =
         0.05185   -0.01520   -0.02284    0.00134
AFIX 137
H16D  3    1.369012    0.292660   -0.112853    10.40000   -1.50000
H16E  3    1.287121    0.207256   -0.116553    10.40000   -1.50000
H16F  3    1.419059    0.183197   -0.134429    10.40000   -1.50000
AFIX   0
PART 0
PART 1
C17A  1    1.246013    0.263497    0.011019    10.60000    0.02656    0.04549 =
         0.05374   -0.01460   -0.02242    0.00088
AFIX 137
H17D  3    1.298697    0.257899   -0.058109    10.60000   -1.50000
H17E  3    1.250311    0.330416    0.029234    10.60000   -1.50000
H17F  3    1.166016    0.249814    0.020981    10.60000   -1.50000
AFIX   0
PART 0
PART 2
C20A  1    0.742647    0.212766    0.322280    10.40000    0.02916    0.03726 =
         0.03276   -0.01620   -0.01451    0.00338
AFIX  43
H20A  3    0.761173    0.254069    0.361867    10.40000   -1.20000
AFIX   0
C23A  1    0.690070    0.074968    0.226849    10.40000    0.02869    0.05742 =
         0.05834   -0.03877   -0.01905    0.00728
AFIX  43
H23A  3    0.672252    0.025134    0.194361    10.40000   -1.20000
AFIX   0
C22A  1    0.600722    0.128199    0.290756    10.40000    0.02876    0.04718 =
         0.04896   -0.02859   -0.01677    0.00558
AFIX  43
H22A  3    0.522011    0.112413    0.306188    10.40000   -1.20000
AFIX   0
C19A  1    0.832871    0.158708    0.254485    10.40000    0.02889    0.05483 =
         0.04903   -0.03329   -0.01732    0.00572
AFIX  43
H19A  3    0.911874    0.169807    0.241876    10.40000   -1.20000
AFIX   0
PART 0
PART 1
C41   1    1.455989    0.145052    0.113768    10.30000    0.02737    0.04519 =
         0.05205   -0.01449   -0.02291   -0.00005
AFIX 137
H41A  3    1.533264    0.168089    0.103287    10.30000   -1.50000
H41B  3    1.461050    0.076019    0.097873    10.30000   -1.50000
H41C  3    1.401848    0.150562    0.182529    10.30000   -1.50000
AFIX   0
C44   1    1.293839    0.015745    0.118682    10.30000    0.02708    0.04562 =
         0.05338   -0.01483   -0.02349    0.00072
AFIX 137
H44A  3    1.336702   -0.043331    0.089193    10.30000   -1.50000
H44B  3    1.216015   -0.003152    0.168010    10.30000   -1.50000
H44C  3    1.336002    0.048440    0.149916    10.30000   -1.50000
AFIX   0
PART 0
PART 2
C46   1    1.519211    0.150859   -0.023774    10.20000    0.02710    0.04589 =
         0.05166   -0.01492   -0.02287    0.00048
AFIX 137
H46A  3    1.560495    0.116174    0.011811    10.20000   -1.50000
H46B  3    1.572047    0.198066   -0.073993    10.20000   -1.50000
H46C  3    1.492126    0.103029   -0.055132    10.20000   -1.50000
AFIX   0
C45   1    1.378717    0.019078   -0.014988    10.20000    0.02639    0.04551 =
         0.05312   -0.01541   -0.02341    0.00110
AFIX 137
H45A  3    1.449020    0.035443   -0.006979    10.20000   -1.50000
H45B  3    1.393839    0.028165   -0.084487    10.20000   -1.50000
H45C  3    1.357260   -0.049736    0.008608    10.20000   -1.50000
AFIX   0
C13B  1    1.078944    0.539699    0.050825    10.15000    0.02958    0.04526 =
         0.04835   -0.01348   -0.02055    0.00329
AFIX   3
H13D  3    1.049264    0.476149    0.082305    10.15000   -1.50000
H13E  3    1.015094    0.583909    0.059375    10.15000   -1.50000
H13F  3    1.124984    0.533499   -0.017885    10.15000   -1.50000
AFIX   0
C11B  1    0.919572    0.656195    0.138790    10.15000    0.02928    0.04589 =
         0.04859   -0.01291   -0.02011    0.00306
AFIX   3
H11A  3    0.942552    0.591815    0.115190    10.15000   -1.50000
H11B  3    0.868222    0.685535    0.111900    10.15000   -1.50000
H11C  3    0.880062    0.650655    0.209060    10.15000   -1.50000
AFIX   0
HKLF 4




REM
REM wR2 = 0.2759, GooF = S = 1.028, Restrained GooF = 0.991 for all data
REM R1 = 0.1141 for 4930 Fo > 4sig(Fo) and 0.1644 for all 7659 data
REM 717 parameters refined using 730 restraints

END

WGHT      0.0949     28.4531

REM Highest difference peak  0.873,  deepest hole -1.310,  1-sigma level  0.129
Q1    1  -0.1293  0.3793  0.3541  11.00000  0.05    0.87
Q2    1   0.9201  0.9198  0.1028  11.00000  0.05    0.81
Q3    1   1.4729  0.5674  0.0974  11.00000  0.05    0.79
Q4    1   1.4542  0.4212  0.1161  11.00000  0.05    0.76
;
_shelx_res_checksum              36903
_shelx_fab_file
;
-12 -5 1 0.5186 -0.5728
-12 -4 1 0.1504 -0.4106
-12 -4 2 -0.6261 -0.0292
-12 -3 1 3.4709 -0.5031
-12 -3 2 -2.0720 -0.4392
-12 -2 1 0.0752 -0.2874
-12 -2 2 -3.4967 -0.2019
-12 -1 1 -0.0645 -0.4063
-12 -1 2 -4.5744 -0.1676
-12 -1 3 2.3347 -0.0651
-12 0 1 3.8080 -0.5665
-12 0 2 -5.8878 0.0938
-12 0 3 -0.6747 -0.0704
-12 1 1 2.0424 -0.4582
-12 1 2 -4.2707 0.0361
-12 1 3 -0.7234 -0.0488
-12 2 1 -0.7533 -0.5005
-12 2 2 -2.1345 -0.1428
-12 2 3 2.7788 0.3225
-12 3 1 -1.3214 -0.5255
-12 3 2 -2.9049 -0.2912
-12 4 1 3.0193 -0.5408
-12 4 2 0.0309 -0.0001
-12 5 1 -0.4606 -0.6797
-11 -8 1 1.8331 -0.2126
-11 -7 1 -0.7422 -0.0974
-11 -7 2 0.2837 -0.0181
-11 -6 1 -3.9873 -0.0508
-11 -6 2 5.1578 -0.1689
-11 -6 3 -4.3138 -0.1888
-11 -5 1 -4.1863 -0.0186
-11 -5 2 4.8870 0.0480
-11 -5 3 -4.1869 -0.0736
-11 -4 1 0.2131 0.1062
-11 -4 2 1.3419 0.0924
-11 -4 3 -3.3660 -0.1690
-11 -4 4 1.4864 -0.1112
-11 -3 1 8.0653 -0.0873
-11 -3 2 3.7409 -0.0771
-11 -3 3 -4.7936 0.1131
-11 -3 4 -1.2758 -0.0043
-11 -2 1 -0.1193 -0.1236
-11 -2 2 1.6029 0.1070
-11 -2 3 0.9064 0.1852
-11 -2 4 -2.4113 -0.1412
-11 -1 1 -7.0911 -0.1687
-11 -1 2 1.6131 0.0020
-11 -1 3 6.6887 0.0840
-11 -1 4 -1.4358 -0.0240
-11 0 1 -3.7643 -0.2289
-11 0 2 -1.0425 0.0384
-11 0 3 5.5991 0.1746
-11 0 4 -2.8218 -0.0187
-11 0 5 -3.4182 -0.0401
-11 1 1 -2.7986 -0.2469
-11 1 2 -2.4248 0.0383
-11 1 3 4.6273 0.1178
-11 1 4 -0.4635 -0.0648
-11 1 5 -4.1771 0.0585
-11 2 1 -1.4316 -0.3251
-11 2 2 1.5693 0.0464
-11 2 3 2.8762 0.1971
-11 2 4 -0.3694 -0.0998
-11 3 1 -3.4819 -0.3592
-11 3 2 1.5462 0.0429
-11 3 3 1.4486 0.1306
-11 3 4 -3.7816 -0.1103
-11 4 1 -3.1416 -0.3509
-11 4 2 0.8050 0.0989
-11 4 3 2.4517 -0.0027
-11 4 4 0.4344 -0.0420
-11 5 1 -0.0045 -0.3400
-11 5 2 -2.7590 0.0771
-11 5 3 -2.1514 -0.0701
-11 6 1 3.5493 -0.2391
-11 6 2 1.7257 0.0624
-11 6 3 -4.6660 -0.2328
-11 7 1 -1.6751 -0.3496
-11 7 2 1.7961 0.0535
-11 8 1 0.8761 -0.3278
-10 -9 1 -0.2402 0.2093
-10 -9 2 0.8912 -0.3154
-10 -8 1 -6.4886 0.3197
-10 -8 2 2.2961 -0.2282
-10 -8 3 4.0330 0.0175
-10 -7 1 -2.3531 0.3534
-10 -7 2 -0.8611 -0.0481
-10 -7 3 2.3343 -0.1275
-10 -7 4 0.8144 -0.1117
-10 -6 1 1.8002 0.2224
-10 -6 2 -0.7066 -0.0723
-10 -6 3 -1.5023 -0.0509
-10 -6 4 0.5331 -0.0852
-10 -5 1 4.1317 0.2672
-10 -5 2 1.9673 -0.0719
-10 -5 3 -5.7196 0.1239
-10 -5 4 0.0255 -0.0839
-10 -5 5 3.5014 -0.0663
-10 -4 1 1.9545 0.2284
-10 -4 2 4.1077 -0.0187
-10 -4 3 -3.8679 -0.0001
-10 -4 4 2.5384 -0.1480
-10 -4 5 -2.6337 -0.0148
-10 -3 1 0.6266 0.1516
-10 -3 2 6.7129 -0.0757
-10 -3 3 -1.8993 0.0291
-10 -3 4 2.2707 0.0392
-10 -3 5 -6.5030 -0.0965
-10 -3 6 0.6230 0.1171
-10 -2 1 -0.3094 0.1165
-10 -2 2 -2.6286 -0.0050
-10 -2 3 -3.3674 0.0797
-10 -2 4 6.6749 -0.0071
-10 -2 5 -2.8451 -0.2143
-10 -2 6 0.2948 0.1392
-10 -1 1 -0.1471 0.1044
-10 -1 2 0.9624 -0.0711
-10 -1 3 -0.2968 0.0408
-10 -1 4 -0.9369 0.0266
-10 -1 5 1.7090 -0.0786
-10 -1 6 3.2627 0.1152
-10 0 1 2.6588 0.0905
-10 0 2 3.4385 -0.0227
-10 0 3 1.0109 0.1188
-10 0 4 -8.6401 -0.0504
-10 0 5 -0.5908 -0.1464
-10 0 6 6.0769 0.1637
-10 1 1 -0.5665 0.0435
-10 1 2 -0.7333 -0.1178
-10 1 3 3.0351 0.0799
-10 1 4 -3.0249 -0.0230
-10 1 5 -2.2364 -0.0383
-10 1 6 3.3271 0.2744
-10 2 1 -0.5072 0.0639
-10 2 2 1.5854 -0.0662
-10 2 3 2.6440 0.0710
-10 2 4 -0.7432 0.0105
-10 2 5 -1.9969 -0.1049
-10 2 6 -0.3549 0.1723
-10 3 1 0.0072 -0.0032
-10 3 2 0.9865 -0.0500
-10 3 3 1.0583 0.0969
-10 3 4 -1.9121 -0.0308
-10 3 5 -0.7941 -0.0798
-10 3 6 -3.9815 0.1535
-10 4 1 -0.6613 -0.0873
-10 4 2 0.2928 -0.0007
-10 4 3 3.4621 0.1880
-10 4 4 -1.1798 -0.0627
-10 4 5 3.9543 -0.1240
-10 4 6 -5.4977 0.1158
-10 5 1 2.7389 -0.1364
-10 5 2 -1.5105 -0.0573
-10 5 3 1.3546 0.1636
-10 5 4 -4.3250 0.0568
-10 5 5 3.8226 -0.0553
-10 6 1 2.7633 -0.1441
-10 6 2 0.9585 0.0985
-10 6 3 3.3620 0.0566
-10 6 4 -3.9752 -0.0957
-10 6 5 -0.6572 0.1007
-10 7 1 0.8986 -0.2524
-10 7 2 -2.6738 0.0305
-10 7 3 2.3408 0.1719
-10 7 4 -0.7852 -0.1523
-10 8 1 2.2438 -0.2032
-10 8 2 0.7235 -0.0847
-10 8 3 1.8078 0.2114
-10 9 1 -0.1505 -0.1015
-10 9 2 -0.2850 -0.0946
-9 -11 1 -0.4730 0.5726
-9 -10 1 0.4053 0.5099
-9 -10 2 5.5850 -0.3144
-9 -9 1 0.2619 0.5070
-9 -9 2 3.2955 -0.2111
-9 -9 3 -2.7874 -0.0754
-9 -8 1 -1.6155 0.4647
-9 -8 2 1.3906 -0.0724
-9 -8 3 1.2824 -0.0827
-9 -8 4 -2.5983 -0.1180
-9 -7 1 5.6518 0.5037
-9 -7 2 1.3798 0.0038
-9 -7 3 -0.4455 -0.1000
-9 -7 4 -1.6503 -0.1275
-9 -7 5 -1.6009 -0.0346
-9 -6 1 6.6275 0.4549
-9 -6 2 -0.2843 -0.1053
-9 -6 3 -2.6514 -0.0419
-9 -6 4 1.2128 0.0467
-9 -6 5 0.5325 -0.0682
-9 -6 6 -1.3266 0.1515
-9 -5 1 3.3179 0.5326
-9 -5 2 2.5074 -0.1199
-9 -5 3 -5.1100 -0.0210
-9 -5 4 -1.9400 0.1302
-9 -5 5 5.3261 -0.1391
-9 -5 6 -0.9618 -0.0567
-9 -4 1 -1.3646 0.4574
-9 -4 2 5.0937 -0.1465
-9 -4 3 -2.5981 -0.0675
-9 -4 4 -2.0089 0.0377
-9 -4 5 5.7622 0.0100
-9 -4 6 -5.6622 -0.0611
-9 -4 7 1.5156 0.1916
-9 -3 1 -3.2566 0.4805
-9 -3 2 4.9477 -0.1272
-9 -3 3 2.2810 -0.0561
-9 -3 4 -5.3050 0.0433
-9 -3 5 1.7892 0.0352
-9 -3 6 -1.0248 -0.1006
-9 -3 7 1.4721 0.1784
-9 -2 1 0.8344 0.5037
-9 -2 2 -4.0061 -0.1588
-9 -2 3 -0.6723 -0.0056
-9 -2 4 -2.2051 0.0318
-9 -2 5 5.6067 -0.0817
-9 -2 6 0.2658 -0.0400
-9 -2 7 -0.4919 0.2377
-9 -1 1 -0.3816 0.4898
-9 -1 2 -4.8173 -0.1887
-9 -1 3 6.9698 -0.0335
-9 -1 4 -2.5841 0.0892
-9 -1 5 2.1928 -0.0541
-9 -1 6 -3.5528 -0.0846
-9 -1 7 2.9341 0.1800
-9 0 1 2.0807 0.4604
-9 0 2 -3.6323 -0.0741
-9 0 3 4.2803 -0.0129
-9 0 4 -3.0859 0.0482
-9 0 5 3.2944 -0.0927
-9 0 6 -7.5036 -0.1713
-9 0 7 6.4330 0.1401
-9 0 8 -2.4964 0.3257
-9 1 1 0.0053 0.4139
-9 1 2 -4.0024 -0.1338
-9 1 3 -2.1911 -0.0486
-9 1 4 2.3968 0.0828
-9 1 5 6.8767 0.0042
-9 1 6 -5.7027 -0.0660
-9 1 7 0.9751 -0.0833
-9 1 8 -3.3824 0.3052
-9 2 1 0.2822 0.3887
-9 2 2 1.1519 -0.1160
-9 2 3 -4.6046 0.0337
-9 2 4 2.6856 0.1083
-9 2 5 0.4666 -0.1141
-9 2 6 3.6718 -0.1051
-9 2 7 -1.9754 -0.0306
-9 2 8 -5.5078 0.2550
-9 3 1 3.8914 0.3656
-9 3 2 3.0425 -0.1882
-9 3 3 -7.8320 0.0041
-9 3 4 1.4295 0.0782
-9 3 5 -3.6633 -0.0479
-9 3 6 7.1073 -0.0233
-9 3 7 -1.2883 0.0795
-9 4 1 2.9438 0.3050
-9 4 2 3.0718 -0.0742
-9 4 3 -4.7188 0.0580
-9 4 4 0.9480 -0.0224
-9 4 5 -1.6314 -0.0482
-9 4 6 5.2824 -0.0522
-9 4 7 0.0324 0.1486
-9 5 1 2.2615 0.2959
-9 5 2 1.7723 -0.0936
-9 5 3 -0.9331 -0.0276
-9 5 4 -2.5232 0.0249
-9 5 5 -2.3173 0.0184
-9 5 6 0.8480 -0.0744
-9 5 7 4.7334 0.0825
-9 6 1 -2.4831 0.2239
-9 6 2 -0.1394 -0.0213
-9 6 3 2.2652 -0.0008
-9 6 4 1.0744 0.0061
-9 6 5 -0.2221 -0.0289
-9 6 6 -3.2286 -0.0198
-9 7 1 -0.1713 0.1856
-9 7 2 -2.0662 -0.1092
-9 7 3 -2.7084 0.0893
-9 7 4 0.8661 0.0681
-9 7 5 1.7547 -0.0951
-9 7 6 1.4046 0.0762
-9 8 1 -2.7163 0.1359
-9 8 2 1.7674 -0.1345
-9 8 3 0.7178 0.0990
-9 8 4 -1.2968 0.0779
-9 8 5 0.6185 -0.1683
-9 9 1 -1.6248 0.0847
-9 9 2 -1.4820 -0.0637
-9 9 3 1.5560 -0.0533
-9 9 4 -3.1190 0.2080
-9 10 1 1.8797 0.0221
-9 10 2 -1.8957 0.1305
-9 10 3 2.1320 -0.3323
-9 11 1 -0.3990 -0.0605
-8 -12 1 -1.0421 0.5938
-8 -11 1 -0.6801 0.5869
-8 -11 2 -0.7497 -0.1663
-8 -11 3 0.9295 -0.2264
-8 -10 1 -0.6262 0.5278
-8 -10 2 -0.3257 -0.1373
-8 -10 3 6.4004 -0.2396
-8 -10 4 -5.4305 0.0341
-8 -9 1 1.9064 0.5573
-8 -9 2 -3.7158 0.0711
-8 -9 3 0.2529 -0.1504
-8 -9 4 -1.4827 -0.1720
-8 -9 5 2.1522 0.0395
-8 -8 1 -0.2271 0.5752
-8 -8 2 -1.5519 -0.0489
-8 -8 3 -3.1205 -0.0764
-8 -8 4 2.5345 0.0527
-8 -8 5 4.0539 -0.0297
-8 -8 6 -5.7598 -0.1700
-8 -7 1 -0.2535 0.6471
-8 -7 2 4.3290 -0.1169
-8 -7 3 -4.4640 -0.1222
-8 -7 4 -0.5168 0.1519
-8 -7 5 3.7163 -0.0278
-8 -7 6 -2.9433 -0.2170
-8 -7 7 0.5474 0.1783
-8 -6 1 0.1633 0.7174
-8 -6 2 1.9906 -0.1668
-8 -6 3 -2.6316 -0.1685
-8 -6 4 -1.4679 0.1242
-8 -6 5 1.0090 0.0892
-8 -6 6 2.6087 -0.1065
-8 -6 7 -3.7945 -0.0364
-8 -5 1 -0.5804 0.7084
-8 -5 2 0.8150 -0.1093
-8 -5 3 0.0332 -0.1471
-8 -5 4 -0.3090 0.0411
-8 -5 5 -2.6661 0.0835
-8 -5 6 4.8905 -0.0686
-8 -5 7 -2.7735 -0.1147
-8 -5 8 1.8667 0.2207
-8 -4 1 -1.9336 0.7346
-8 -4 2 1.4325 -0.1847
-8 -4 3 -1.4475 -0.1637
-8 -4 4 1.5053 0.0657
-8 -4 5 1.8620 0.0473
-8 -4 6 0.3629 -0.0085
-8 -4 7 -6.1193 -0.0508
-8 -4 8 2.1028 0.1559
-8 -3 1 -1.0549 0.7788
-8 -3 2 1.5305 -0.1630
-8 -3 3 0.8621 -0.1947
-8 -3 4 -4.2383 0.1000
-8 -3 5 0.3680 0.0500
-8 -3 6 4.0387 -0.0545
-8 -3 7 -2.6539 -0.0226
-8 -3 8 2.3625 0.1715
-8 -2 1 3.4798 0.8233
-8 -2 2 -1.2594 -0.1754
-8 -2 3 3.1387 -0.2161
-8 -2 4 -8.1474 0.0713
-8 -2 5 -1.1621 0.0795
-8 -2 6 9.2038 -0.0346
-8 -2 7 -2.4527 -0.0755
-8 -2 8 1.1558 0.1590
-8 -2 9 -3.5441 -0.0202
-8 -1 1 1.3551 0.7936
-8 -1 2 -5.6651 -0.1920
-8 -1 3 11.0648 -0.1688
-8 -1 4 -0.2192 0.0485
-8 -1 5 -10.1571 0.0870
-8 -1 6 3.2942 -0.0233
-8 -1 7 1.2937 -0.1079
-8 -1 8 0.5320 0.0746
-8 -1 9 0.9317 0.1885
-8 0 1 2.4341 0.8134
-8 0 2 -0.6830 -0.1809
-8 0 3 2.6515 -0.1596
-8 0 4 2.3813 0.0425
-8 0 5 -6.4017 0.0725
-8 0 6 -0.5853 -0.0579
-8 0 7 4.0626 -0.0329
-8 0 8 -1.2912 0.0293
-8 0 9 1.4208 0.1554
-8 1 1 -2.0200 0.8161
-8 1 2 4.5876 -0.1629
-8 1 3 -5.3731 -0.2279
-8 1 4 1.8311 0.0258
-8 1 5 1.7526 0.1313
-8 1 6 -0.2531 0.0291
-8 1 7 -0.3075 -0.0352
-8 1 8 -2.4745 -0.1148
-8 1 9 3.2206 0.1718
-8 2 1 -3.9833 0.7809
-8 2 2 6.3334 -0.1243
-8 2 3 -2.6213 -0.1526
-8 2 4 0.4074 0.0388
-8 2 5 -0.5905 0.0137
-8 2 6 1.3586 -0.0250
-8 2 7 -0.8937 -0.0199
-8 2 8 -0.6170 -0.0524
-8 2 9 1.1110 0.2734
-8 3 1 -3.1128 0.7125
-8 3 2 1.9734 -0.1715
-8 3 3 1.1569 -0.1643
-8 3 4 -0.6220 0.0414
-8 3 5 -1.4183 0.0392
-8 3 6 2.2957 0.0395
-8 3 7 -3.8035 -0.0001
-8 3 8 0.8761 -0.0974
-8 3 9 3.4982 0.1829
-8 4 1 -3.2850 0.6352
-8 4 2 -2.5136 -0.1290
-8 4 3 2.7148 -0.0871
-8 4 4 -0.1950 0.0416
-8 4 5 1.3670 0.0303
-8 4 6 2.3903 -0.0252
-8 4 7 -2.3774 -0.0859
-8 4 8 -1.6848 0.0335
-8 5 1 0.2549 0.6619
-8 5 2 -2.1027 -0.1217
-8 5 3 1.9397 -0.1667
-8 5 4 -0.8966 0.0129
-8 5 5 -0.3129 0.0670
-8 5 6 -0.7147 0.0312
-8 5 7 0.9131 -0.1081
-8 5 8 -0.2319 0.1530
-8 6 1 -1.1048 0.5748
-8 6 2 -1.2623 -0.1172
-8 6 3 0.9558 -0.0864
-8 6 4 1.0415 -0.0061
-8 6 5 0.9886 -0.0222
-8 6 6 -0.0548 0.0704
-8 6 7 -0.7708 -0.0507
-8 6 8 -2.8037 0.0641
-8 7 1 2.3752 0.5167
-8 7 2 0.3273 -0.1167
-8 7 3 -2.2003 -0.0404
-8 7 4 0.1783 0.0309
-8 7 5 -0.3562 0.0182
-8 7 6 0.6455 -0.0400
-8 7 7 2.1103 0.0568
-8 8 1 -0.5058 0.4478
-8 8 2 -1.0265 -0.0728
-8 8 3 1.1143 -0.0219
-8 8 4 1.1696 -0.0563
-8 8 5 0.3223 0.0487
-8 8 6 -0.2651 -0.1273
-8 9 1 1.1292 0.3977
-8 9 2 0.3260 -0.0894
-8 9 3 -1.4779 -0.0727
-8 9 4 -1.6376 0.0754
-8 9 5 0.7117 0.0835
-8 9 6 2.1299 -0.1313
-8 10 1 -0.3700 0.3336
-8 10 2 5.3856 -0.0650
-8 10 3 -1.6168 -0.1493
-8 10 4 -1.2270 0.2164
-8 10 5 -1.1703 -0.0588
-8 11 1 -4.5747 0.2099
-8 11 2 4.1753 -0.0026
-8 11 3 -2.8161 -0.1322
-8 12 1 -4.4412 0.1389
-7 -13 1 -0.7252 0.5328
-7 -12 1 1.7775 0.5137
-7 -12 2 4.6861 -0.1612
-7 -11 1 -1.5128 0.4344
-7 -11 2 0.1669 -0.1228
-7 -11 3 -1.1663 -0.2023
-7 -11 4 5.4521 -0.0147
-7 -10 1 -2.9536 0.4903
-7 -10 2 -0.2736 -0.0684
-7 -10 3 1.5669 -0.1597
-7 -10 4 1.6270 -0.0245
-7 -10 5 -2.0960 0.0379
-7 -9 1 0.7015 0.5589
-7 -9 2 -1.4700 -0.0311
-7 -9 3 -2.4168 -0.1137
-7 -9 4 -0.8390 0.0105
-7 -9 5 4.2521 0.0092
-7 -9 6 -0.5917 -0.1548
-7 -8 1 0.3899 0.6790
-7 -8 2 -1.0327 -0.1299
-7 -8 3 -1.4534 -0.2508
-7 -8 4 1.1195 0.0667
-7 -8 5 4.9530 0.1761
-7 -8 6 -4.1166 -0.1170
-7 -8 7 0.5557 0.0778
-7 -7 1 -0.3955 0.6960
-7 -7 2 2.8256 -0.1205
-7 -7 3 -1.2006 -0.2406
-7 -7 4 -0.4680 0.0222
-7 -7 5 1.5453 0.1377
-7 -7 6 -1.1426 -0.0141
-7 -7 7 3.0925 0.0149
-7 -7 8 -5.6960 -0.0662
-7 -6 1 -0.6297 0.7895
-7 -6 2 1.2854 -0.1098
-7 -6 3 -2.2482 -0.2559
-7 -6 4 -1.5635 0.0184
-7 -6 5 0.0067 0.1115
-7 -6 6 3.8882 0.0344
-7 -6 7 1.0945 -0.0462
-7 -6 8 -4.7254 0.0808
-7 -5 1 -0.0029 0.8328
-7 -5 2 1.3979 -0.1191
-7 -5 3 -1.1465 -0.3021
-7 -5 4 -0.2760 0.0181
-7 -5 5 0.7331 0.1584
-7 -5 6 2.1625 0.0019
-7 -5 7 -2.0449 -0.1367
-7 -5 8 0.6215 0.1300
-7 -5 9 -1.1777 -0.0187
-7 -4 1 0.4202 0.9154
-7 -4 2 2.5869 -0.1038
-7 -4 3 -1.9850 -0.3168
-7 -4 4 -2.0829 0.0383
-7 -4 5 4.3388 0.1611
-7 -4 6 0.0060 -0.0270
-7 -4 7 -3.9718 -0.0754
-7 -4 8 2.0436 0.0002
-7 -4 9 -2.1447 0.1558
-7 -3 1 -1.2100 0.9244
-7 -3 2 2.1265 -0.1521
-7 -3 3 -1.5832 -0.2579
-7 -3 4 -2.6802 0.0447
-7 -3 5 3.3190 0.1166
-7 -3 6 -0.5436 -0.0233
-7 -3 7 0.3157 -0.0020
-7 -3 8 0.9196 -0.1103
-7 -3 9 -1.2290 0.1423
-7 -3 10 0.9019 0.0001
-7 -2 1 0.6853 0.9750
-7 -2 2 2.7837 -0.1409
-7 -2 3 -0.8961 -0.2870
-7 -2 4 -4.5891 0.0276
-7 -2 5 3.2081 0.1416
-7 -2 6 1.6031 0.0271
-7 -2 7 -0.8472 -0.0638
-7 -2 8 -1.8919 -0.1105
-7 -2 9 2.6377 0.0823
-7 -2 10 -2.0553 0.1624
-7 -1 1 -0.0810 0.9797
-7 -1 2 -1.7468 -0.1285
-7 -1 3 0.5775 -0.2780
-7 -1 4 -1.2087 0.0319
-7 -1 5 3.3083 0.1000
-7 -1 6 -0.0224 0.0469
-7 -1 7 -2.6722 -0.0779
-7 -1 8 -3.4895 -0.0459
-7 -1 9 5.7466 -0.0057
-7 -1 10 -1.0742 0.2290
-7 0 1 0.4305 1.0088
-7 0 2 1.0637 -0.1281
-7 0 3 0.7594 -0.2991
-7 0 4 -4.8797 0.0381
-7 0 5 3.9360 0.1067
-7 0 6 2.2058 0.0432
-7 0 7 -1.4634 -0.0398
-7 0 8 -3.8760 -0.0195
-7 0 9 3.7512 -0.0797
-7 0 10 -0.9738 0.1419
-7 1 1 1.7724 0.9566
-7 1 2 -1.2553 -0.1623
-7 1 3 0.3782 -0.2541
-7 1 4 -3.0739 0.0177
-7 1 5 1.3025 0.1179
-7 1 6 1.7439 0.0475
-7 1 7 1.0073 -0.0118
-7 1 8 -4.0878 -0.0702
-7 1 9 1.9830 -0.0396
-7 1 10 2.1723 0.1553
-7 2 1 3.7774 0.9979
-7 2 2 -0.4578 -0.1612
-7 2 3 -0.8295 -0.2420
-7 2 4 1.2488 -0.0008
-7 2 5 -0.7352 0.0896
-7 2 6 -1.6847 0.0087
-7 2 7 1.6775 -0.0050
-7 2 8 0.2030 -0.0390
-7 2 9 0.2352 -0.0136
-7 2 10 -0.5379 0.1567
-7 3 1 2.0587 0.9213
-7 3 2 -0.4387 -0.1767
-7 3 3 -0.1639 -0.2353
-7 3 4 2.3892 0.0081
-7 3 5 -1.3385 0.0651
-7 3 6 -0.4514 0.0495
-7 3 7 -2.0113 0.0551
-7 3 8 -0.7880 -0.0406
-7 3 9 3.3030 -0.1457
-7 3 10 1.4098 0.2458
-7 4 1 -1.5313 0.8945
-7 4 2 -0.8458 -0.1320
-7 4 3 1.8166 -0.2134
-7 4 4 0.1538 0.0475
-7 4 5 -2.3080 0.0542
-7 4 6 3.0867 -0.0017
-7 4 7 0.4117 0.0003
-7 4 8 -2.2272 -0.0459
-7 4 9 -0.0070 -0.1344
-7 4 10 0.3786 0.2698
-7 5 1 0.2639 0.8323
-7 5 2 -1.5317 -0.0872
-7 5 3 1.9051 -0.2221
-7 5 4 2.0774 -0.0120
-7 5 5 -3.2686 0.0857
-7 5 6 -1.7920 0.0397
-7 5 7 2.6717 -0.0001
-7 5 8 -0.8285 -0.0599
-7 5 9 -0.1663 0.0369
-7 6 1 0.7764 0.8003
-7 6 2 -4.7498 -0.1340
-7 6 3 1.1393 -0.1473
-7 6 4 3.0281 -0.0210
-7 6 5 -0.8679 -0.0028
-7 6 6 -2.3343 0.0714
-7 6 7 3.7558 0.0832
-7 6 8 -1.7559 -0.1815
-7 6 9 -1.2588 0.1221
-7 7 1 1.9237 0.7416
-7 7 2 -2.5243 -0.1490
-7 7 3 0.8024 -0.1492
-7 7 4 0.0450 0.0484
-7 7 5 0.4040 0.0409
-7 7 6 -2.4193 0.0164
-7 7 7 1.1649 0.0120
-7 7 8 2.2116 -0.0867
-7 8 1 -0.3096 0.7510
-7 8 2 -2.7595 -0.0603
-7 8 3 2.9360 -0.1368
-7 8 4 0.3731 -0.0022
-7 8 5 -0.7242 -0.0297
-7 8 6 1.0524 -0.0270
-7 8 7 -2.1005 -0.0807
-7 8 8 -0.3883 0.2118
-7 9 1 -1.7910 0.6143
-7 9 2 0.7764 -0.0412
-7 9 3 0.6544 -0.0757
-7 9 4 -0.9472 -0.0092
-7 9 5 -1.6580 -0.0101
-7 9 6 1.9374 0.0883
-7 9 7 -0.4331 -0.0939
-7 10 1 -2.8765 0.5531
-7 10 2 1.6846 -0.1049
-7 10 3 0.0815 -0.0360
-7 10 4 0.5877 -0.0053
-7 10 5 0.4927 0.0192
-7 10 6 -0.7744 -0.0595
-7 11 1 0.7529 0.4712
-7 11 2 -2.5301 -0.0274
-7 11 3 -2.4189 -0.0506
-7 11 4 -0.0952 -0.1235
-7 11 5 3.7702 0.2307
-7 12 1 1.3944 0.4327
-7 12 2 -0.8521 0.2017
-7 12 3 1.9125 -0.0836
-7 13 1 2.8054 0.0456
-6 -13 1 0.3796 0.2288
-6 -13 2 0.0207 -0.0753
-6 -12 1 1.7181 0.2691
-6 -12 2 0.0705 -0.1114
-6 -12 3 -0.7174 -0.1105
-6 -12 4 2.4238 -0.0315
-6 -11 1 1.7613 0.3891
-6 -11 2 0.7354 -0.0734
-6 -11 3 -3.8738 -0.1096
-6 -11 4 5.1660 0.0076
-6 -11 5 0.2932 -0.0112
-6 -10 1 -4.1174 0.4174
-6 -10 2 5.9208 -0.0170
-6 -10 3 -0.0425 -0.1606
-6 -10 4 0.3121 0.0389
-6 -10 5 -0.9940 0.1564
-6 -10 6 -3.4276 0.0088
-6 -10 7 1.0146 -0.2529
-6 -9 1 -4.9660 0.5208
-6 -9 2 6.3173 -0.0519
-6 -9 3 -1.4240 -0.2320
-6 -9 4 -3.2581 0.0430
-6 -9 5 3.3078 0.1993
-6 -9 6 -1.3825 0.0063
-6 -9 7 -0.0192 -0.1961
-6 -8 1 -4.3294 0.5940
-6 -8 2 1.9014 -0.0843
-6 -8 3 -0.7026 -0.2820
-6 -8 4 -0.1613 -0.0157
-6 -8 5 4.1413 0.1980
-6 -8 6 -2.8637 0.1248
-6 -8 7 -2.5778 -0.0984
-6 -8 8 2.4307 -0.2450
-6 -7 1 -2.6357 0.6518
-6 -7 2 1.5938 -0.0834
-6 -7 3 0.9383 -0.2512
-6 -7 4 -0.1875 -0.0040
-6 -7 5 0.7013 0.1612
-6 -7 6 -2.3323 0.0673
-6 -7 7 -3.5904 -0.1167
-6 -7 8 2.8325 -0.1501
-6 -7 9 5.5516 0.2563
-6 -6 1 1.0266 0.7038
-6 -6 2 -3.2131 -0.0634
-6 -6 3 -0.5719 -0.2718
-6 -6 4 -0.8458 0.0045
-6 -6 5 1.3175 0.1849
-6 -6 6 2.9205 0.0222
-6 -6 7 -6.5286 -0.1234
-6 -6 8 1.0892 -0.0517
-6 -6 9 7.8309 0.1062
-6 -5 1 5.3684 0.8194
-6 -5 2 -2.9704 -0.0663
-6 -5 3 0.4417 -0.3304
-6 -5 4 -0.7205 -0.0298
-6 -5 5 3.0761 0.1940
-6 -5 6 4.5332 0.0526
-6 -5 7 -9.8760 -0.1081
-6 -5 8 -0.3050 -0.0703
-6 -5 9 6.8562 -0.0118
-6 -5 10 -3.4702 0.2334
-6 -4 1 6.7569 0.8241
-6 -4 2 -1.7463 -0.0386
-6 -4 3 1.1446 -0.2914
-6 -4 4 -2.2121 -0.0209
-6 -4 5 -0.0790 0.1628
-6 -4 6 3.6861 0.0449
-6 -4 7 -4.9858 -0.0870
-6 -4 8 1.8013 -0.0455
-6 -4 9 1.9505 -0.0087
-6 -4 10 -2.4684 0.1686
-6 -3 1 1.1443 0.8907
-6 -3 2 -2.1472 -0.1104
-6 -3 3 0.3743 -0.2975
-6 -3 4 -0.0053 0.0202
-6 -3 5 -0.8308 0.1364
-6 -3 6 2.3302 0.0308
-6 -3 7 -1.7870 -0.0588
-6 -3 8 1.3681 -0.0559
-6 -3 9 -0.0480 -0.0227
-6 -3 10 0.2789 0.0813
-6 -3 11 -1.7406 0.0895
-6 -2 1 -0.7142 0.8834
-6 -2 2 1.1508 -0.0669
-6 -2 3 2.2055 -0.2990
-6 -2 4 -0.1950 -0.0021
-6 -2 5 -1.5937 0.1823
-6 -2 6 2.2755 0.0380
-6 -2 7 -3.9684 -0.0888
-6 -2 8 -0.1145 -0.0771
-6 -2 9 4.0227 -0.0163
-6 -2 10 -1.0600 0.0743
-6 -2 11 -1.9464 0.1616
-6 -1 1 -1.2913 0.9538
-6 -1 2 -1.4849 -0.1152
-6 -1 3 0.2207 -0.3278
-6 -1 4 -0.7621 0.0252
-6 -1 5 1.0633 0.1886
-6 -1 6 1.6649 0.0013
-6 -1 7 -1.1360 -0.0643
-6 -1 8 -1.6568 -0.0248
-6 -1 9 1.9607 -0.0439
-6 -1 10 -2.5915 0.0145
-6 -1 11 3.0003 0.1480
-6 0 1 -3.7198 0.9880
-6 0 2 0.3875 -0.1060
-6 0 3 4.3682 -0.3523
-6 0 4 -3.5807 0.0052
-6 0 5 1.1402 0.1826
-6 0 6 -0.1464 0.0333
-6 0 7 2.4314 -0.0424
-6 0 8 -2.9650 -0.0214
-6 0 9 2.6379 -0.0351
-6 0 10 -3.2651 -0.0655
-6 0 11 1.2173 0.1464
-6 1 1 -0.4334 0.9819
-6 1 2 -1.6034 -0.1587
-6 1 3 2.1728 -0.2935
-6 1 4 -0.7485 0.0638
-6 1 5 -0.1152 0.1248
-6 1 6 -5.0265 -0.0070
-6 1 7 5.7261 -0.0384
-6 1 8 -1.6744 -0.0254
-6 1 9 2.0885 0.0131
-6 1 10 -1.1815 -0.0274
-6 1 11 -1.1258 0.1727
-6 2 1 -0.8167 1.0057
-6 2 2 -0.5731 -0.0957
-6 2 3 -0.2851 -0.3028
-6 2 4 1.0246 0.0383
-6 2 5 0.4636 0.1254
-6 2 6 -1.7966 -0.0282
-6 2 7 2.0964 -0.0447
-6 2 8 -0.9327 0.0132
-6 2 9 0.4877 -0.0261
-6 2 10 -1.0313 -0.0434
-6 2 11 -1.2866 0.1881
-6 3 1 1.5178 0.9366
-6 3 2 -2.4614 -0.1776
-6 3 3 -2.4463 -0.2780
-6 3 4 3.3557 0.0812
-6 3 5 -1.6698 0.1280
-6 3 6 2.8219 -0.0153
-6 3 7 -1.8495 -0.0369
-6 3 8 -0.8662 0.0367
-6 3 9 -0.9718 -0.0495
-6 3 10 1.2765 -0.0349
-6 3 11 1.7603 0.0934
-6 4 1 2.1535 0.9771
-6 4 2 -1.3499 -0.1348
-6 4 3 -0.2750 -0.2732
-6 4 4 2.3292 0.0522
-6 4 5 -6.7911 0.1061
-6 4 6 4.1544 -0.0161
-6 4 7 1.3473 -0.0340
-6 4 8 2.1407 0.0227
-6 4 9 -2.4864 -0.0281
-6 4 10 -2.0629 -0.0377
-6 4 11 0.3807 -0.0031
-6 5 1 0.0502 0.8928
-6 5 2 2.5829 -0.1624
-6 5 3 -1.0183 -0.2472
-6 5 4 1.7571 0.0393
-6 5 5 -2.1892 0.1061
-6 5 6 -0.2362 -0.0199
-6 5 7 -0.5176 -0.0478
-6 5 8 0.3600 0.0264
-6 5 9 -0.2622 0.1237
-6 5 10 2.1454 0.0062
-6 6 1 -2.6693 0.9200
-6 6 2 2.3262 -0.1060
-6 6 3 -0.5933 -0.2282
-6 6 4 -0.8900 0.0188
-6 6 5 0.7040 0.0595
-6 6 6 0.0208 -0.0267
-6 6 7 1.8118 0.0049
-6 6 8 -1.0705 0.0025
-6 6 9 -2.7250 -0.0288
-6 6 10 2.9279 0.1895
-6 7 1 -3.6253 0.8212
-6 7 2 2.2567 -0.1444
-6 7 3 2.0037 -0.2374
-6 7 4 -3.4894 0.0424
-6 7 5 0.6013 0.0993
-6 7 6 2.1875 0.0336
-6 7 7 -1.8152 -0.0091
-6 7 8 0.6013 -0.0223
-6 7 9 -0.6490 -0.2641
-6 7 10 0.0920 0.3784
-6 8 1 -0.7424 0.8637
-6 8 2 0.4514 -0.1146
-6 8 3 1.7639 -0.2339
-6 8 4 -0.1262 0.0451
-6 8 5 -1.8514 0.0453
-6 8 6 2.0450 -0.0389
-6 8 7 -2.1085 -0.0237
-6 8 8 1.4311 0.1156
-6 8 9 -0.5657 -0.2304
-6 9 1 0.4269 0.7596
-6 9 2 2.3233 -0.1422
-6 9 3 -1.1418 -0.1997
-6 9 4 -0.7106 0.0202
-6 9 5 -0.4222 0.0628
-6 9 6 1.5377 0.0302
-6 9 7 -2.4606 0.1200
-6 9 8 1.4165 0.0002
-6 10 1 -0.6352 0.7306
-6 10 2 0.8069 -0.0726
-6 10 3 -0.4014 -0.1389
-6 10 4 0.5795 -0.0561
-6 10 5 1.9350 0.0407
-6 10 6 -0.1088 -0.0001
-6 10 7 -2.0539 0.0675
-6 11 1 1.8422 0.5511
-6 11 2 -1.1095 -0.1321
-6 11 3 -0.7690 -0.0639
-6 11 4 0.1399 0.0408
-6 11 5 1.5577 -0.0108
-6 11 6 -0.3450 -0.0283
-6 12 1 0.6564 0.5375
-6 12 2 -0.3702 -0.0626
-6 12 3 1.5566 -0.1225
-6 12 4 1.8723 0.1428
-6 12 5 -1.4456 -0.0414
-6 13 1 0.6475 0.4084
-6 13 2 0.7598 -0.0267
-6 13 3 -3.8911 -0.2740
-5 -14 1 2.6825 0.0082
-5 -14 2 -3.0087 -0.0497
-5 -13 1 0.2173 0.0760
-5 -13 2 -0.1020 0.0317
-5 -13 3 1.0956 0.0069
-5 -13 4 -2.1627 0.0563
-5 -12 1 -1.8614 0.1348
-5 -12 2 -1.9414 -0.0151
-5 -12 3 2.7255 -0.0983
-5 -12 4 -5.6134 0.0097
-5 -12 5 3.8146 0.0097
-5 -11 1 5.2064 0.1973
-5 -11 2 -2.8623 -0.0135
-5 -11 3 0.8889 -0.1352
-5 -11 4 -5.4795 0.1101
-5 -11 5 4.4466 0.1399
-5 -11 6 0.8082 -0.0729
-5 -11 7 1.8336 -0.2899
-5 -10 1 6.2882 0.2180
-5 -10 2 -3.2561 -0.0524
-5 -10 3 0.9465 -0.1674
-5 -10 4 -1.2496 0.0305
-5 -10 5 -1.6013 0.1798
-5 -10 6 1.7487 0.0589
-5 -10 7 2.4951 -0.2502
-5 -10 8 -4.8033 0.0490
-5 -9 1 4.5718 0.3584
-5 -9 2 0.8404 0.0064
-5 -9 3 -2.9599 -0.1899
-5 -9 4 0.8719 -0.0415
-5 -9 5 -3.2490 0.1384
-5 -9 6 5.8656 0.0506
-5 -9 7 -1.7337 -0.1229
-5 -9 8 2.1686 -0.1325
-5 -8 1 2.0176 0.3429
-5 -8 2 0.4882 -0.0367
-5 -8 3 -3.6415 -0.1788
-5 -8 4 3.8022 -0.0349
-5 -8 5 -4.7103 0.1039
-5 -8 6 7.2152 0.0623
-5 -8 7 -3.8100 0.0127
-5 -8 8 -0.2496 -0.1869
-5 -8 9 0.7766 0.1885
-5 -7 1 -0.5915 0.4528
-5 -7 2 -0.6874 0.0369
-5 -7 3 1.1348 -0.2172
-5 -7 4 4.4068 -0.0532
-5 -7 5 -7.3075 0.1261
-5 -7 6 1.4450 0.0519
-5 -7 7 2.6923 -0.0739
-5 -7 8 -2.5157 -0.0891
-5 -7 9 2.7428 0.1266
-5 -7 10 -4.0429 0.0143
-5 -6 1 1.2120 0.4817
-5 -6 2 -2.6920 0.0180
-5 -6 3 0.2904 -0.2305
-5 -6 4 0.5420 -0.0435
-5 -6 5 -2.5378 0.1278
-5 -6 6 -1.2930 0.0623
-5 -6 7 7.0124 -0.1010
-5 -6 8 -2.3742 -0.0145
-5 -6 9 0.1015 0.0066
-5 -6 10 -3.5022 0.1303
-5 -5 1 -0.5202 0.5704
-5 -5 2 0.6069 0.0391
-5 -5 3 3.3787 -0.2351
-5 -5 4 -2.2053 -0.0340
-5 -5 5 1.9272 0.1094
-5 -5 6 -1.5225 0.0336
-5 -5 7 0.0444 -0.0632
-5 -5 8 -0.1684 -0.0262
-5 -5 9 -1.1606 -0.0512
-5 -5 10 2.6562 0.1625
-5 -5 11 -2.6389 0.0419
-5 -4 1 -3.8294 0.5663
-5 -4 2 0.5758 -0.0456
-5 -4 3 3.4666 -0.2284
-5 -4 4 -2.2452 0.0063
-5 -4 5 -0.5397 0.1486
-5 -4 6 0.8461 0.0241
-5 -4 7 -4.5213 -0.0824
-5 -4 8 4.8461 -0.0518
-5 -4 9 0.4074 0.0504
-5 -4 10 1.3096 0.0036
-5 -4 11 -3.7917 0.1037
-5 -3 1 -6.2579 0.6802
-5 -3 2 -0.1196 -0.0360
-5 -3 3 1.2497 -0.3016
-5 -3 4 0.0389 -0.0048
-5 -3 5 -3.0559 0.1855
-5 -3 6 5.4511 0.0259
-5 -3 7 -3.4898 -0.0860
-5 -3 8 -0.1275 -0.0522
-5 -3 9 0.1150 0.0575
-5 -3 10 0.8811 -0.0839
-5 -3 11 0.5826 0.1245
-5 -2 1 -5.5072 0.6560
-5 -2 2 0.8271 -0.0329
-5 -2 3 2.5921 -0.2400
-5 -2 4 3.3995 -0.0124
-5 -2 5 -5.3622 0.1364
-5 -2 6 3.0128 0.0291
-5 -2 7 -0.2762 -0.0847
-5 -2 8 -5.3306 -0.0098
-5 -2 9 3.7456 0.0458
-5 -2 10 2.2632 -0.0071
-5 -2 11 -2.0414 -0.0497
-5 -2 12 -2.2121 0.1187
-5 -1 1 0.9699 0.7736
-5 -1 2 -2.0403 -0.0601
-5 -1 3 -3.7541 -0.2996
-5 -1 4 1.1808 0.0284
-5 -1 5 0.9826 0.1606
-5 -1 6 -1.5309 -0.0135
-5 -1 7 5.2467 -0.1087
-5 -1 8 -2.8162 0.0446
-5 -1 9 -0.8672 0.0260
-5 -1 10 -0.6357 0.0407
-5 -1 11 -0.4929 -0.0920
-5 -1 12 1.0129 0.0709
-5 0 1 3.0934 0.7786
-5 0 2 -2.0664 -0.0541
-5 0 3 -0.0509 -0.2983
-5 0 4 -0.5436 0.0051
-5 0 5 4.1658 0.1716
-5 0 6 -5.1930 0.0078
-5 0 7 4.9440 -0.1278
-5 0 8 -2.8514 0.0068
-5 0 9 -0.9589 0.0821
-5 0 10 2.1192 -0.0103
-5 0 11 -0.9896 -0.0328
-5 0 12 -0.3172 0.1043
-5 1 1 7.0580 0.8198
-5 1 2 0.1208 -0.0985
-5 1 3 -1.6636 -0.2972
-5 1 4 -2.3147 0.0525
-5 1 5 4.8044 0.1849
-5 1 6 -7.4002 -0.0192
-5 1 7 2.4445 -0.1170
-5 1 8 1.6733 -0.0378
-5 1 9 1.3606 0.1061
-5 1 10 0.2054 -0.0137
-5 1 11 -2.4756 -0.0167
-5 1 12 -0.3449 0.1012
-5 2 1 2.1399 0.8167
-5 2 2 -1.4071 -0.0676
-5 2 3 1.8098 -0.2752
-5 2 4 -1.3834 0.0172
-5 2 5 1.5238 0.1762
-5 2 6 -0.6479 -0.0266
-5 2 7 0.5118 -0.1032
-5 2 8 -0.2774 0.0212
-5 2 9 -0.0775 0.0381
-5 2 10 0.3697 -0.0511
-5 2 11 -1.9017 -0.0323
-5 2 12 -0.5021 0.1606
-5 3 1 2.4356 0.8668
-5 3 2 -3.9459 -0.1452
-5 3 3 1.7727 -0.3321
-5 3 4 -0.0783 0.0694
-5 3 5 0.6128 0.2086
-5 3 6 1.1827 -0.0028
-5 3 7 -2.6652 -0.1230
-5 3 8 0.4305 0.0029
-5 3 9 -1.1569 0.0393
-5 3 10 4.4472 0.0455
-5 3 11 -1.2982 -0.0932
-5 3 12 -2.7376 0.0748
-5 4 1 1.8150 0.8673
-5 4 2 -4.4107 -0.0409
-5 4 3 5.1852 -0.3074
-5 4 4 -0.1377 -0.0166
-5 4 5 -1.3385 0.1765
-5 4 6 -0.5360 0.0493
-5 4 7 -2.0520 -0.1052
-5 4 8 3.1195 -0.0483
-5 4 9 -0.7411 0.0401
-5 4 10 4.1083 0.0131
-5 4 11 -4.6620 -0.0626
-5 4 12 -2.0235 0.0911
-5 5 1 0.5512 0.8474
-5 5 2 -2.3489 -0.1295
-5 5 3 2.8201 -0.3256
-5 5 4 -3.6260 0.0315
-5 5 5 2.3488 0.1922
-5 5 6 2.4791 0.0167
-5 5 7 -2.4518 -0.0760
-5 5 8 -2.6871 -0.0675
-5 5 9 -0.3360 0.0713
-5 5 10 5.2379 0.0323
-5 5 11 -1.9515 0.0283
-5 6 1 1.0829 0.8415
-5 6 2 -1.2376 -0.0602
-5 6 3 0.0289 -0.2778
-5 6 4 -1.6383 0.0237
-5 6 5 0.1692 0.1703
-5 6 6 0.4348 -0.0275
-5 6 7 3.2406 -0.0856
-5 6 8 -2.0931 0.0042
-5 6 9 -0.2189 0.0561
-5 6 10 -0.2060 -0.1017
-5 6 11 -0.3247 0.1292
-5 7 1 2.0422 0.8467
-5 7 2 -0.9699 -0.1124
-5 7 3 -0.3799 -0.3199
-5 7 4 1.0681 0.0408
-5 7 5 -0.8329 0.1866
-5 7 6 -1.3116 0.0306
-5 7 7 2.1464 -0.1001
-5 7 8 -2.5206 -0.0333
-5 7 9 3.8391 0.0378
-5 7 10 -3.0661 -0.0358
-5 7 11 0.8803 0.0321
-5 8 1 2.2779 0.8325
-5 8 2 -1.3888 -0.0764
-5 8 3 -0.5766 -0.2862
-5 8 4 2.8303 0.0418
-5 8 5 0.3227 0.1295
-5 8 6 -3.7047 0.0162
-5 8 7 0.4014 -0.1061
-5 8 8 -0.1708 -0.0699
-5 8 9 4.9421 0.0855
-5 8 10 -4.6070 0.1921
-5 9 1 1.7508 0.7681
-5 9 2 -0.1399 -0.1501
-5 9 3 -0.7907 -0.2789
-5 9 4 -0.5995 0.0686
-5 9 5 -0.3658 0.1250
-5 9 6 1.0181 0.0015
-5 9 7 0.6591 -0.0119
-5 9 8 -3.1596 0.0524
-5 9 9 4.4648 -0.0633
-5 10 1 1.0306 0.7454
-5 10 2 -0.6907 -0.0257
-5 10 3 -2.1642 -0.1824
-5 10 4 1.8268 -0.0355
-5 10 5 -0.8461 0.0549
-5 10 6 0.9902 0.0364
-5 10 7 1.3915 -0.1251
-5 10 8 -3.4752 -0.0393
-5 10 9 0.9174 0.2149
-5 11 1 0.1495 0.6684
-5 11 2 1.6984 -0.0702
-5 11 3 -1.3597 -0.1510
-5 11 4 0.6972 -0.0311
-5 11 5 -1.8630 0.0533
-5 11 6 0.0173 0.0589
-5 11 7 1.1746 -0.0808
-5 11 8 0.2532 -0.0544
-5 12 1 -0.2080 0.5718
-5 12 2 0.4530 -0.0963
-5 12 3 3.1549 -0.0930
-5 12 4 -0.3203 0.0585
-5 12 5 -2.3419 0.0864
-5 12 6 -0.0687 -0.0559
-5 13 1 0.4976 0.5572
-5 13 2 -3.3281 -0.0860
-5 13 3 2.9326 -0.1950
-5 13 4 -3.0503 0.0402
-5 13 5 0.7652 0.1241
-5 14 1 -2.3305 0.4706
-5 14 2 -4.3938 0.0498
-4 -14 1 4.6887 -0.0934
-4 -14 2 -7.9084 0.1072
-4 -14 3 3.0098 0.1255
-4 -13 1 4.6436 -0.0567
-4 -13 2 -2.3574 0.1091
-4 -13 3 -1.7357 0.0984
-4 -13 4 3.6803 -0.1039
-4 -13 5 -2.2690 0.0255
-4 -12 1 1.2472 -0.0145
-4 -12 2 -0.4282 0.0255
-4 -12 3 -3.6585 -0.0405
-4 -12 4 4.2315 -0.0130
-4 -12 5 0.2987 0.0475
-4 -12 6 -3.4713 -0.1005
-4 -11 1 0.0135 -0.0514
-4 -11 2 2.7792 0.0639
-4 -11 3 -2.6148 -0.0795
-4 -11 4 2.0601 0.0212
-4 -11 5 3.2819 0.1450
-4 -11 6 -8.6687 -0.0600
-4 -11 7 8.2804 -0.0559
-4 -10 1 0.0820 -0.0009
-4 -10 2 1.2940 0.0569
-4 -10 3 -1.8565 -0.0873
-4 -10 4 1.2095 -0.0434
-4 -10 5 2.0914 0.0419
-4 -10 6 -10.2549 0.0460
-4 -10 7 10.7932 0.0423
-4 -10 8 -2.6043 -0.0135
-4 -9 1 -1.6849 0.0177
-4 -9 2 2.4830 0.1277
-4 -9 3 0.1685 -0.0702
-4 -9 4 0.6236 -0.0644
-4 -9 5 2.5120 0.0576
-4 -9 6 -8.7517 0.0450
-4 -9 7 5.4060 -0.0625
-4 -9 8 0.9227 -0.0341
-4 -9 9 2.9408 0.0278
-4 -8 1 -0.2584 0.0789
-4 -8 2 2.8059 0.0322
-4 -8 3 -0.0906 -0.1638
-4 -8 4 0.3956 -0.0254
-4 -8 5 2.3596 0.1171
-4 -8 6 -6.0656 0.0612
-4 -8 7 3.1121 -0.0636
-4 -8 8 -4.3489 -0.0308
-4 -8 9 3.4178 0.0561
-4 -8 10 4.3599 -0.0455
-4 -7 1 -3.2229 0.1209
-4 -7 2 1.1327 0.1033
-4 -7 3 -1.1540 -0.1188
-4 -7 4 2.6976 -0.0351
-4 -7 5 3.7824 0.0985
-4 -7 6 -6.3693 0.0337
-4 -7 7 3.0237 -0.0988
-4 -7 8 -5.4316 -0.0410
-4 -7 9 2.8768 0.0586
-4 -7 10 6.0338 0.0123
-4 -7 11 -7.2991 0.0762
-4 -6 1 -7.1675 0.1570
-4 -6 2 3.4442 -0.0029
-4 -6 3 -2.6156 -0.1538
-4 -6 4 -2.5685 0.0196
-4 -6 5 4.2460 0.1321
-4 -6 6 -1.2214 0.0044
-4 -6 7 2.7031 -0.0818
-4 -6 8 -2.6489 -0.0162
-4 -6 9 -0.4172 -0.0072
-4 -6 10 4.4796 0.0367
-4 -6 11 -7.5909 0.0870
-4 -5 1 -7.7057 0.1790
-4 -5 2 2.9721 0.0498
-4 -5 3 1.8385 -0.1436
-4 -5 4 -3.4527 -0.0085
-4 -5 5 2.1594 0.1493
-4 -5 6 1.6876 -0.0109
-4 -5 7 -1.8673 -0.0984
-4 -5 8 -0.4501 0.0027
-4 -5 9 -1.1464 0.0180
-4 -5 10 3.9317 -0.0100
-4 -5 11 -4.1948 0.0579
-4 -5 12 1.9082 0.0377
-4 -4 1 0.0211 0.2687
-4 -4 2 -4.0590 0.0059
-4 -4 3 0.0430 -0.1915
-4 -4 4 -0.1015 -0.0026
-4 -4 5 -0.1370 0.1387
-4 -4 6 1.3639 0.0227
-4 -4 7 -1.5775 -0.0854
-4 -4 8 0.0859 -0.0323
-4 -4 9 2.0596 0.0874
-4 -4 10 1.9449 -0.0398
-4 -4 11 -4.4113 -0.0507
-4 -4 12 1.2911 0.1240
-4 -3 1 6.6997 0.2840
-4 -3 2 -2.8627 0.0548
-4 -3 3 -0.8608 -0.2068
-4 -3 4 2.6816 -0.0072
-4 -3 5 -1.7384 0.1650
-4 -3 6 -1.1468 0.0169
-4 -3 7 2.6247 -0.1240
-4 -3 8 -1.3676 -0.0187
-4 -3 9 -1.3404 0.0901
-4 -3 10 0.7996 -0.0220
-4 -3 11 1.5565 -0.0789
-4 -3 12 -0.3209 0.1070
-4 -2 1 3.1028 0.3969
-4 -2 2 -2.9196 -0.0050
-4 -2 3 -0.5629 -0.2229
-4 -2 4 5.4955 0.0243
-4 -2 5 -0.9767 0.1474
-4 -2 6 -3.8299 -0.0125
-4 -2 7 2.9294 -0.1340
-4 -2 8 -0.3039 0.0079
-4 -2 9 -2.4637 0.1092
-4 -2 10 0.7483 0.0634
-4 -2 11 4.0697 -0.1477
-4 -2 12 -1.6236 -0.0774
-4 -2 13 -5.7674 0.1933
-4 -1 1 5.0004 0.4249
-4 -1 2 -3.1448 0.0303
-4 -1 3 -3.6431 -0.2493
-4 -1 4 0.9493 -0.0087
-4 -1 5 1.5855 0.1890
-4 -1 6 -1.0469 0.0061
-4 -1 7 0.3872 -0.1350
-4 -1 8 1.8199 -0.0112
-4 -1 9 0.5758 0.0767
-4 -1 10 -4.5974 0.0474
-4 -1 11 1.2516 -0.0524
-4 -1 12 5.9571 -0.1011
-4 -1 13 -6.6187 0.1326
-4 0 1 5.0264 0.4936
-4 0 2 -5.6238 0.0215
-4 0 3 -0.2846 -0.2335
-4 0 4 5.0764 -0.0052
-4 0 5 0.9916 0.1595
-4 0 6 -3.1843 -0.0053
-4 0 7 1.1361 -0.1385
-4 0 8 -2.8296 -0.0397
-4 0 9 1.5449 0.1442
-4 0 10 -0.9196 0.0099
-4 0 11 0.7477 -0.0593
-4 0 12 6.0592 -0.0066
-4 0 13 -7.0171 0.0655
-4 1 1 5.7114 0.5212
-4 1 2 -1.8442 -0.0023
-4 1 3 -1.6445 -0.2791
-4 1 4 0.3891 0.0173
-4 1 5 1.5994 0.1954
-4 1 6 -3.3297 0.0146
-4 1 7 2.4301 -0.1215
-4 1 8 -2.2591 -0.0597
-4 1 9 2.5179 0.1009
-4 1 10 -1.1666 0.0521
-4 1 11 -1.0712 -0.0872
-4 1 12 2.9510 -0.0646
-4 1 13 -1.7411 0.1256
-4 2 1 2.8433 0.5705
-4 2 2 -4.4226 -0.0080
-4 2 3 0.7097 -0.2471
-4 2 4 0.1263 -0.0059
-4 2 5 -0.4770 0.1587
-4 2 6 -0.1235 0.0305
-4 2 7 5.2791 -0.1422
-4 2 8 -2.1397 -0.0177
-4 2 9 -1.8963 0.0729
-4 2 10 -2.2448 0.0345
-4 2 11 -0.3784 -0.0644
-4 2 12 2.6139 -0.0517
-4 2 13 2.0585 0.1609
-4 3 1 4.0287 0.6262
-4 3 2 -4.3737 0.0044
-4 3 3 1.8676 -0.3014
-4 3 4 -1.5110 -0.0021
-4 3 5 -0.1943 0.1726
-4 3 6 -0.7541 0.0164
-4 3 7 2.1022 -0.1149
-4 3 8 -0.2534 -0.0106
-4 3 9 -1.5200 0.0619
-4 3 10 1.8713 0.0892
-4 3 11 -0.8338 -0.0287
-4 3 12 -0.4104 -0.1594
-4 3 13 0.8080 0.0800
-4 4 1 2.9929 0.6128
-4 4 2 -3.4023 0.0118
-4 4 3 4.1599 -0.2241
-4 4 4 -0.1976 -0.0398
-4 4 5 1.7235 0.1300
-4 4 6 -4.6874 0.0420
-4 4 7 1.1876 -0.1242
-4 4 8 1.2768 -0.0767
-4 4 9 -2.0431 0.1327
-4 4 10 3.5638 0.0715
-4 4 11 -1.4736 -0.1161
-4 4 12 -1.5211 -0.0590
-4 5 1 2.7552 0.6674
-4 5 2 -2.1229 -0.0121
-4 5 3 1.8123 -0.3020
-4 5 4 -4.1059 -0.0208
-4 5 5 2.5182 0.2009
-4 5 6 -0.9178 0.0295
-4 5 7 2.6157 -0.1208
-4 5 8 -0.2415 -0.0653
-4 5 9 -3.5545 0.0585
-4 5 10 -0.1513 0.1019
-4 5 11 2.5122 -0.0170
-4 5 12 0.7408 -0.0430
-4 6 1 -0.0897 0.6266
-4 6 2 -0.8818 -0.0254
-4 6 3 -0.1503 -0.2122
-4 6 4 0.2346 -0.0185
-4 6 5 0.6596 0.1280
-4 6 6 -1.6333 0.0380
-4 6 7 1.2351 -0.0850
-4 6 8 1.7764 -0.0106
-4 6 9 0.0915 -0.0087
-4 6 10 -4.2587 0.0126
-4 6 11 3.2659 -0.0389
-4 6 12 -1.8152 0.1061
-4 7 1 -0.0360 0.6823
-4 7 2 1.5333 0.0133
-4 7 3 -1.6646 -0.2842
-4 7 4 2.6432 -0.0401
-4 7 5 -1.3516 0.1491
-4 7 6 0.6803 0.0252
-4 7 7 0.0714 -0.0716
-4 7 8 -2.7644 0.0258
-4 7 9 1.5302 0.0553
-4 7 10 -0.4625 -0.0332
-4 7 11 3.4386 -0.2212
-4 8 1 -1.7418 0.6536
-4 8 2 1.3437 0.0231
-4 8 3 -1.0031 -0.2531
-4 8 4 1.2829 -0.0573
-4 8 5 0.0573 0.1167
-4 8 6 -0.0459 0.0119
-4 8 7 0.1156 -0.0136
-4 8 8 -0.7495 -0.0819
-4 8 9 0.1586 0.0876
-4 8 10 -1.4151 0.1692
-4 8 11 2.6695 -0.3688
-4 9 1 -0.5051 0.6129
-4 9 2 0.4028 -0.0186
-4 9 3 1.0745 -0.2535
-4 9 4 -2.4891 -0.0212
-4 9 5 -1.1000 0.1415
-4 9 6 1.6760 0.0108
-4 9 7 2.8764 -0.0248
-4 9 8 -0.8362 -0.0493
-4 9 9 -1.6462 0.0930
-4 9 10 -1.9120 0.0908
-4 10 1 1.5236 0.5799
-4 10 2 -1.1907 -0.0332
-4 10 3 0.1300 -0.1634
-4 10 4 -0.5974 0.0283
-4 10 5 -0.3254 0.0427
-4 10 6 1.5974 0.0311
-4 10 7 0.2112 -0.0804
-4 10 8 -1.1953 -0.0945
-4 10 9 1.8747 0.1050
-4 10 10 -3.0361 0.0798
-4 11 1 -1.8268 0.5825
-4 11 2 -0.7687 -0.0045
-4 11 3 2.4318 -0.2189
-4 11 4 1.0470 -0.0381
-4 11 5 -4.0054 0.0309
-4 11 6 1.8848 0.1299
-4 11 7 0.2367 -0.0117
-4 11 8 -2.2965 -0.0816
-4 11 9 4.6806 0.1448
-4 12 1 -2.8111 0.5220
-4 12 2 0.0241 -0.0258
-4 12 3 2.3905 -0.1834
-4 12 4 2.9581 -0.0464
-4 12 5 -5.2023 0.0623
-4 12 6 -0.4007 0.0719
-4 12 7 2.8117 0.0689
-4 12 8 -1.8305 -0.2271
-4 13 1 -4.1282 0.4438
-4 13 2 0.8869 0.0048
-4 13 3 -0.1599 -0.0398
-4 13 4 0.9791 -0.0166
-4 13 5 -1.8095 -0.0117
-4 13 6 -0.2499 -0.1965
-4 14 1 -7.6511 0.3364
-4 14 2 1.3418 0.0064
-4 14 3 2.1470 0.0011
-4 14 4 3.2621 -0.0236
-3 -15 1 2.4965 -0.1044
-3 -14 1 9.2279 -0.2280
-3 -14 2 -0.7242 0.0599
-3 -14 3 -5.6481 0.0426
-3 -14 4 5.5146 0.0194
-3 -13 1 3.1777 -0.2213
-3 -13 2 1.4066 0.0991
-3 -13 3 -2.8868 -0.0403
-3 -13 4 2.8245 -0.0322
-3 -13 5 -3.2370 0.0798
-3 -12 1 0.3706 -0.2333
-3 -12 2 1.4738 0.0742
-3 -12 3 -1.9755 -0.0477
-3 -12 4 0.5106 -0.0094
-3 -12 5 2.6367 0.0223
-3 -12 6 -3.6596 -0.0377
-3 -12 7 2.8509 0.0710
-3 -11 1 -1.8499 -0.2744
-3 -11 2 1.9965 0.1012
-3 -11 3 0.6737 0.0314
-3 -11 5 4.4001 0.0041
-3 -11 6 1.6245 0.0891
-3 -11 8 -0.3156 -0.2544
-3 -10 1 -0.1833 -0.2488
-3 -10 2 1.0557 0.1294
-3 -10 3 1.0573 0.0285
-3 -10 4 -6.1474 -0.0658
-3 -10 5 -0.6540 -0.0108
-3 -10 6 7.6291 0.0636
-3 -10 7 -4.2691 -0.0191
-3 -10 8 0.6578 -0.1178
-3 -10 9 -0.6310 0.1318
-3 -9 1 -1.1938 -0.2869
-3 -9 2 -2.3020 0.1066
-3 -9 3 2.9916 0.0441
-3 -9 4 -3.5906 -0.0545
-3 -9 5 -1.0394 0.0426
-3 -9 6 8.2255 0.0312
-3 -9 7 -2.6876 -0.1101
-3 -9 8 -2.4078 -0.0528
-3 -9 9 -3.5445 0.1093
-3 -9 10 6.9370 0.0289
-3 -8 1 0.5726 -0.2307
-3 -8 2 -3.1586 0.1228
-3 -8 3 7.4928 -0.0538
-3 -8 4 -4.6395 -0.0603
-3 -8 5 -3.4270 0.0897
-3 -8 6 2.0942 0.0081
-3 -8 7 3.1605 -0.0804
-3 -8 8 -0.2827 0.0172
-3 -8 9 -6.9008 0.0977
-3 -8 10 5.1911 -0.0079
-3 -8 11 -1.2530 -0.0094
-3 -7 1 0.6181 -0.2671
-3 -7 2 -6.7786 0.1390
-3 -7 3 7.7084 0.0220
-3 -7 4 -3.9138 -0.0302
-3 -7 5 1.0609 0.0609
-3 -7 6 -0.6979 -0.0057
-3 -7 7 0.6296 -0.1134
-3 -7 8 2.5387 -0.0458
-3 -7 9 -1.6397 0.0991
-3 -7 10 -0.7499 0.0523
-3 -7 11 -2.1600 0.0403
-3 -6 1 -1.0266 -0.2208
-3 -6 2 -6.5999 0.1344
-3 -6 3 10.2753 -0.0791
-3 -6 4 -3.8521 -0.0651
-3 -6 5 -1.7643 0.0976
-3 -6 6 1.3251 0.0527
-3 -6 7 -1.1947 -0.0791
-3 -6 8 0.4051 -0.0417
-3 -6 9 1.4229 0.0515
-3 -6 10 0.0041 0.0298
-3 -6 11 2.0172 0.0232
-3 -6 12 -6.7383 -0.0274
-3 -5 1 2.1440 -0.1686
-3 -5 2 -7.8982 0.1627
-3 -5 3 9.2666 -0.0618
-3 -5 4 0.5110 -0.0988
-3 -5 5 -3.7478 0.0831
-3 -5 6 1.4977 0.0694
-3 -5 7 -0.5682 -0.1106
-3 -5 8 -1.0097 -0.0310
-3 -5 9 -1.4444 0.1058
-3 -5 10 0.4424 0.0134
-3 -5 11 6.7431 -0.1047
-3 -5 12 -7.2845 0.1044
-3 -4 1 11.0672 -0.0533
-3 -4 2 -10.1214 0.1631
-3 -4 3 0.4476 -0.1574
-3 -4 4 2.8386 -0.0798
-3 -4 5 -2.6292 0.1185
-3 -4 6 0.9770 0.0417
-3 -4 7 3.2316 -0.1005
-3 -4 8 -0.4597 -0.0212
-3 -4 9 -4.9313 0.1188
-3 -4 10 0.4381 0.0389
-3 -4 11 6.4873 -0.1673
-3 -4 12 -5.1390 0.0454
-3 -4 13 0.8010 0.0233
-3 -3 1 9.2212 -0.0592
-3 -3 2 -2.0389 0.1156
-3 -3 3 3.2501 -0.1434
-3 -3 4 3.0854 -0.0895
-3 -3 5 -5.3907 0.1502
-3 -3 6 -0.6753 0.0664
-3 -3 7 1.4053 -0.1363
-3 -3 8 2.4998 -0.0380
-3 -3 9 -2.8588 0.1190
-3 -3 10 -1.5288 0.0363
-3 -3 11 3.7793 -0.0936
-3 -3 12 -2.4106 -0.0440
-3 -3 13 -0.6538 0.1044
-3 -2 1 -0.5927 0.0934
-3 -2 2 -2.6718 0.1646
-3 -2 3 3.2786 -0.1845
-3 -2 4 3.0402 -0.0995
-3 -2 5 -7.6454 0.1354
-3 -2 6 2.1731 0.0432
-3 -2 7 -0.7179 -0.1188
-3 -2 8 6.1951 -0.0425
-3 -2 9 -1.5047 0.1154
-3 -2 10 -3.4131 0.0774
-3 -2 11 0.6294 -0.0661
-3 -2 12 0.0392 -0.1161
-3 -2 13 -0.0946 0.1710
-3 -1 1 0.2774 -0.0240
-3 -1 2 -3.3304 0.1009
-3 -1 3 3.8550 -0.1465
-3 -1 4 4.8335 -0.0909
-3 -1 5 -11.0438 0.1450
-3 -1 6 4.3845 0.0872
-3 -1 7 -2.2483 -0.0917
-3 -1 8 4.1574 -0.0649
-3 -1 9 -0.4379 0.0611
-3 -1 10 0.0245 0.0361
-3 -1 11 -1.9680 -0.0553
-3 -1 12 1.1390 -0.0237
-3 -1 13 -0.0806 0.1665
-3 0 1 0.7612 0.1339
-3 0 2 -7.3703 0.1620
-3 0 3 -1.3564 -0.1871
-3 0 4 15.3001 -0.0869
-3 0 5 -5.1884 0.1281
-3 0 6 -4.3099 0.0606
-3 0 7 -3.0220 -0.1156
-3 0 8 5.0549 -0.0765
-3 0 9 -1.4921 0.1036
-3 0 10 1.0820 0.0876
-3 0 11 -0.7251 -0.0886
-3 0 12 2.0376 -0.0555
-3 0 13 -2.9650 0.1239
-3 0 14 0.9006 -0.0768
-3 1 1 -0.5380 0.0630
-3 1 2 -2.8603 0.1046
-3 1 3 -6.0818 -0.2215
-3 1 4 8.8447 -0.0882
-3 1 5 -0.0043 0.1751
-3 1 6 -4.1403 0.0832
-3 1 7 -3.1708 -0.0967
-3 1 8 5.0999 -0.0354
-3 1 9 0.0201 0.0518
-3 1 10 -0.2712 0.0589
-3 1 11 -1.0426 -0.0254
-3 1 12 0.9883 -0.1350
-3 1 13 -1.3919 -0.0293
-3 1 14 -0.2826 0.1552
-3 2 1 -3.3940 0.2168
-3 2 2 -2.2259 0.0827
-3 2 3 -6.9300 -0.2014
-3 2 4 4.3846 -0.0552
-3 2 5 3.6817 0.1624
-3 2 6 -0.8350 0.0733
-3 2 7 -2.4379 -0.1403
-3 2 8 3.1400 -0.0982
-3 2 9 -1.8605 0.0912
-3 2 10 -0.3380 0.0726
-3 2 11 -0.7719 -0.0404
-3 2 12 0.1922 0.0151
-3 2 13 3.8739 0.0143
-3 2 14 -4.3547 -0.1263
-3 3 1 -1.3133 0.1524
-3 3 2 -1.8710 0.0975
-3 3 3 -3.0252 -0.2082
-3 3 4 -0.5789 -0.0812
-3 3 5 3.1185 0.1789
-3 3 6 0.9366 0.0604
-3 3 7 -3.5189 -0.0908
-3 3 8 0.9653 -0.0617
-3 3 9 -0.5740 0.0355
-3 3 10 2.1705 0.0771
-3 3 11 -0.6231 0.0205
-3 3 12 -0.6046 -0.0593
-3 3 13 3.4210 0.0304
-3 4 1 -0.1395 0.3122
-3 4 2 -1.6823 0.0470
-3 4 3 1.4267 -0.2099
-3 4 4 -0.8250 -0.0391
-3 4 5 2.7698 0.1132
-3 4 6 -1.4400 0.0781
-3 4 7 -0.6328 -0.0448
-3 4 8 0.3298 -0.1124
-3 4 9 -0.8540 0.0194
-3 4 10 1.8612 0.0559
-3 4 11 -2.1812 -0.0192
-3 4 12 -0.5693 -0.0916
-3 4 13 3.8096 0.2335
-3 5 1 4.7834 0.2150
-3 5 2 -0.6641 0.0904
-3 5 3 0.5402 -0.2360
-3 5 4 -3.6292 -0.0703
-3 5 5 -0.3898 0.1886
-3 5 6 -0.8950 0.0880
-3 5 7 2.7978 -0.1181
-3 5 8 -0.0420 -0.0419
-3 5 9 1.3407 0.0571
-3 5 10 0.6367 -0.0189
-3 5 11 -4.2558 0.0286
-3 5 12 -1.5215 -0.0550
-3 5 13 5.0468 0.1375
-3 6 1 0.0359 0.3360
-3 6 2 -1.0771 -0.0028
-3 6 3 -0.8232 -0.2129
-3 6 4 1.8015 -0.0148
-3 6 5 0.6337 0.1407
-3 6 6 -0.7779 0.0678
-3 6 7 -1.1503 -0.0844
-3 6 8 -0.7928 -0.0613
-3 6 9 2.6363 -0.0084
-3 6 10 0.6574 0.0641
-3 6 11 -1.0925 0.0298
-3 6 12 -2.0192 -0.0813
-3 6 13 0.7895 0.0111
-3 7 1 -0.9147 0.2816
-3 7 2 2.4192 0.0528
-3 7 3 -3.0226 -0.1970
-3 7 4 3.7820 -0.0489
-3 7 5 -1.0191 0.1580
-3 7 6 -0.1682 0.0623
-3 7 7 -0.0800 -0.0973
-3 7 8 -1.9302 -0.0441
-3 7 9 -0.9366 -0.0055
-3 7 10 3.2400 0.1003
-3 7 11 0.5850 -0.0266
-3 7 12 -0.8447 0.0169
-3 8 1 -0.9066 0.4023
-3 8 2 1.3212 0.0058
-3 8 3 -3.2164 -0.2241
-3 8 4 2.7379 -0.0221
-3 8 5 0.1023 0.1159
-3 8 6 -1.6953 0.0258
-3 8 7 -0.0150 -0.0255
-3 8 8 1.2277 -0.0251
-3 8 9 0.1763 -0.0542
-3 8 10 0.6992 0.0481
-3 8 11 -2.9436 -0.0066
-3 8 12 1.4915 0.1357
-3 9 1 0.3517 0.3098
-3 9 2 0.2740 0.0152
-3 9 3 -0.5163 -0.1991
-3 9 4 0.0493 -0.0230
-3 9 5 -0.1529 0.1412
-3 9 6 -1.8818 0.0579
-3 9 7 1.5255 -0.0317
-3 9 8 1.3623 -0.1075
-3 9 9 -0.4036 -0.0066
-3 9 10 -0.7494 0.0799
-3 9 11 -0.1516 -0.0116
-3 10 1 0.4477 0.3623
-3 10 2 -1.3893 -0.0317
-3 10 3 1.1509 -0.1525
-3 10 4 0.2242 0.0143
-3 10 5 0.9210 0.1073
-3 10 6 -0.1807 0.0214
-3 10 7 -1.2905 -0.0126
-3 10 8 -0.7113 -0.0935
-3 10 9 2.0873 -0.0957
-3 10 10 -1.3829 0.0254
-3 11 1 -1.3326 0.2917
-3 11 2 -3.3328 -0.0132
-3 11 3 2.9736 -0.0986
-3 11 4 1.0229 -0.0220
-3 11 5 -1.0139 0.0256
-3 11 6 0.7320 0.0390
-3 11 7 -1.8078 0.0413
-3 11 8 -0.2587 0.0374
-3 11 9 1.8974 -0.0501
-3 11 10 -0.2026 -0.2448
-3 12 1 2.0663 0.4132
-3 12 2 -2.1134 -0.0295
-3 12 3 1.3488 -0.2092
-3 12 4 -1.0631 -0.0469
-3 12 5 -0.1586 0.0317
-3 12 6 1.9253 0.1121
-3 12 7 -2.0778 0.0870
-3 12 8 2.3492 -0.1160
-3 12 9 -1.7820 -0.0179
-3 13 1 5.2226 0.2970
-3 13 2 -3.6960 0.0360
-3 13 3 1.4365 -0.0981
-3 13 4 -3.0032 0.0140
-3 13 5 -2.4997 0.0360
-3 13 6 5.9199 -0.0638
-3 13 7 -1.1059 0.0645
-3 14 1 6.6689 0.1865
-3 14 2 -4.5236 0.0436
-3 14 3 1.7335 0.0588
-3 14 4 1.1046 -0.0484
-3 14 5 -4.2485 -0.0849
-3 14 6 3.0337 -0.1006
-3 15 1 9.7688 0.0426
-3 15 2 0.0869 0.0256
-2 -15 1 -4.5029 -0.2925
-2 -15 2 -3.3306 -0.0693
-2 -14 1 3.6597 -0.4602
-2 -14 2 -7.0869 0.0135
-2 -14 3 3.0410 0.1568
-2 -14 4 2.1038 0.0584
-2 -14 5 -2.8518 0.0781
-2 -13 1 3.7441 -0.3608
-2 -13 2 -12.8139 0.1626
-2 -13 3 5.0433 0.0180
-2 -13 4 4.6957 -0.1606
-2 -13 5 -9.6518 0.0273
-2 -13 6 6.9453 0.0811
-2 -13 7 -1.8734 0.0984
-2 -12 1 6.6489 -0.4629
-2 -12 2 -6.5997 0.1633
-2 -12 3 1.4261 0.0440
-2 -12 4 3.5957 -0.1086
-2 -12 5 -4.6979 0.0112
-2 -12 6 3.4053 0.0859
-2 -12 7 0.4431 0.0215
-2 -12 8 -0.9309 -0.2087
-2 -11 1 4.0627 -0.4495
-2 -11 2 -1.3327 0.1310
-2 -11 3 0.6710 0.0871
-2 -11 4 0.0610 -0.0484
-2 -11 5 1.2806 -0.0490
-2 -11 6 -3.7334 0.0694
-2 -11 7 -0.4570 0.0456
-2 -11 8 3.9153 -0.1604
-2 -11 9 -0.9972 0.1127
-2 -10 1 -1.1379 -0.5486
-2 -10 2 -0.0850 0.1449
-2 -10 3 2.0982 0.0806
-2 -10 4 -0.2838 -0.0562
-2 -10 5 2.5845 0.0001
-2 -10 6 -6.2195 0.0151
-2 -10 7 -3.5232 -0.0064
-2 -10 8 9.4653 0.0303
-2 -10 9 -2.7339 0.0164
-2 -10 10 2.7546 -0.1091
-2 -9 1 -3.4654 -0.4684
-2 -9 2 -0.8533 0.1428
-2 -9 3 -2.4048 0.0586
-2 -9 4 2.2742 -0.0683
-2 -9 5 3.4278 -0.0056
-2 -9 6 2.3429 0.0394
-2 -9 7 -6.2288 -0.0373
-2 -9 8 2.9790 -0.0079
-2 -9 9 -6.1123 0.0124
-2 -9 10 7.4760 -0.0061
-2 -9 11 -2.4587 0.0385
-2 -8 1 -0.9552 -0.5885
-2 -8 2 3.2931 0.1763
-2 -8 3 -4.0029 0.0683
-2 -8 4 5.1471 -0.0897
-2 -8 5 -6.0165 -0.0040
-2 -8 6 3.0405 0.0880
-2 -8 7 -1.0017 0.0026
-2 -8 8 -0.3841 -0.0474
-2 -8 9 -2.3588 0.0184
-2 -8 10 5.0940 0.0284
-2 -8 11 -1.3256 -0.0675
-2 -8 12 -1.2954 0.0470
-2 -7 1 0.4029 -0.4941
-2 -7 2 5.9806 0.1249
-2 -7 3 -8.4639 0.0631
-2 -7 4 5.0198 -0.0525
-2 -7 5 -7.2641 -0.0003
-2 -7 6 4.7305 0.1024
-2 -7 7 4.6179 -0.0247
-2 -7 8 -3.6884 -0.1338
-2 -7 9 1.9681 0.0165
-2 -7 10 -1.2462 0.0861
-2 -7 11 -1.7872 -0.0855
-2 -7 12 -0.6974 0.0180
-2 -6 1 0.4671 -0.6083
-2 -6 2 8.2522 0.1663
-2 -6 3 -7.4636 0.0467
-2 -6 4 8.0336 -0.1369
-2 -6 5 -7.9533 0.0388
-2 -6 6 -1.6984 0.1296
-2 -6 7 5.7115 -0.0251
-2 -6 8 -2.5550 -0.0673
-2 -6 9 -0.6069 0.0321
-2 -6 10 2.2555 0.0417
-2 -6 11 -1.0425 -0.0852
-2 -6 12 2.9359 -0.0471
-2 -6 13 -2.6457 0.1761
-2 -5 1 -4.8955 -0.4958
-2 -5 2 11.6036 0.1530
-2 -5 3 -9.0883 0.0731
-2 -5 4 6.2687 -0.1182
-2 -5 5 -2.4376 0.0261
-2 -5 6 -2.9152 0.1123
-2 -5 7 0.6010 -0.0592
-2 -5 8 3.9559 -0.1000
-2 -5 9 -3.1046 0.0632
-2 -5 10 4.3254 0.0547
-2 -5 11 -8.8809 -0.0708
-2 -5 12 6.4282 -0.0508
-2 -5 13 -0.0531 0.1785
-2 -4 1 -15.0327 -0.6129
-2 -4 2 15.6032 0.1878
-2 -4 3 -8.7272 0.0449
-2 -4 4 -1.1765 -0.1251
-2 -4 5 1.4460 0.0791
-2 -4 6 1.9536 0.1130
-2 -4 7 -2.7914 -0.0546
-2 -4 8 6.4051 -0.1027
-2 -4 9 -5.7454 0.0337
-2 -4 10 2.9646 0.0649
-2 -4 11 -7.1098 -0.0331
-2 -4 12 7.6064 -0.0910
-2 -4 13 -0.5193 0.1636
-2 -3 1 -28.4517 -0.4921
-2 -3 2 11.9894 0.1692
-2 -3 3 4.6076 0.0381
-2 -3 4 0.1954 -0.1170
-2 -3 5 -2.2524 0.0312
-2 -3 6 1.4788 0.1364
-2 -3 7 -4.0433 -0.0345
-2 -3 8 1.9315 -0.1282
-2 -3 9 -1.0374 0.0280
-2 -3 10 3.0543 0.0824
-2 -3 11 -3.2551 -0.0325
-2 -3 12 2.0504 -0.1092
-2 -3 13 0.1115 0.1416
-2 -3 14 -2.4576 -0.0142
-2 -2 1 -22.1384 -0.5949
-2 -2 2 -1.2549 0.2981
-2 -2 3 1.2646 0.0667
-2 -2 4 -0.0258 -0.1337
-2 -2 5 -1.2470 0.0380
-2 -2 6 0.0825 0.1086
-2 -2 7 0.8132 -0.0501
-2 -2 8 3.7994 -0.1126
-2 -2 9 -0.9731 0.0117
-2 -2 10 -2.4426 0.1157
-2 -2 11 -0.5685 -0.0106
-2 -2 12 -1.4896 -0.1182
-2 -2 13 4.3054 0.0710
-2 -2 14 -0.3430 0.1117
-2 -1 1 -5.4471 -0.5526
-2 -1 2 -1.9273 0.1454
-2 -1 3 1.1771 0.0284
-2 -1 4 1.8052 -0.1073
-2 -1 5 0.2649 0.0699
-2 -1 6 -2.1796 0.1480
-2 -1 7 0.9641 -0.0474
-2 -1 8 3.6392 -0.1125
-2 -1 9 -6.3058 0.0172
-2 -1 10 -3.2411 0.0715
-2 -1 11 8.8234 -0.0508
-2 -1 12 -1.4994 -0.0549
-2 -1 13 -2.9143 -0.0140
-2 -1 14 2.9139 0.1950
-2 0 1 -1.9215 -0.4262
-2 0 2 -1.8892 0.3191
-2 0 3 0.2379 0.0418
-2 0 4 2.0263 -0.1588
-2 0 5 3.0637 0.0284
-2 0 6 -1.5374 0.1137
-2 0 7 -4.1565 -0.0514
-2 0 8 5.2669 -0.1191
-2 0 9 -0.1594 0.0309
-2 0 10 -6.3267 0.1048
-2 0 11 5.1191 -0.0270
-2 0 12 1.0581 -0.0554
-2 0 13 -5.9106 -0.0083
-2 0 14 5.1360 0.1534
-2 1 1 -2.2701 -0.5107
-2 1 2 -0.1901 0.1574
-2 1 3 5.1512 0.0145
-2 1 4 0.1725 -0.1428
-2 1 5 -5.7734 0.0362
-2 1 6 1.4940 0.1158
-2 1 7 -0.3778 -0.0110
-2 1 8 1.8573 -0.0247
-2 1 9 3.2396 0.0239
-2 1 10 -4.5242 -0.0067
-2 1 11 -0.4218 0.0036
-2 1 12 2.3992 -0.0763
-2 1 13 -3.1257 -0.0549
-2 1 14 2.1244 0.1559
-2 2 1 -6.1090 -0.2592
-2 2 2 -1.1942 0.2774
-2 2 3 4.8705 -0.0164
-2 2 4 2.2682 -0.0985
-2 2 5 -4.3300 0.0404
-2 2 6 0.4072 0.0539
-2 2 7 1.1358 -0.0387
-2 2 8 1.6347 -0.0865
-2 2 9 -2.6288 0.0268
-2 2 10 1.2538 0.0565
-2 2 11 0.3495 -0.0470
-2 2 12 -1.2733 -0.0164
-2 2 13 0.7644 0.1345
-2 2 14 -0.5105 0.0495
-2 3 1 -3.0939 -0.4089
-2 3 2 -2.7431 0.1735
-2 3 3 5.8140 0.0297
-2 3 4 0.3980 -0.1325
-2 3 5 -1.4985 0.0368
-2 3 6 1.1147 0.0723
-2 3 7 -3.5958 -0.0672
-2 3 8 3.1193 -0.0305
-2 3 9 -4.1837 0.0699
-2 3 10 3.3654 0.0658
-2 3 11 0.5284 -0.0129
-2 3 12 -0.3492 -0.0723
-2 3 13 1.6823 -0.1126
-2 3 14 -3.6045 0.1428
-2 4 1 -0.6675 -0.1136
-2 4 2 -7.9585 0.2546
-2 4 3 8.5537 -0.0420
-2 4 4 0.6359 -0.0892
-2 4 5 -1.2396 0.0241
-2 4 6 1.9077 0.0514
-2 4 7 -4.7115 -0.0229
-2 4 8 4.2225 -0.0653
-2 4 9 -1.4773 -0.0112
-2 4 10 -0.7861 0.0826
-2 4 11 -1.5122 0.0042
-2 4 12 2.4875 -0.0816
-2 4 13 1.3031 -0.0818
-2 4 14 -1.9678 0.2147
-2 5 1 8.6480 -0.3224
-2 5 2 -7.7407 0.1232
-2 5 3 4.4054 -0.0052
-2 5 4 -0.4526 -0.1051
-2 5 5 -3.6799 0.0578
-2 5 6 1.5474 0.0882
-2 5 7 -0.4876 -0.0753
-2 5 8 0.8491 -0.0406
-2 5 9 1.9817 0.0770
-2 5 10 0.3386 -0.0028
-2 5 11 -3.3856 -0.0087
-2 5 12 0.1047 0.0472
-2 5 13 1.3550 -0.0598
-2 5 14 1.1023 -0.0665
-2 6 1 5.5580 -0.0155
-2 6 2 -7.1382 0.1929
-2 6 3 -1.0663 -0.0937
-2 6 4 3.9937 -0.0751
-2 6 5 0.4634 0.0781
-2 6 6 0.3524 0.0093
-2 6 7 -0.0494 -0.0521
-2 6 8 -1.6655 -0.0322
-2 6 9 -0.0139 0.0421
-2 6 10 0.4177 0.0140
-2 6 11 -1.9098 0.0109
-2 6 12 2.8292 -0.0400
-2 6 13 1.1887 0.0654
-2 7 1 2.5611 -0.2007
-2 7 2 0.5338 0.1264
-2 7 3 -3.5757 -0.0198
-2 7 4 3.5049 -0.0746
-2 7 5 -0.3825 0.0704
-2 7 6 -2.0846 0.0343
-2 7 7 1.3582 -0.0736
-2 7 8 1.1571 -0.0429
-2 7 9 -3.3774 0.0690
-2 7 10 3.0726 0.0708
-2 7 11 -1.8250 0.0130
-2 7 12 0.1906 -0.2049
-2 7 13 2.7163 0.1972
-2 8 1 1.6538 0.0448
-2 8 2 2.6458 0.1800
-2 8 3 -3.5577 -0.0896
-2 8 4 2.3687 -0.0616
-2 8 5 -1.0097 0.0359
-2 8 6 -1.4607 0.0097
-2 8 7 1.1974 -0.0558
-2 8 8 0.4218 0.0307
-2 8 9 -1.0047 0.0127
-2 8 10 4.6887 -0.0231
-2 8 11 -5.0567 0.0812
-2 8 12 -2.3407 -0.1267
-2 8 13 4.2284 0.0867
-2 9 1 -0.3433 -0.0777
-2 9 2 3.2965 0.0588
-2 9 3 -1.2970 -0.0872
-2 9 4 -0.8207 -0.0183
-2 9 5 -0.3792 0.0784
-2 9 6 -0.0985 0.0246
-2 9 7 2.0590 -0.0568
-2 9 8 -1.6746 0.0156
-2 9 9 -1.0767 -0.0189
-2 9 10 2.4319 0.0196
-2 9 11 -0.7014 -0.0129
-2 9 12 -0.8404 0.0620
-2 10 1 -0.8229 0.1386
-2 10 2 1.7551 0.0805
-2 10 3 -0.8670 -0.1412
-2 10 4 -1.5854 -0.0276
-2 10 5 2.4306 0.1080
-2 10 6 0.4819 -0.0088
-2 10 7 0.9304 -0.0568
-2 10 8 -2.4807 -0.0136
-2 10 9 -1.1108 0.0120
-2 10 10 0.9409 0.1711
-2 10 11 1.1651 -0.2984
-2 11 1 -0.1178 0.0394
-2 11 2 2.3817 0.0308
-2 11 3 -1.5623 -0.0358
-2 11 4 -1.7519 0.0233
-2 11 5 1.5738 0.0324
-2 11 6 0.1013 -0.0631
-2 11 7 0.8492 -0.0321
-2 11 8 -1.1285 -0.0345
-2 11 9 -1.8433 0.0532
-2 11 10 1.7097 0.3462
-2 12 1 -0.2947 0.1958
-2 12 2 6.3157 0.0828
-2 12 3 -1.9036 -0.1173
-2 12 4 -4.0429 -0.0239
-2 12 5 1.0996 -0.0171
-2 12 6 1.7046 0.0009
-2 12 7 1.0004 0.0832
-2 12 8 0.2817 -0.0527
-2 12 9 -2.3729 -0.1313
-2 13 1 -1.7463 0.0726
-2 13 2 2.2162 -0.0213
-2 13 3 0.6059 -0.0891
-2 13 4 -2.1499 0.0110
-2 13 5 -1.2838 0.1307
-2 13 6 1.4642 0.1282
-2 13 7 2.6803 -0.1379
-2 13 8 -1.7479 -0.2198
-2 14 1 -1.3955 0.2256
-2 14 2 0.2042 -0.0014
-2 14 3 1.8366 -0.0867
-2 14 4 -1.9735 -0.0700
-2 14 5 0.6707 0.0344
-2 14 6 0.0070 0.0706
-2 14 7 0.7268 -0.0030
-2 15 1 -0.2513 0.1864
-2 15 2 1.7128 0.1499
-2 15 3 2.3353 0.0062
-2 15 4 -4.4827 -0.2654
-1 -15 1 5.0117 -0.4080
-1 -15 2 -1.6016 0.1075
-1 -14 1 5.5843 -0.6276
-1 -14 2 7.3705 0.1302
-1 -14 4 3.9530 -0.0881
-1 -14 5 -3.4541 -0.0125
-1 -13 1 -2.6408 -0.5040
-1 -13 2 3.4147 0.1999
-1 -13 3 -5.5090 0.2135
-1 -13 4 4.5355 -0.1122
-1 -13 5 -2.0434 -0.1471
-1 -13 6 1.1154 0.0036
-1 -13 7 -1.5074 0.0200
-1 -12 1 -5.1400 -0.6544
-1 -12 2 3.5160 0.0777
-1 -12 3 -1.2578 0.1888
-1 -12 4 -0.4745 -0.0368
-1 -12 5 1.0149 -0.0508
-1 -12 6 5.8251 0.0629
-1 -12 7 -3.9627 -0.0471
-1 -12 8 -0.7985 -0.0137
-1 -12 9 -4.3200 0.0183
-1 -11 1 0.5283 -0.5927
-1 -11 2 1.3220 0.1815
-1 -11 3 -1.9432 0.1933
-1 -11 4 -1.9302 -0.0865
-1 -11 5 -1.7321 -0.0996
-1 -11 6 6.2024 0.0194
-1 -11 7 -2.5971 0.0627
-1 -11 8 0.6066 0.0511
-1 -11 9 -5.0804 -0.0432
-1 -11 10 6.6197 -0.1341
-1 -10 1 0.7739 -0.8043
-1 -10 2 2.3427 0.1604
-1 -10 3 -5.1297 0.2697
-1 -10 4 2.9906 -0.0911
-1 -10 5 -3.4268 -0.1192
-1 -10 6 2.8259 0.0123
-1 -10 7 0.5713 0.0563
-1 -10 8 3.5887 0.0338
-1 -10 10 5.8445 -0.0824
-1 -10 11 0.2700 0.0109
-1 -9 1 -3.7405 -0.6942
-1 -9 2 8.3887 0.2648
-1 -9 3 -8.0179 0.2225
-1 -9 4 0.7084 -0.0844
-1 -9 5 -0.6081 -0.1143
-1 -9 6 1.2573 0.0080
-1 -9 7 4.5553 0.0312
-1 -9 8 2.6916 -0.0606
-1 -9 9 -9.3959 0.0283
-1 -9 10 0.3527 0.0983
-1 -9 11 -1.0097 -0.0509
-1 -8 1 -5.6144 -0.9085
-1 -8 2 7.1635 0.1516
-1 -8 3 -0.7534 0.2210
-1 -8 4 -2.3709 -0.0885
-1 -8 5 3.7732 -0.0709
-1 -8 6 -8.3507 0.0782
-1 -8 7 4.2616 0.0366
-1 -8 8 0.8015 -0.0651
-1 -8 9 -0.1505 0.0049
-1 -8 10 1.5870 0.0878
-1 -8 11 -4.3744 -0.0758
-1 -8 12 4.0629 -0.0525
-1 -7 1 -4.7229 -0.7191
-1 -7 2 -3.9859 0.2749
-1 -7 3 8.4135 0.2047
-1 -7 4 -10.1547 -0.0955
-1 -7 5 8.8623 -0.1035
-1 -7 6 -5.6706 0.0356
-1 -7 7 4.6042 0.0241
-1 -7 8 -1.5236 -0.0663
-1 -7 9 2.8780 -0.0041
-1 -7 10 -1.1372 0.0804
-1 -7 11 -6.7063 -0.0025
-1 -7 12 3.7535 -0.1093
-1 -7 13 2.2563 0.1368
-1 -6 1 3.4199 -1.0001
-1 -6 2 -8.4589 0.1980
-1 -6 3 12.8326 0.2692
-1 -6 4 -10.1016 -0.1030
-1 -6 5 7.9376 -0.1128
-1 -6 6 -3.2892 0.0570
-1 -6 7 -1.6672 0.0186
-1 -6 8 1.0697 -0.0369
-1 -6 9 -2.0394 0.0505
-1 -6 10 -1.2301 0.0589
-1 -6 11 1.8738 0.0067
-1 -6 12 4.6189 -0.1444
-1 -6 13 -0.9738 0.0474
-1 -5 1 6.1728 -0.7460
-1 -5 2 -5.9058 0.2998
-1 -5 3 8.5522 0.2110
-1 -5 4 -9.2359 -0.0768
-1 -5 5 2.2073 -0.1352
-1 -5 6 5.4436 0.0325
-1 -5 7 -6.2482 0.0363
-1 -5 8 5.2223 -0.0921
-1 -5 9 -1.2473 0.0057
-1 -5 10 -0.8462 0.1138
-1 -5 11 -0.4990 0.0049
-1 -5 12 -1.2894 -0.0923
-1 -5 13 -1.6288 -0.0254
-1 -5 14 4.8989 0.1776
-1 -4 1 6.2615 -0.9834
-1 -4 2 -5.3050 0.1849
-1 -4 3 9.8526 0.2502
-1 -4 4 -5.0574 -0.1000
-1 -4 5 -5.5511 -0.1179
-1 -4 6 8.4877 0.0749
-1 -4 7 -5.9621 0.0404
-1 -4 8 4.3706 -0.0580
-1 -4 9 -0.2060 -0.0183
-1 -4 10 -4.3317 0.1091
-1 -4 11 3.7493 0.0083
-1 -4 12 1.7152 -0.0839
-1 -4 13 -4.8323 -0.1110
-1 -4 14 1.3432 0.2299
-1 -3 1 18.5352 -0.6998
-1 -3 2 -17.7748 0.2764
-1 -3 3 12.2612 0.2358
-1 -3 4 6.0080 -0.0943
-1 -3 5 -8.1822 -0.1475
-1 -3 6 1.5392 0.0328
-1 -3 7 -0.9707 0.0243
-1 -3 8 -2.3305 -0.0554
-1 -3 9 1.2189 0.0037
-1 -3 10 -2.0976 0.1135
-1 -3 11 8.7786 0.0015
-1 -3 12 -0.4778 -0.0995
-1 -3 13 -8.8499 -0.0496
-1 -3 14 2.3957 0.2009
-1 -2 1 37.9256 -1.0285
-1 -2 2 -18.9156 0.1580
-1 -2 3 -0.1687 0.3142
-1 -2 4 1.1143 -0.0858
-1 -2 5 -3.4230 -0.1142
-1 -2 6 -0.6155 0.0536
-1 -2 7 5.3115 0.0211
-1 -2 8 -3.0103 -0.0607
-1 -2 9 3.1464 -0.0064
-1 -2 10 -3.7875 0.0544
-1 -2 11 2.7076 0.0533
-1 -2 12 0.5866 -0.0703
-1 -2 13 -5.0377 -0.0340
-1 -2 14 5.8089 0.1801
-1 -2 15 -1.9118 -0.1868
-1 -1 1 24.3890 -0.8805
-1 -1 2 0.4258 0.1572
-1 -1 3 -0.1128 0.2570
-1 -1 4 -1.7891 -0.0696
-1 -1 5 -0.1395 -0.1244
-1 -1 6 -0.7030 0.0400
-1 -1 7 4.6984 0.0634
-1 -1 8 -4.2777 -0.0552
-1 -1 9 -0.5071 0.0069
-1 -1 10 -3.6389 0.0367
-1 -1 11 1.6090 0.0175
-1 -1 12 8.3558 -0.0574
-1 -1 13 -4.9569 -0.0852
-1 -1 14 -0.4604 0.0804
-1 -1 15 -0.6346 0.1056
-1 0 1 -0.6886 -1.0307
-1 0 2 9.5447 0.2409
-1 0 3 0.5451 0.3356
-1 0 4 -6.3581 -0.0456
-1 0 5 -3.2240 -0.1150
-1 0 6 4.0260 -0.0196
-1 0 7 3.6983 0.0117
-1 0 8 -4.2636 -0.0362
-1 0 9 1.6468 -0.0128
-1 0 10 1.6634 0.0681
-1 0 11 -2.7088 0.0318
-1 0 12 1.0374 -0.0441
-1 0 13 -1.8838 0.0126
-1 0 14 0.7890 -0.0248
-1 0 15 1.6920 0.0603
-1 1 1 -2.9464 -1.0288
-1 1 2 10.0026 -0.0257
-1 1 3 2.0422 0.2062
-1 1 4 -1.8609 -0.0057
-1 1 5 -9.8995 -0.0492
-1 1 6 0.8211 0.0567
-1 1 7 6.9035 -0.0152
-1 1 8 -1.2625 -0.0287
-1 1 9 -1.1887 0.0297
-1 1 10 0.6837 0.0520
-1 1 11 -0.3649 0.0132
-1 1 12 -1.9224 -0.0688
-1 1 13 3.4652 -0.0871
-1 1 14 -1.9885 -0.0548
-1 1 15 0.2375 0.2595
-1 2 1 0.9902 -0.9181
-1 2 2 1.1476 0.2470
-1 2 3 -0.1289 0.2051
-1 2 4 2.1232 -0.0257
-1 2 5 -4.5865 -0.0052
-1 2 6 -1.5935 0.0386
-1 2 7 2.9611 -0.0277
-1 2 8 4.2032 -0.0867
-1 2 9 -2.8159 -0.0442
-1 2 10 -3.3747 0.0686
-1 2 11 2.7354 0.0275
-1 2 12 -1.3310 -0.0340
-1 2 13 3.7750 0.0444
-1 2 14 -3.3974 0.0498
-1 2 15 0.0591 0.0237
-1 3 1 9.1741 -0.9164
-1 3 2 -2.4657 -0.0890
-1 3 3 0.1224 0.1687
-1 3 4 1.0391 0.0208
-1 3 5 -1.0086 -0.0379
-1 3 6 0.7212 0.0453
-1 3 7 -2.9824 -0.0153
-1 3 8 2.7071 -0.0585
-1 3 9 -0.4520 0.0679
-1 3 10 -0.5022 0.0551
-1 3 11 -0.3015 -0.0164
-1 3 12 -0.5106 0.0120
-1 3 13 2.1734 -0.1438
-1 3 14 -1.0789 -0.0752
-1 3 15 -0.2245 0.2105
-1 4 1 8.8613 -0.7868
-1 4 2 -7.3501 0.1839
-1 4 3 0.6806 0.1448
-1 4 4 2.0333 -0.0090
-1 4 5 -0.6886 0.0357
-1 4 6 1.2054 -0.0016
-1 4 7 -3.3975 -0.0401
-1 4 8 1.6937 -0.0284
-1 4 9 1.8964 0.0085
-1 4 10 -0.1769 0.0508
-1 4 11 -2.0803 -0.0296
-1 4 12 1.8916 -0.0979
-1 4 13 -2.4771 0.0228
-1 4 14 0.0376 0.1525
-1 4 15 1.8864 -0.0690
-1 5 1 6.3275 -0.7588
-1 5 2 -1.1007 -0.0967
-1 5 3 -0.1959 0.0959
-1 5 4 -1.3144 -0.0058
-1 5 5 -1.9313 0.0173
-1 5 6 -0.1711 0.0765
-1 5 7 1.7939 -0.0509
-1 5 8 1.0257 -0.0664
-1 5 9 -1.0501 0.0578
-1 5 10 -0.9199 0.0617
-1 5 11 2.1664 -0.0249
-1 5 12 0.7134 -0.0351
-1 5 13 -3.2007 0.0123
-1 5 14 -0.9008 0.1061
-1 6 1 -0.6019 -0.6365
-1 6 2 -0.2202 0.1763
-1 6 3 -1.9109 0.0996
-1 6 4 0.4802 -0.0304
-1 6 5 1.9896 0.0456
-1 6 6 -0.9052 0.0413
-1 6 7 1.5756 -0.0668
-1 6 8 0.5547 -0.0616
-1 6 9 -2.1230 0.0180
-1 6 10 -2.4403 0.0181
-1 6 11 2.1783 0.0286
-1 6 12 -0.3207 0.0323
-1 6 13 4.4857 -0.1543
-1 6 14 -4.8006 0.1785
-1 7 1 -1.6415 -0.6532
-1 7 2 1.7539 -0.0842
-1 7 3 -0.7362 0.0570
-1 7 4 0.2027 0.0208
-1 7 5 -0.3973 0.0612
-1 7 6 -0.7414 0.0499
-1 7 7 -1.1805 -0.0661
-1 7 8 2.3987 -0.0630
-1 7 9 0.1395 0.0671
-1 7 10 -1.8300 0.0404
-1 7 11 3.3150 -0.0274
-1 7 12 -3.3458 -0.0001
-1 7 13 1.7189 -0.1042
-1 7 14 -1.2016 0.1493
-1 8 1 0.5102 -0.4596
-1 8 2 0.9408 0.1425
-1 8 3 -1.5636 0.0484
-1 8 4 2.2669 -0.0258
-1 8 5 -2.1142 0.0580
-1 8 6 1.0433 0.0133
-1 8 7 -0.9898 -0.0589
-1 8 8 0.0934 -0.0261
-1 8 9 1.3725 -0.0031
-1 8 10 -1.3043 0.0145
-1 8 11 1.6142 0.0641
-1 8 12 0.1363 -0.0763
-1 8 13 -3.2344 -0.0071
-1 9 1 -0.3847 -0.4357
-1 9 2 1.4512 -0.0505
-1 9 3 -1.0780 -0.0301
-1 9 4 0.3320 -0.0180
-1 9 5 -1.6357 0.0958
-1 9 6 1.3773 0.0483
-1 9 7 0.2933 -0.0296
-1 9 8 -1.0362 0.0154
-1 9 9 1.3624 -0.0650
-1 9 10 -1.5603 -0.0676
-1 9 11 -0.9719 0.1620
-1 9 12 5.1124 -0.0349
-1 9 13 -3.6815 -0.0362
-1 10 1 -1.3337 -0.2990
-1 10 2 -0.2271 0.0919
-1 10 3 -0.5617 -0.0253
-1 10 4 0.5461 -0.0377
-1 10 5 1.8907 0.0670
-1 10 6 -1.0473 0.0401
-1 10 7 -0.6160 -0.0082
-1 10 8 0.8279 -0.0259
-1 10 9 -0.7412 -0.0077
-1 10 10 0.6368 -0.0317
-1 10 11 -1.3946 -0.0189
-1 10 12 1.8283 0.0950
-1 11 1 -0.2564 -0.2820
-1 11 2 -2.6341 -0.0390
-1 11 3 -0.2445 -0.0121
-1 11 4 3.5633 0.0373
-1 11 5 -0.0958 0.0418
-1 11 6 -3.3477 0.0167
-1 11 7 0.6547 -0.0327
-1 11 8 1.1118 -0.1183
-1 11 9 -3.9034 0.0615
-1 11 10 5.1143 0.2061
-1 11 11 1.1077 -0.2386
-1 12 1 -0.0388 -0.1409
-1 12 2 -2.1525 0.1246
-1 12 3 -1.2170 -0.0386
-1 12 4 4.4561 -0.0560
-1 12 5 -1.6009 -0.0138
-1 12 6 -1.7765 -0.0139
-1 12 7 1.4611 0.0263
-1 12 8 0.7985 0.1061
-1 12 9 -2.3186 -0.0905
-1 12 10 2.6718 0.1252
-1 13 1 0.1251 -0.1992
-1 13 2 -3.3755 -0.0214
-1 13 3 -3.5812 -0.0134
-1 13 4 5.8923 -0.0097
-1 13 5 0.6019 0.0546
-1 13 6 -2.5372 0.1099
-1 13 7 0.1416 -0.0465
-1 13 8 -0.6684 0.0052
-1 13 9 -1.4607 -0.3046
-1 14 1 -0.6461 -0.1316
-1 14 2 -0.7276 0.0275
-1 14 3 -2.8977 -0.0593
-1 14 4 1.5578 0.0336
-1 14 5 2.0388 0.1529
-1 14 6 -0.1151 -0.1399
-1 14 7 -1.8543 -0.2779
-1 15 1 0.2249 -0.1711
-1 15 2 -0.5554 -0.0103
-1 15 3 -2.3339 0.0501
-1 15 4 0.6510 0.0313
-1 15 5 1.8383 0.0332
0 -15 1 3.1284 -0.3013
0 -14 1 1.8410 -0.5332
0 -14 2 4.8924 0.0170
0 -14 3 -3.2661 0.1693
0 -14 4 3.7730 -0.0168
0 -14 5 -1.3491 -0.0248
0 -14 6 -6.1797 0.0652
0 -13 1 -1.1973 -0.5532
0 -13 2 -2.4285 0.1283
0 -13 3 -1.2202 0.2625
0 -13 4 4.1678 -0.0172
0 -13 5 0.5766 -0.2258
0 -13 6 -5.7457 -0.0369
0 -13 7 -0.0999 0.1217
0 -13 8 5.9683 0.1036
0 -12 1 -1.7393 -0.6774
0 -12 2 -3.3454 -0.0903
0 -12 3 4.3889 0.2519
0 -12 4 1.1443 0.0715
0 -12 5 1.3884 -0.1584
0 -12 6 -1.9547 0.0251
0 -12 7 -3.9817 0.1170
0 -12 8 4.9909 -0.0106
0 -12 9 -0.7637 -0.2509
0 -11 1 3.0867 -0.7137
0 -11 2 -3.3312 0.0673
0 -11 3 2.3936 0.2657
0 -11 4 -0.1209 0.0060
0 -11 5 2.9835 -0.1096
0 -11 6 -4.5323 -0.0154
0 -11 7 -6.3108 0.0435
0 -11 8 5.7114 0.0419
0 -11 9 3.1855 -0.1001
0 -11 10 0.9423 0.0587
0 -10 1 2.3202 -0.8230
0 -10 2 -2.7499 -0.0636
0 -10 3 -1.5594 0.2661
0 -10 4 0.4852 0.0304
0 -10 5 8.1101 -0.1010
0 -10 6 -4.4663 0.0165
0 -10 7 -4.3244 0.0385
0 -10 8 3.8828 -0.0401
0 -10 9 -1.8934 -0.0196
0 -10 10 1.6014 0.0389
0 -10 11 0.4062 -0.0217
0 -9 1 -0.9374 -0.8597
0 -9 2 1.2191 0.1346
0 -9 3 -0.5514 0.3145
0 -9 4 -2.4890 -0.0205
0 -9 5 4.8296 -0.1405
0 -9 6 -1.8994 0.0155
0 -9 7 -1.2666 0.0674
0 -9 8 1.7709 -0.0621
0 -9 9 -2.3568 -0.0271
0 -9 12 0.6917 -0.0410
0 -8 1 -1.1379 -0.9913
0 -8 2 1.2088 -0.0649
0 -8 3 0.8845 0.3034
0 -8 4 -1.0058 -0.0172
0 -8 5 1.9680 -0.1558
0 -8 6 -0.7116 0.0607
0 -8 7 -2.4031 0.1122
0 -8 8 -1.6175 -0.0271
0 -8 9 -1.2844 -0.0456
0 -8 10 6.3256 0.0368
0 -8 11 1.6831 -0.0115
0 -8 12 -1.3005 -0.1250
0 -8 13 -6.0856 0.0990
0 -7 1 -0.6245 -1.0322
0 -7 2 -2.6153 0.1760
0 -7 3 1.4525 0.3739
0 -7 4 -1.8908 -0.0128
0 -7 5 -0.8614 -0.1494
0 -7 6 5.0355 -0.0216
0 -7 7 -0.3516 0.0646
0 -7 8 -3.5119 -0.0254
0 -7 9 0.8329 -0.0759
0 -7 10 1.6655 0.0707
0 -7 11 1.4942 0.0752
0 -7 12 -2.9129 -0.1219
0 -7 13 -3.4174 -0.0256
0 -6 1 4.6085 -1.1677
0 -6 2 0.2489 -0.0798
0 -6 3 2.4654 0.3178
0 -6 4 -2.0405 -0.0025
0 -6 5 -2.9732 -0.1358
0 -6 6 5.4533 0.0553
0 -6 7 -1.2896 0.1054
0 -6 8 -2.7219 -0.0388
0 -6 9 -0.6744 -0.0509
0 -6 10 -4.5505 0.0477
0 -6 11 7.9957 0.0244
0 -6 12 2.4300 -0.0705
0 -6 13 -4.6725 -0.0965
0 -6 14 0.6053 0.2234
0 -5 1 14.1900 -1.0699
0 -5 2 -1.4112 0.2223
0 -5 3 -5.8342 0.3362
0 -5 4 0.9777 -0.0270
0 -5 5 -4.6009 -0.1404
0 -5 6 5.2297 -0.0053
0 -5 7 2.0251 0.0811
0 -5 8 0.4716 -0.0416
0 -5 9 -2.0100 -0.0511
0 -5 10 -1.1964 0.0536
0 -5 11 4.1069 0.0091
0 -5 12 -3.0848 -0.0543
0 -5 13 -5.6982 -0.0602
0 -5 14 4.5121 0.1466
0 -4 1 16.5795 -1.2861
0 -4 2 5.3070 -0.0806
0 -4 3 -16.2364 0.3279
0 -4 4 7.7425 0.0073
0 -4 5 -0.8682 -0.1396
0 -4 6 0.6899 0.0496
0 -4 7 -0.2353 0.1014
0 -4 8 2.2322 -0.0360
0 -4 9 -4.1079 -0.0415
0 -4 10 1.6777 0.0381
0 -4 11 -0.2918 0.0538
0 -4 12 -0.0772 -0.0653
0 -4 13 0.8329 -0.1056
0 -4 14 1.2081 -0.0302
0 -4 15 -2.2738 0.2614
0 -3 1 -8.0032 -1.2059
0 -3 2 31.8803 0.2388
0 -3 3 -25.0874 0.3538
0 -3 4 -0.1135 -0.0060
0 -3 5 7.8388 -0.1440
0 -3 6 -0.7192 -0.0073
0 -3 7 -1.3029 0.0844
0 -3 8 2.9483 -0.0368
0 -3 9 -5.8016 -0.0891
0 -3 10 2.1053 0.0274
0 -3 11 2.3863 0.1054
0 -3 12 -1.5637 -0.0299
0 -3 13 -0.9473 -0.0542
0 -3 14 1.3654 -0.0699
0 -3 15 0.2306 0.1824
0 -2 1 -70.3819 -1.2084
0 -2 3 -16.2244 0.2510
0 -2 4 -24.0111 0.0019
0 -2 5 11.4545 -0.1347
0 -2 6 4.5976 0.0416
0 -2 7 0.5749 0.1081
0 -2 8 -0.2200 0.0022
0 -2 9 -1.1928 -0.0725
0 -2 10 0.3842 -0.0210
0 -2 11 0.4945 0.0461
0 -2 12 -2.7003 0.0205
0 -2 13 -1.5284 -0.0504
0 -2 14 2.4990 -0.0234
0 -2 15 2.9489 0.1445
0 -1 1 -135.8973 -0.8650
0 -1 2 57.2773 0.2436
0 -1 3 9.3042 0.2632
0 -1 4 -24.1989 -0.0222
0 -1 5 11.9090 -0.1642
0 -1 6 2.3684 0.0073
0 -1 7 0.2782 0.0833
0 -1 8 -4.8774 -0.0174
0 -1 9 1.0364 -0.0415
0 -1 10 0.1641 0.0548
0 -1 11 -2.3736 0.0066
0 -1 12 2.9670 -0.0131
0 -1 13 2.5521 -0.0901
0 -1 14 -3.8514 -0.0392
0 -1 15 -0.8864 0.2069
0 0 2 19.1733 0.2328
0 0 3 15.8980 0.2719
0 0 4 -15.3267 -0.0787
0 0 5 5.3031 -0.1419
0 0 6 0.6207 0.0180
0 0 7 2.2659 0.0461
0 0 8 -3.1566 -0.0084
0 0 9 -0.8925 -0.0425
0 0 10 3.9405 0.0208
0 0 11 0.8865 0.0274
0 0 12 -2.1983 -0.0158
0 0 13 -1.0772 -0.0043
0 0 14 -1.8632 0.0803
0 0 15 0.7712 0.0752
0 1 2 -9.5880 0.1422
0 1 3 12.1711 0.1460
0 1 4 -1.1860 -0.0689
0 1 5 -0.0983 -0.1425
0 1 6 -0.5717 0.0078
0 1 7 0.3431 0.0847
0 1 8 0.6227 0.0051
0 1 9 -4.5557 0.0182
0 1 10 1.1712 0.0003
0 1 11 4.4427 -0.0148
0 1 12 -2.3340 0.0012
0 1 13 0.7330 -0.0629
0 1 14 -0.0267 -0.0449
0 1 15 -1.1773 0.1777
0 2 0 42.6341 -1.3107
0 2 1 10.5342 -0.2632
0 2 2 -32.2723 0.4550
0 2 3 6.0776 0.3215
0 2 4 7.6716 -0.0992
0 2 5 -3.3234 -0.1113
0 2 6 3.3642 -0.0224
0 2 7 -2.0436 0.0104
0 2 8 2.3748 0.0032
0 2 9 -2.3549 0.0016
0 2 10 -2.3419 -0.0255
0 2 11 2.1116 -0.0264
0 2 12 0.5863 -0.0325
0 2 13 0.9686 0.0715
0 2 14 -0.6035 0.1718
0 2 15 -0.6632 0.0073
0 3 0 -19.5391 -0.9416
0 3 1 32.0230 0.0276
0 3 2 -26.2219 0.1947
0 3 3 6.1725 0.0925
0 3 4 6.6462 -0.0386
0 3 5 -5.5336 -0.1266
0 3 6 4.3951 -0.0171
0 3 7 -2.3652 0.0450
0 3 8 1.7244 -0.0202
0 3 9 -3.4230 0.0406
0 3 10 -0.2525 0.0763
0 3 11 1.1050 -0.0142
0 3 12 2.0404 -0.0376
0 3 13 -1.6346 -0.0407
0 3 14 -0.3646 -0.0993
0 3 15 1.5501 0.1053
0 4 0 -26.8623 -1.3246
0 4 1 26.9640 -0.3000
0 4 2 -17.6800 0.4529
0 4 3 2.4528 0.2819
0 4 4 4.1821 -0.1003
0 4 5 -2.7123 -0.1005
0 4 6 2.3864 0.0146
0 4 7 -4.6845 -0.0020
0 4 8 4.0343 0.0103
0 4 9 -0.8934 -0.0113
0 4 10 0.6412 -0.0073
0 4 11 -1.4189 0.0195
0 4 12 1.7608 -0.0702
0 4 13 -0.5413 -0.0153
0 4 14 -1.5255 0.0486
0 4 15 0.8353 0.2342
0 5 0 -14.9365 -0.8545
0 5 1 10.1239 0.0249
0 5 2 -6.9071 0.2188
0 5 3 3.9914 0.0995
0 5 4 1.4744 -0.0825
0 5 5 -4.1109 -0.1285
0 5 6 2.4638 0.0214
0 5 7 -3.2344 0.0346
0 5 8 3.9026 -0.0199
0 5 9 -0.1578 0.0429
0 5 10 -1.9697 0.0398
0 5 11 -0.1461 -0.0554
0 5 12 -0.3284 0.0062
0 5 13 2.4380 0.0803
0 5 14 -1.7496 -0.1387
0 5 15 1.8716 0.1122
0 6 0 -4.8552 -1.2188
0 6 1 1.2477 -0.2079
0 6 2 -3.4291 0.3816
0 6 3 -1.1552 0.2190
0 6 4 4.5991 -0.0825
0 6 5 -0.8341 -0.0615
0 6 6 1.9338 0.0191
0 6 7 -1.7154 -0.0146
0 6 8 -0.6886 -0.0411
0 6 9 -0.2685 0.0118
0 6 10 -0.2297 0.0381
0 6 11 1.9071 -0.0113
0 6 12 -4.6259 0.0343
0 6 13 5.6637 -0.1102
0 6 14 -2.1819 -0.0851
0 6 15 0.6049 0.2789
0 7 0 2.2450 -0.8050
0 7 1 0.7231 0.0310
0 7 2 -0.4092 0.1890
0 7 3 -3.1264 0.0532
0 7 4 4.6028 -0.0851
0 7 5 -1.9318 -0.0566
0 7 6 0.0418 0.0247
0 7 7 -0.4176 -0.0052
0 7 8 -1.2886 -0.0149
0 7 9 2.0866 0.0433
0 7 10 -0.7042 0.0341
0 7 11 1.3806 -0.0067
0 7 12 -1.7722 0.0424
0 7 13 1.0700 -0.1537
0 7 14 -2.4429 0.0088
0 8 0 0.5462 -1.0682
0 8 1 0.0557 -0.1576
0 8 2 0.0491 0.3541
0 8 3 -3.7376 0.1977
0 8 4 3.8169 -0.0641
0 8 5 -0.1265 -0.0574
0 8 6 -0.6227 -0.0232
0 8 7 0.2617 -0.0405
0 8 8 -0.2457 0.0240
0 8 9 1.4911 0.0295
0 8 10 -1.6662 -0.0466
0 8 11 -1.8878 0.0230
0 8 12 2.8693 0.0346
0 8 13 -0.2078 -0.0427
0 8 14 -1.8465 0.0056
0 9 0 -1.2825 -0.6818
0 9 1 2.9100 0.0425
0 9 2 0.4018 0.1707
0 9 3 -2.1791 0.0142
0 9 4 0.4025 -0.0907
0 9 5 -0.7109 -0.0316
0 9 6 -0.3860 0.0228
0 9 7 1.6022 -0.0136
0 9 8 -0.2511 0.0194
0 9 9 -0.0468 0.0633
0 9 10 1.8726 -0.0267
0 9 11 -3.2390 0.0058
0 9 12 -0.5386 -0.0691
0 9 13 2.3591 0.0457
0 10 0 -3.0302 -0.8622
0 10 1 2.1887 -0.0875
0 10 2 0.1916 0.2566
0 10 3 0.0583 0.1052
0 10 4 -0.9210 -0.0462
0 10 5 0.9435 -0.0086
0 10 6 -0.4265 -0.0017
0 10 7 -0.2553 -0.0122
0 10 8 0.6058 -0.0184
0 10 9 0.2097 -0.0330
0 10 10 1.6809 0.0271
0 10 11 -2.3944 0.0809
0 10 12 -3.0931 -0.0367
0 10 13 4.8028 -0.1203
0 11 0 -1.2455 -0.5832
0 11 1 0.0943 0.0030
0 11 2 -0.2775 0.1105
0 11 3 1.5446 0.0325
0 11 4 -0.4234 0.0023
0 11 5 -1.0185 0.0098
0 11 6 -0.5887 -0.0216
0 11 7 0.6436 -0.0243
0 11 8 -0.5068 -0.0164
0 11 9 -0.6722 -0.0645
0 11 10 2.3923 0.0424
0 11 11 -0.2062 0.0401
0 11 12 -2.0271 0.2113
0 12 0 2.0719 -0.6800
0 12 1 -2.4313 -0.0526
0 12 2 -0.6164 0.2045
0 12 3 3.2332 0.0560
0 12 4 0.6131 -0.0713
0 12 5 -4.0423 -0.0169
0 12 6 1.1131 -0.0222
0 12 7 1.6264 -0.0410
0 12 8 -2.1026 0.1284
0 12 9 3.0122 0.1263
0 12 10 3.4577 -0.1166
0 12 11 -8.0010 -0.3354
0 13 0 3.8394 -0.4522
0 13 1 -2.3252 0.0583
0 13 2 1.0333 0.0982
0 13 3 0.2632 0.0146
0 13 4 0.3552 -0.0483
0 13 5 -0.4582 -0.0912
0 13 6 0.8069 0.0583
0 13 7 -0.9403 0.2274
0 13 8 -1.4440 -0.0792
0 13 9 -0.3800 -0.1920
0 13 10 4.4911 0.0016
0 14 0 -3.5504 -0.4879
0 14 1 -3.5116 -0.0034
0 14 2 4.8451 0.2000
0 14 3 0.2288 0.0270
0 14 4 -3.3301 -0.1239
0 14 5 0.5455 -0.0357
0 14 6 2.2030 0.0064
0 14 7 -2.6672 0.0895
0 14 8 1.5506 -0.1556
0 15 0 -1.1829 -0.3790
0 15 1 -2.0443 -0.0627
0 15 2 0.8158 0.0987
0 15 3 0.5193 0.1069
0 15 4 -1.0457 0.0407
0 15 5 0.5515 -0.1258
0 15 6 1.9997 -0.1866
1 -15 0 1.6735 -0.0916
1 -15 1 -0.1363 -0.0993
1 -15 2 -2.7124 0.0093
1 -15 3 -0.7439 0.1207
1 -15 4 4.8519 0.0873
1 -14 0 3.8660 -0.0906
1 -14 1 0.1584 -0.1866
1 -14 2 -2.1391 0.0607
1 -14 3 -2.6228 0.1511
1 -14 4 3.7544 0.0381
1 -13 0 5.8352 -0.1941
1 -13 1 1.5323 -0.1968
1 -13 2 -3.7066 0.1602
1 -13 3 -4.9532 0.1888
1 -13 4 3.2154 -0.0131
1 -13 5 -2.0618 -0.1730
1 -13 6 2.8081 -0.0224
1 -13 7 2.3243 0.0287
1 -12 0 0.7555 -0.1014
1 -12 1 -0.7901 -0.0543
1 -12 2 1.8057 0.0427
1 -12 3 -0.7037 0.1056
1 -12 4 0.8138 0.0023
1 -12 5 -3.8073 -0.1473
1 -12 7 1.1008 0.1407
1 -12 8 0.3933 0.0113
1 -11 0 2.0868 -0.3449
1 -11 1 -0.6263 -0.2000
1 -11 2 2.8965 0.1826
1 -11 3 -2.3861 0.2331
1 -11 4 -0.0274 -0.0271
1 -11 5 -0.0125 -0.1447
1 -11 6 -0.3539 -0.0747
1 -11 7 -3.4603 0.0568
1 -11 8 1.5622 0.0407
1 -11 9 2.1192 0.0788
1 -11 10 2.7158 -0.0587
1 -11 11 -1.3524 -0.0767
1 -10 0 1.6982 -0.2236
1 -10 1 -0.5633 -0.1295
1 -10 2 1.7844 0.0919
1 -10 3 -4.0205 0.1653
1 -10 4 -0.7073 0.0022
1 -10 5 3.0790 -0.1574
1 -10 6 0.3228 -0.0400
1 -10 7 1.2706 0.0806
1 -10 8 0.2459 0.0235
1 -10 9 -2.1128 -0.0213
1 -10 10 -0.8714 -0.0173
1 -10 11 -1.0173 0.0181
1 -10 12 2.4116 0.0106
1 -9 0 -0.8556 -0.5043
1 -9 1 0.0619 -0.2943
1 -9 2 2.6122 0.2479
1 -9 3 -1.1009 0.3022
1 -9 4 -0.1033 -0.0452
1 -9 5 -1.2893 -0.2320
1 -9 6 -0.4702 -0.0108
1 -9 7 3.1929 0.1235
1 -9 8 -3.4531 0.0318
1 -9 9 0.0181 -0.0985
1 -9 10 3.2918 0.0102
1 -9 11 -2.0874 0.0790
1 -9 12 1.0205 -0.0695
1 -8 0 -0.7497 -0.3225
1 -8 1 -0.4270 -0.1338
1 -8 2 1.4401 0.1244
1 -8 3 -2.2538 0.2291
1 -8 4 2.0550 -0.0380
1 -8 5 -1.4406 -0.2567
1 -8 6 1.0703 -0.0201
1 -8 7 0.6161 0.1700
1 -8 8 -1.9748 0.0458
1 -8 9 0.3372 -0.0994
1 -8 10 -0.9681 0.0113
1 -8 11 0.0614 0.0605
1 -8 12 7.8203 -0.0819
1 -8 13 -8.3087 -0.0530
1 -7 0 2.4796 -0.6897
1 -7 1 -1.3792 -0.3693
1 -7 2 2.5859 0.2825
1 -7 3 -5.8319 0.3687
1 -7 4 1.9363 -0.0245
1 -7 5 -0.2482 -0.1906
1 -7 6 3.2995 -0.0629
1 -7 7 -1.9510 0.0817
1 -7 8 -0.2611 0.0188
1 -7 9 3.2602 -0.0902
1 -7 10 -1.8353 0.0068
1 -7 11 -5.0628 0.0969
1 -7 12 5.5297 0.0041
1 -7 13 -3.7710 -0.1276
1 -7 14 3.0784 0.1818
1 -6 0 2.3383 -0.3927
1 -6 1 -6.3926 -0.1691
1 -6 2 8.0158 0.1099
1 -6 3 -2.8780 0.2273
1 -6 4 0.0646 -0.0356
1 -6 5 0.7621 -0.2342
1 -6 6 1.4658 -0.0241
1 -6 7 -4.1037 0.1742
1 -6 8 -0.1698 0.0342
1 -6 9 3.8089 -0.0840
1 -6 10 -2.4156 -0.0108
1 -6 11 -4.9249 0.0445
1 -6 12 6.0868 0.0191
1 -6 13 3.9111 -0.1080
1 -6 14 -3.7257 0.0428
1 -5 0 1.1962 -0.8724
1 -5 1 -6.5112 -0.3992
1 -5 2 1.7252 0.3720
1 -5 3 0.1703 0.4288
1 -5 4 -2.4249 -0.0316
1 -5 5 2.5187 -0.2360
1 -5 6 1.0384 -0.0660
1 -5 7 -1.4521 0.0887
1 -5 8 -0.8410 0.0274
1 -5 9 0.7958 -0.0899
1 -5 10 2.6264 -0.0128
1 -5 11 0.0632 0.0881
1 -5 13 2.4169 -0.0529
1 -5 14 -4.5871 -0.0982
1 -5 15 2.6930 0.2191
1 -4 0 -2.6153 -0.4733
1 -4 1 1.7403 -0.1966
1 -4 2 -10.3003 0.1165
1 -4 3 7.7294 0.2498
1 -4 4 -1.1993 -0.0668
1 -4 5 5.6988 -0.2444
1 -4 6 -0.0887 0.0048
1 -4 7 -4.1117 0.1771
1 -4 8 -2.9296 0.0421
1 -4 9 -1.8440 -0.1004
1 -4 10 4.0582 -0.0336
1 -4 11 1.8858 0.0711
1 -4 12 -4.1885 0.0260
1 -4 13 6.4474 -0.0570
1 -4 14 -1.4922 -0.0844
1 -4 15 -2.6146 0.2008
1 -3 0 -7.4686 -0.9969
1 -3 1 5.4413 -0.4055
1 -3 2 -14.5133 0.4493
1 -3 3 12.0689 0.4121
1 -3 4 -4.1395 -0.1196
1 -3 5 6.0128 -0.2261
1 -3 6 -2.7733 -0.0241
1 -3 7 -2.9359 0.1451
1 -3 8 2.2326 0.0262
1 -3 9 -1.0995 -0.1282
1 -3 10 -0.0693 -0.0464
1 -3 11 0.9878 0.0741
1 -3 12 -1.3465 0.0330
1 -3 13 1.7767 -0.0443
1 -3 14 -0.2445 0.0657
1 -3 15 1.6044 0.1507
1 -2 0 -0.6621 -0.6124
1 -2 1 0.6323 -0.1412
1 -2 2 -7.2168 0.2763
1 -2 3 8.4806 0.1764
1 -2 4 -4.2776 -0.1668
1 -2 5 6.4725 -0.2265
1 -2 6 -6.6171 0.0076
1 -2 7 0.6667 0.1849
1 -2 8 1.1209 0.0596
1 -2 9 0.0379 -0.0595
1 -2 10 0.6997 -0.0430
1 -2 11 -0.0490 0.0266
1 -2 12 0.0358 0.0095
1 -2 13 -2.6530 -0.0806
1 -2 14 -1.5516 0.0025
1 -2 16 -4.7494 -0.0925
1 -1 0 3.4016 -1.0731
1 -1 1 -9.0982 -0.2984
1 -1 2 1.7577 0.4603
1 -1 3 -7.8377 0.2756
1 -1 4 7.1156 -0.1003
1 -1 5 14.2981 -0.2016
1 -1 6 -14.8304 -0.0193
1 -1 7 2.0017 0.1311
1 -1 8 -1.0843 0.0268
1 -1 9 -0.4515 -0.0690
1 -1 10 3.4783 -0.0307
1 -1 11 -0.8400 0.0304
1 -1 12 -1.2360 0.0195
1 -1 13 0.6694 0.0179
1 -1 14 -2.4587 -0.0893
1 -1 15 6.0590 -0.0286
1 -1 16 -5.5263 0.1754
1 0 2 19.7341 0.3707
1 0 3 -19.0592 0.1454
1 0 4 5.0025 -0.1825
1 0 5 12.1956 -0.1991
1 0 6 -16.7831 0.0463
1 0 7 3.4514 0.1117
1 0 8 3.1976 0.0429
1 0 9 -0.0606 -0.0279
1 0 10 -0.3686 -0.0542
1 0 11 1.8281 -0.0068
1 0 12 0.4133 0.0046
1 0 13 -1.6469 0.0533
1 0 14 -5.0986 0.0510
1 0 15 5.7758 -0.0717
1 0 16 -0.9535 -0.0146
1 1 0 -32.5033 -0.9039
1 1 2 24.2471 0.3431
1 1 3 -5.0826 0.0116
1 1 4 -4.1293 -0.1452
1 1 5 9.1066 -0.1415
1 1 6 -8.1234 0.0154
1 1 7 -1.6498 0.1266
1 1 8 3.4076 0.0426
1 1 9 0.5425 -0.0524
1 1 10 -3.5374 0.0076
1 1 11 2.4169 -0.0065
1 1 12 0.7686 0.0082
1 1 13 -0.4637 0.0148
1 1 14 -1.7223 -0.1085
1 1 15 1.9856 -0.0618
1 1 16 1.0372 0.2370
1 2 0 -21.2847 -0.8951
1 2 1 3.7647 -0.1290
1 2 2 -4.6262 0.3148
1 2 3 7.1393 0.2079
1 2 4 -9.5944 -0.1619
1 2 5 5.3541 -0.1486
1 2 6 2.1925 0.0859
1 2 7 -4.2122 0.0804
1 2 8 1.6948 -0.0083
1 2 9 2.0002 -0.0534
1 2 10 -0.6733 -0.0290
1 2 11 0.0733 -0.0083
1 2 12 -1.5228 0.0074
1 2 13 -0.9751 0.0250
1 2 14 1.5186 0.0630
1 2 15 -0.4489 0.0300
1 2 16 1.3923 -0.0111
1 3 0 -23.1222 -0.7480
1 3 1 16.0653 0.3108
1 3 2 -15.2090 0.3018
1 3 3 21.0243 -0.0605
1 3 4 -11.2367 -0.1807
1 3 5 -1.9125 -0.1286
1 3 6 5.9992 0.0166
1 3 7 -4.6204 0.1224
1 3 8 1.6055 0.0103
1 3 9 -0.5983 -0.0333
1 3 10 -0.6179 0.0443
1 3 11 0.8309 0.0007
1 3 12 2.8602 0.0007
1 3 13 -2.8652 0.0373
1 3 14 -1.3566 -0.1008
1 3 15 -1.2247 -0.1520
1 3 16 4.5570 0.1842
1 4 0 -19.7645 -0.8358
1 4 1 25.1087 -0.1551
1 4 2 -15.5405 0.2851
1 4 3 11.1664 0.1973
1 4 4 -6.7982 -0.1445
1 4 5 -2.5739 -0.1126
1 4 6 5.2242 0.0602
1 4 7 -5.0287 0.0657
1 4 8 2.5037 -0.0012
1 4 9 0.3043 0.0005
1 4 10 -0.0703 -0.0412
1 4 11 0.4347 -0.0507
1 4 12 2.9608 -0.0101
1 4 13 -3.3835 0.0026
1 4 14 0.2778 0.1156
1 4 15 -3.3612 0.1030
1 4 16 3.1354 -0.1967
1 5 0 -11.6713 -0.7229
1 5 1 13.8066 0.1965
1 5 2 -8.7925 0.3124
1 5 3 3.0450 -0.0051
1 5 4 2.7545 -0.1747
1 5 5 -4.8541 -0.1192
1 5 6 1.9037 0.0298
1 5 7 -0.1944 0.0873
1 5 8 0.3690 -0.0088
1 5 9 0.7196 0.0064
1 5 10 -1.0137 0.0387
1 5 11 -1.5977 -0.0533
1 5 12 3.1923 -0.0485
1 5 13 -1.9939 0.0771
1 5 14 0.8395 0.0533
1 5 15 -1.5614 0.0851
1 6 0 -2.5570 -0.7917
1 6 1 0.3724 -0.1421
1 6 2 4.0419 0.2533
1 6 3 -6.7048 0.1289
1 6 4 3.2461 -0.1229
1 6 5 0.1443 -0.0779
1 6 6 -0.4305 0.0890
1 6 7 2.8958 0.0448
1 6 8 -1.9033 -0.0304
1 6 9 -2.3199 -0.0062
1 6 10 -0.2464 -0.0126
1 6 11 1.6405 -0.0174
1 6 12 2.1716 -0.0003
1 6 13 -0.1825 -0.0079
1 6 14 -1.0799 -0.1266
1 6 15 -2.9649 0.3210
1 7 0 5.8791 -0.6810
1 7 1 -7.1860 0.1764
1 7 2 12.0479 0.2544
1 7 3 -6.6655 -0.0096
1 7 4 0.8066 -0.1313
1 7 5 0.6176 -0.1036
1 7 6 -3.8519 0.0447
1 7 7 2.9777 0.0570
1 7 8 0.8318 -0.0206
1 7 9 -1.0396 0.0157
1 7 10 -0.5921 0.0242
1 7 11 0.7222 -0.0156
1 7 12 -1.2265 -0.0066
1 7 13 3.1224 0.0098
1 7 14 -0.7929 -0.0653
1 7 15 -2.4616 0.1419
1 8 0 6.5289 -0.7360
1 8 1 -11.2048 -0.1322
1 8 2 8.0017 0.2116
1 8 3 -2.7412 0.1183
1 8 4 0.4406 -0.0803
1 8 5 1.8896 -0.0330
1 8 6 -1.9809 0.0383
1 8 7 -0.9266 0.0022
1 8 8 2.0372 0.0115
1 8 9 1.1655 -0.0029
1 8 10 -3.4800 -0.0583
1 8 11 1.8660 -0.0057
1 8 12 -2.6745 0.0583
1 8 13 3.3834 -0.0462
1 8 14 1.5488 0.0387
1 9 0 2.8195 -0.5934
1 9 1 -2.9003 0.1535
1 9 2 1.5951 0.2382
1 9 3 -1.2342 -0.0350
1 9 4 0.6099 -0.1696
1 9 5 0.7930 -0.0636
1 9 6 -0.3846 0.0375
1 9 7 -0.5117 0.0309
1 9 8 -0.2313 0.0563
1 9 9 0.7850 0.0461
1 9 10 -1.7971 -0.0470
1 9 11 4.3647 -0.0699
1 9 12 -4.0004 0.0762
1 9 13 -0.4660 -0.0194
1 9 14 2.7081 -0.0123
1 10 0 0.3665 -0.6335
1 10 1 1.2642 -0.0763
1 10 2 -3.0156 0.1780
1 10 3 -0.4566 0.0775
1 10 4 -0.0703 -0.0709
1 10 5 2.9214 -0.0255
1 10 6 0.3498 0.0612
1 10 7 -0.5821 0.0134
1 10 8 -1.8952 -0.0345
1 10 9 0.0266 -0.0365
1 10 10 1.2262 0.0158
1 10 11 0.0837 0.0010
1 10 12 -2.2336 -0.0031
1 10 13 2.6996 0.0621
1 11 0 0.6740 -0.5205
1 11 1 1.2316 0.0968
1 11 2 -0.0233 0.1660
1 11 3 0.5045 -0.0079
1 11 4 -5.4777 -0.0689
1 11 5 2.5948 -0.0329
1 11 6 2.4725 0.0141
1 11 7 -1.2049 0.0343
1 11 8 2.0850 -0.0524
1 11 9 -4.9559 -0.0889
1 11 10 0.1922 0.0912
1 11 11 2.8215 0.1926
1 11 12 0.7258 -0.2227
1 12 0 1.4452 -0.5385
1 12 1 -0.2041 -0.0593
1 12 2 -0.7380 0.1483
1 12 3 3.3715 0.0579
1 12 4 -2.3460 -0.0658
1 12 5 -2.7353 -0.0215
1 12 6 5.1056 0.0208
1 12 7 -3.6449 -0.0086
1 12 8 3.1087 -0.0158
1 12 9 -0.9625 0.0758
1 12 10 -0.1838 -0.0469
1 12 11 0.3202 0.2081
1 13 0 -0.2802 -0.4339
1 13 1 2.9835 0.0958
1 13 2 -1.3283 0.1035
1 13 3 0.5170 -0.0263
1 13 4 2.2383 -0.0151
1 13 5 -6.4720 0.0146
1 13 6 6.4545 0.0037
1 13 7 -2.3255 0.0273
1 13 8 -0.1112 0.0291
1 13 9 0.9625 -0.0306
1 13 10 -4.9117 -0.4049
1 14 0 -11.9952 -0.3224
1 14 1 3.6745 0.0038
1 14 2 2.5526 0.0586
1 14 3 -3.3682 -0.0431
1 14 4 4.7996 -0.1303
1 14 5 -6.7315 0.0692
1 14 6 2.3638 0.2448
1 14 7 2.3746 -0.1744
1 14 8 -2.6200 -0.2922
1 15 0 -7.7758 -0.2749
1 15 1 6.0460 -0.0482
1 15 2 0.5210 0.0135
1 15 3 -8.1137 -0.0134
1 15 4 8.5428 0.0274
1 15 5 -0.3613 0.0905
1 15 6 -3.8926 0.0866
2 -15 0 -1.9602 0.2179
2 -15 1 -4.5185 0.0728
2 -15 2 4.9709 0.0185
2 -15 3 1.6763 -0.0525
2 -15 4 -0.4115 -0.1484
2 -14 0 2.0453 0.1008
2 -14 1 -4.6931 0.0040
2 -14 2 4.1802 0.0620
2 -14 3 1.7916 0.0587
2 -14 4 -2.9923 -0.1178
2 -14 5 -0.3024 -0.0530
2 -14 6 0.6312 0.0057
2 -13 0 2.5801 0.1116
2 -13 1 -2.4105 -0.1253
2 -13 2 -2.4118 0.0369
2 -13 3 3.7982 0.1167
2 -13 4 0.3409 -0.0367
2 -13 5 -2.1774 -0.0972
2 -13 6 -0.9377 -0.0559
2 -12 0 -2.8205 0.1528
2 -12 1 -1.3616 0.0171
2 -12 2 -4.0901 0.0264
2 -12 3 7.1716 0.0072
2 -12 4 2.5156 -0.0232
2 -12 5 -3.1201 -0.0971
2 -12 6 -1.8274 -0.0449
2 -12 7 2.5622 0.1220
2 -12 8 -2.3150 0.1718
2 -12 9 -0.7072 -0.1559
2 -12 10 1.9055 -0.1606
2 -11 0 -0.7210 0.1028
2 -11 1 2.8683 -0.1391
2 -11 2 -3.6574 0.0471
2 -11 3 0.1080 0.1130
2 -11 4 1.6718 -0.0349
2 -11 5 1.9569 -0.1253
2 -11 6 -4.2784 0.0186
2 -11 7 1.0934 0.1099
2 -11 8 0.2918 0.0420
2 -11 9 -3.9733 -0.0921
2 -11 10 7.3328 -0.0830
2 -11 11 -1.0095 0.0912
2 -10 0 -1.5592 0.0898
2 -10 1 2.7395 0.0020
2 -10 2 -1.1937 0.0869
2 -10 3 -3.1217 0.0319
2 -10 4 2.1303 -0.0649
2 -10 5 3.2354 -0.1248
2 -10 6 -6.7714 0.0016
2 -10 7 2.7811 0.1412
2 -10 8 9.4362 0.0171
2 -10 9 -6.7578 -0.0842
2 -10 10 -1.3925 -0.0439
2 -10 11 -3.7743 0.0650
2 -10 12 0.9676 0.0427
2 -9 0 -3.3984 0.0142
2 -9 1 2.0998 -0.2194
2 -9 2 0.7979 0.0861
2 -9 3 -1.6260 0.1732
2 -9 4 3.2297 -0.0655
2 -9 5 1.5941 -0.1579
2 -9 6 -5.3567 0.0155
2 -9 7 -2.8332 0.1547
2 -9 8 5.5557 0.0188
2 -9 9 -3.0906 -0.0991
2 -9 10 3.0897 -0.0254
2 -9 11 2.3177 0.0558
2 -8 0 -1.9330 0.0456
2 -8 1 0.9556 0.0193
2 -8 2 -1.1503 0.0981
2 -8 3 -2.2672 0.0792
2 -8 4 1.8925 -0.0734
2 -8 5 1.4954 -0.1866
2 -8 6 1.7654 -0.0218
2 -8 7 -5.6858 0.1852
2 -8 8 1.9553 0.0718
2 -8 9 2.3501 -0.1277
2 -8 10 -2.0453 -0.0556
2 -8 11 3.4931 0.0703
2 -8 12 -3.4138 0.0371
2 -8 13 -0.1734 -0.0634
2 -7 0 -2.3869 -0.0349
2 -7 1 -0.3959 -0.2182
2 -7 2 1.8944 0.0866
2 -7 3 -1.4131 0.1889
2 -7 4 0.8314 -0.0636
2 -7 5 -1.1635 -0.1829
2 -7 6 2.4148 0.0087
2 -7 7 -1.7587 0.1495
2 -7 8 -1.9124 0.0787
2 -7 9 3.1114 -0.1014
2 -7 10 -1.6562 -0.1139
2 -7 11 5.0652 0.0633
2 -7 12 -3.8294 0.0797
2 -7 13 -5.2665 -0.0499
2 -7 14 2.3986 -0.0602
2 -6 0 -1.2835 -0.0401
2 -6 1 -2.3634 0.0534
2 -6 2 4.5235 0.1469
2 -6 3 -1.0909 0.0513
2 -6 4 1.1037 -0.0837
2 -6 5 -0.7369 -0.2059
2 -6 6 -2.9789 -0.0388
2 -6 7 1.6708 0.1843
2 -6 8 -1.8945 0.1040
2 -6 9 3.4698 -0.0774
2 -6 10 -2.1658 -0.0752
2 -6 11 0.5076 0.0524
2 -6 12 2.7316 0.0153
2 -6 13 -3.3750 -0.0188
2 -6 14 -0.1875 -0.1498
2 -5 0 -2.1880 -0.1670
2 -5 1 -2.1400 -0.2871
2 -5 2 2.0751 0.1386
2 -5 3 -0.3015 0.2257
2 -5 4 -2.5212 -0.0585
2 -5 5 2.9898 -0.1540
2 -5 6 -3.7361 0.0208
2 -5 7 1.6150 0.1133
2 -5 8 0.2979 0.0187
2 -5 9 1.4760 -0.1106
2 -5 10 0.4770 -0.0616
2 -5 11 -0.4509 0.0975
2 -5 12 3.4739 0.0575
2 -5 13 -6.6296 -0.0044
2 -5 14 -2.6995 -0.1336
2 -4 0 -4.2262 -0.0608
2 -4 1 4.3399 0.1046
2 -4 2 -1.2681 0.1333
2 -4 3 8.6920 0.0296
2 -4 4 -8.0784 -0.1550
2 -4 5 3.3291 -0.2054
2 -4 6 -0.8879 0.0299
2 -4 7 -2.7025 0.2100
2 -4 8 1.4293 0.0908
2 -4 9 -1.2272 -0.1137
2 -4 10 2.8538 -0.0780
2 -4 11 -2.0257 0.0336
2 -4 12 1.0267 0.0604
2 -4 13 -1.6722 -0.0635
2 -4 14 2.1564 -0.0044
2 -4 15 0.5950 0.1347
2 -3 0 -1.6024 -0.2602
2 -3 1 6.2932 -0.2402
2 -3 2 -8.1473 0.1583
2 -3 3 13.2345 0.2204
2 -3 4 -9.0905 -0.0868
2 -3 5 0.2596 -0.1466
2 -3 6 -1.7520 0.0334
2 -3 7 -2.6393 0.1171
2 -3 8 6.9356 0.0373
2 -3 9 0.2895 -0.1138
2 -3 10 1.2692 -0.0666
2 -3 11 -3.6335 0.0250
2 -3 12 -0.9049 0.0782
2 -3 14 1.2409 0.0407
2 -3 15 0.0548 0.1218
2 -3 16 0.7827 -0.1455
2 -2 0 -2.2354 -0.1641
2 -2 1 5.4483 0.0717
2 -2 2 -1.0116 0.1583
2 -2 3 6.0321 0.0206
2 -2 4 -3.9178 -0.1499
2 -2 5 -2.0647 -0.1354
2 -2 6 -1.4582 0.0340
2 -2 7 2.0059 0.1318
2 -2 8 0.9809 0.0317
2 -2 9 -1.0086 -0.0725
2 -2 10 0.6691 -0.0136
2 -2 11 -0.6824 0.0598
2 -2 12 0.6995 0.0306
2 -2 13 0.6136 -0.0592
2 -2 14 -2.3514 -0.1192
2 -2 15 0.2012 0.0437
2 -2 16 1.5653 0.2146
2 -1 0 -1.1107 -0.3602
2 -1 1 -3.9099 -0.2355
2 -1 2 15.7029 0.1571
2 -1 3 -12.6715 0.1370
2 -1 4 0.5024 -0.0751
2 -1 5 -0.3275 -0.0487
2 -1 6 1.7712 0.0472
2 -1 7 3.9429 0.1034
2 -1 8 -4.7879 -0.0089
2 -1 9 0.9612 -0.1185
2 -1 10 -0.7147 -0.0625
2 -1 11 1.3092 0.0676
2 -1 12 -0.8075 0.0188
2 -1 13 0.6834 0.0484
2 -1 14 -0.1237 -0.0239
2 -1 15 2.6710 -0.0908
2 -1 16 -3.5133 0.1902
2 0 0 3.8108 -0.2407
2 0 1 -19.4713 -0.0130
2 0 2 30.5059 0.1785
2 0 3 -13.1408 0.0472
2 0 4 2.6213 -0.1612
2 0 5 -8.6987 -0.1000
2 0 6 5.0447 0.0750
2 0 7 2.8374 0.1057
2 0 8 -4.8646 -0.0239
2 0 9 6.3865 -0.0374
2 0 10 -3.7563 -0.0277
2 0 11 -2.6047 0.0050
2 0 12 2.1119 0.0326
2 0 13 2.4873 -0.0161
2 0 14 -4.0515 0.0154
2 0 15 4.3785 0.0270
2 0 16 -2.1919 0.1016
2 1 0 22.1215 -0.4463
2 1 1 -32.9925 -0.0882
2 1 2 18.1634 0.2243
2 1 3 0.1844 -0.0097
2 1 4 3.5193 -0.1259
2 1 5 -13.9873 -0.0238
2 1 6 11.3817 0.0650
2 1 7 -0.3940 0.0997
2 1 8 -4.5726 -0.0029
2 1 9 5.2203 -0.0934
2 1 10 -2.6738 -0.0073
2 1 11 -4.2516 0.0212
2 1 12 2.4742 0.0077
2 1 13 3.8200 0.0055
2 1 14 -4.9515 -0.0221
2 1 15 3.7832 -0.0572
2 1 16 -0.1319 0.1364
2 2 0 37.5502 -0.3142
2 2 1 -9.8774 -0.1007
2 2 2 -6.0627 0.1230
2 2 3 -2.3992 0.0660
2 2 4 4.0074 -0.1022
2 2 5 -9.4236 -0.1136
2 2 6 10.4619 0.1272
2 2 7 -1.6207 0.1203
2 2 8 -1.8926 -0.0467
2 2 9 1.2212 -0.0837
2 2 10 3.3386 -0.0225
2 2 11 -4.1700 0.0226
2 2 12 -1.1622 -0.0077
2 2 13 2.2306 -0.0167
2 2 14 -2.7949 0.0200
2 2 15 3.8479 0.1370
2 2 16 -1.3049 0.0351
2 3 0 17.4587 -0.5626
2 3 1 2.6378 0.0873
2 3 2 -15.6856 0.3162
2 3 3 8.4083 -0.0366
2 3 4 9.2399 -0.1630
2 3 5 -9.9573 -0.0592
2 3 6 3.1827 0.0401
2 3 7 -0.1332 0.0666
2 3 8 -1.4054 0.0085
2 3 9 -2.0993 -0.0624
2 3 10 6.8823 0.0121
2 3 11 -6.2477 0.0760
2 3 12 -0.5497 -0.0258
2 3 13 5.3119 0.0125
2 3 14 -2.9281 -0.0327
2 3 15 -0.2174 -0.1257
2 3 16 0.4084 0.0933
2 4 0 1.9066 -0.4824
2 4 1 16.6510 -0.0803
2 4 2 -14.8913 0.1612
2 4 3 0.5492 0.0861
2 4 4 5.4918 -0.1374
2 4 5 -3.8663 -0.0759
2 4 6 0.4069 0.1255
2 4 7 -0.5480 0.0950
2 4 8 1.8751 -0.0553
2 4 9 -2.4697 -0.0587
2 4 10 4.0874 0.0042
2 4 11 -2.9427 -0.0134
2 4 12 0.3890 -0.0111
2 4 13 0.1794 -0.0048
2 4 14 -0.5405 0.0349
2 4 15 1.6370 -0.0097
2 4 16 0.3322 0.2180
2 5 0 -6.4328 -0.6072
2 5 1 13.9211 0.1050
2 5 2 -10.9206 0.3212
2 5 3 -2.2637 0.0195
2 5 4 6.3615 -0.1804
2 5 5 -0.1376 -0.0998
2 5 6 -1.4781 0.0489
2 5 7 -1.0598 0.1114
2 5 8 2.7142 -0.0206
2 5 9 -0.9266 -0.1066
2 5 10 0.6751 0.0469
2 5 11 -1.6069 0.0589
2 5 12 -0.2779 -0.0069
2 5 13 -1.5959 -0.0031
2 5 14 0.8118 0.0002
2 5 15 2.0248 -0.1226
2 5 16 3.0302 0.2118
2 6 0 -5.8711 -0.5120
2 6 1 2.9055 -0.0835
2 6 2 0.7568 0.1602
2 6 3 -2.2821 0.0895
2 6 4 0.9697 -0.1075
2 6 5 -1.2076 -0.0822
2 6 6 2.1979 0.1077
2 6 7 -0.9066 0.0836
2 6 8 -0.9701 -0.0442
2 6 9 1.7819 -0.0538
2 6 10 -0.6937 -0.0245
2 6 11 -0.5711 -0.0053
2 6 12 0.7398 0.0772
2 6 13 -0.1433 0.0575
2 6 14 -0.6487 -0.2062
2 6 15 0.8005 -0.0522
2 6 16 -0.5176 0.3371
2 7 0 -0.7474 -0.5673
2 7 1 -5.2113 0.0788
2 7 2 7.9230 0.2450
2 7 3 -4.6235 0.0051
2 7 4 4.5148 -0.0983
2 7 5 -3.1847 -0.0463
2 7 6 -0.9277 0.0269
2 7 7 0.9947 0.0410
2 7 8 -2.4338 -0.0419
2 7 9 2.1212 -0.0118
2 7 10 2.7629 0.0261
2 7 11 0.0506 -0.0259
2 7 12 -3.7592 0.0170
2 7 13 0.5575 0.0952
2 7 14 -2.4937 -0.0927
2 7 15 4.7100 0.0169
2 8 0 4.6266 -0.4543
2 8 1 -7.7740 -0.0507
2 8 2 5.9298 0.1429
2 8 3 -7.2338 0.0432
2 8 4 7.7585 -0.1176
2 8 5 -2.4549 -0.0209
2 8 6 -1.7176 0.0956
2 8 7 1.9100 0.0408
2 8 8 -1.2710 -0.0500
2 8 9 -0.9432 -0.0126
2 8 10 0.5265 -0.0039
2 8 11 2.7376 0.0054
2 8 12 -0.6763 0.0139
2 8 13 0.4229 -0.1012
2 8 14 -5.1106 0.0263
2 8 15 2.8280 0.1621
2 9 0 3.8044 -0.5593
2 9 1 -2.0033 0.0689
2 9 2 3.7138 0.2878
2 9 3 -4.3164 0.0338
2 9 4 3.7058 -0.1540
2 9 5 -1.6126 -0.0857
2 9 6 -1.4888 0.0317
2 9 7 0.8683 0.0454
2 9 8 2.7552 0.0191
2 9 9 -2.1639 0.0017
2 9 10 -3.4532 -0.0338
2 9 11 2.9083 0.0301
2 9 12 4.7527 0.0700
2 9 13 -3.4701 -0.1217
2 9 14 -3.4022 -0.0149
2 10 0 0.0077 -0.4426
2 10 1 0.9598 -0.0518
2 10 2 -2.3503 0.1109
2 10 3 1.1422 0.0514
2 10 4 1.2368 -0.0345
2 10 5 0.9941 -0.0496
2 10 6 -1.6469 0.0615
2 10 7 -2.2205 0.0628
2 10 8 3.4426 -0.0080
2 10 9 -0.7510 -0.0748
2 10 10 -0.3413 -0.0780
2 10 11 -3.3018 0.0382
2 10 12 4.9690 0.0717
2 10 13 -1.7999 0.0615
2 11 0 -3.7410 -0.4247
2 11 1 0.2470 0.0591
2 11 2 -0.4009 0.1638
2 11 3 4.0867 -0.0135
2 11 4 -4.0444 -0.0754
2 11 5 1.0849 -0.0084
2 11 6 0.4128 0.0123
2 11 7 -3.9642 -0.0226
2 11 8 5.1776 -0.0019
2 11 9 0.0276 0.0121
2 11 10 -1.6107 0.0550
2 11 11 -4.5216 0.0095
2 11 12 6.8481 -0.1825
2 11 13 -1.0476 0.2594
2 12 0 -1.0280 -0.3820
2 12 1 -2.5787 -0.0162
2 12 2 -1.7967 0.1070
2 12 3 2.9224 0.0149
2 12 4 -1.4344 -0.0672
2 12 5 2.7958 0.0049
2 12 6 1.8143 0.0361
2 12 7 -6.3613 -0.0054
2 12 8 0.1656 -0.0389
2 12 9 4.4093 0.0504
2 12 10 1.0354 0.1611
2 12 11 -1.8423 -0.0557
2 12 12 -1.4283 -0.3835
2 13 0 6.1038 -0.4507
2 13 1 0.0095 0.0713
2 13 2 -3.8544 0.1947
2 13 3 2.3571 0.0260
2 13 4 -2.1714 -0.0617
2 13 5 0.0456 -0.0608
2 13 6 2.6741 -0.0263
2 13 7 -0.3448 0.0871
2 13 8 -5.3479 0.0645
2 13 9 6.9586 -0.1162
2 13 10 -4.6153 -0.0725
2 14 0 1.4700 -0.3305
2 14 1 0.0558 0.0319
2 14 2 -3.6424 0.0936
2 14 3 3.8373 0.0153
2 14 4 -2.3547 -0.0955
2 14 5 -0.2510 -0.1379
2 14 6 -1.1250 0.0731
2 14 7 5.5750 0.1756
2 14 8 -8.6058 -0.0683
2 14 9 7.1627 -0.2050
2 15 0 -2.0676 -0.3327
2 15 1 9.0664 -0.0900
2 15 2 -1.5064 0.0462
2 15 3 -3.7358 0.0842
2 15 4 -1.5567 0.0608
2 15 5 6.8918 0.0189
2 15 6 -3.9810 -0.1004
3 -15 0 -9.8458 0.2192
3 -15 1 -0.8301 -0.1374
3 -15 2 2.2451 -0.0759
3 -15 3 3.9849 0.0386
3 -14 0 -5.8559 0.3639
3 -14 1 2.3983 -0.1418
3 -14 2 2.4599 -0.0732
3 -14 3 -0.5152 0.0347
3 -14 4 -1.0895 0.0588
3 -14 5 -4.9827 -0.0705
3 -14 6 1.5756 -0.0399
3 -13 0 -1.3874 0.4297
3 -13 1 1.3551 -0.1174
3 -13 2 -1.2147 -0.0843
3 -13 3 -2.5937 0.0205
3 -13 4 4.1571 0.0422
3 -13 5 -2.4356 -0.0334
3 -13 6 -1.2750 -0.0448
3 -13 7 1.2336 0.0745
3 -13 8 2.7013 -0.0051
3 -12 0 -1.3015 0.2886
3 -12 1 0.4896 -0.0523
3 -12 2 -0.7349 -0.0005
3 -12 4 0.8918 -0.0152
3 -12 5 0.5142 -0.0185
3 -12 6 -0.1760 -0.0176
3 -12 7 -1.2161 0.0332
3 -12 8 2.9185 0.0159
3 -12 9 -2.7519 -0.0157
3 -11 0 0.2581 0.3649
3 -11 1 2.7147 -0.1335
3 -11 2 0.7666 -0.0829
3 -11 3 0.2850 0.0766
3 -11 4 -4.4452 0.0019
3 -11 5 1.4468 -0.0613
3 -11 6 0.4216 0.0271
3 -11 7 -0.1613 0.0960
3 -11 8 2.1636 -0.0177
3 -11 9 -1.7290 -0.1055
3 -10 0 -0.4402 0.3473
3 -10 1 -0.3441 -0.0723
3 -10 2 -0.9412 -0.0117
3 -10 3 1.3667 0.0287
3 -10 4 0.6698 -0.0212
3 -10 5 -0.3332 -0.0670
3 -10 6 -2.6419 -0.0222
3 -10 7 1.1181 0.1069
3 -10 8 3.3028 0.0505
3 -10 9 3.5151 -0.1037
3 -10 10 -4.4254 -0.0599
3 -10 11 -8.3640 0.0237
3 -10 12 6.3107 0.1144
3 -9 0 0.8095 0.4132
3 -9 1 -0.1810 -0.2057
3 -9 2 -2.3243 -0.0784
3 -9 3 0.3770 0.1058
3 -9 4 4.7317 0.0165
3 -9 5 -1.8986 -0.0995
3 -9 6 -2.3865 -0.0012
3 -9 7 1.8059 0.1162
3 -9 8 -2.4461 0.0522
3 -9 9 -0.7058 -0.0870
3 -9 10 2.5768 -0.0945
3 -9 11 -2.2917 0.0492
3 -9 12 4.5619 0.0550
3 -9 13 -0.3392 0.0169
3 -8 0 2.1451 0.3148
3 -8 1 1.1820 -0.0916
3 -8 2 -2.5750 0.0264
3 -8 3 -1.4852 0.0639
3 -8 4 0.1268 -0.0003
3 -8 5 0.2565 -0.0926
3 -8 6 0.9398 -0.0334
3 -8 7 2.2751 0.1044
3 -8 8 -2.0684 0.0516
3 -8 9 1.2529 -0.1062
3 -8 10 1.8882 -0.0804
3 -8 11 -6.4813 0.0928
3 -8 12 1.4497 0.0477
3 -8 13 2.5396 -0.0119
3 -8 14 0.0829 -0.0572
3 -7 0 -0.9933 0.4111
3 -7 1 -0.7547 -0.1778
3 -7 2 -0.9579 -0.0931
3 -7 3 4.4565 0.0822
3 -7 4 -1.9571 0.0005
3 -7 5 0.6552 -0.0921
3 -7 6 -2.3924 0.0340
3 -7 7 1.5571 0.1378
3 -7 8 -0.4455 0.0118
3 -7 9 1.3760 -0.1220
3 -7 10 1.0024 -0.0743
3 -7 11 -4.2909 0.0706
3 -7 12 1.3596 0.0743
3 -7 13 -1.0620 -0.0195
3 -7 14 2.7717 -0.0308
3 -6 0 -0.5380 0.2644
3 -6 1 3.4215 -0.0775
3 -6 2 -3.2715 0.0364
3 -6 3 1.6844 0.0311
3 -6 4 -0.7730 -0.0286
3 -6 5 0.5484 -0.0577
3 -6 6 -2.5299 -0.0105
3 -6 7 1.7247 0.1056
3 -6 8 0.5519 0.0366
3 -6 9 1.4294 -0.1156
3 -6 10 0.0770 -0.0734
3 -6 11 -5.2106 0.0728
3 -6 12 1.9519 0.0890
3 -6 13 0.5089 -0.0367
3 -6 14 5.4009 0.0030
3 -6 15 -2.5501 -0.0465
3 -5 0 -1.0002 0.3585
3 -5 1 3.5927 -0.2041
3 -5 2 -3.9857 -0.0797
3 -5 3 -6.1910 0.0951
3 -5 4 3.3961 -0.0031
3 -5 5 1.9486 -0.0741
3 -5 6 1.1067 0.0493
3 -5 7 -0.2328 0.0992
3 -5 8 1.0193 0.0016
3 -5 9 -1.7457 -0.0853
3 -5 10 -0.0242 -0.0761
3 -5 11 -1.3281 0.0289
3 -5 12 1.8015 0.0800
3 -5 13 -1.6900 -0.0279
3 -5 14 3.0147 0.0163
3 -5 15 -1.9512 0.0831
3 -4 0 -0.4953 0.2012
3 -4 1 -1.8875 -0.0304
3 -4 2 6.9880 0.0805
3 -4 3 -5.5545 0.0477
3 -4 4 0.0624 -0.0418
3 -4 5 0.1562 -0.1125
3 -4 6 3.4226 -0.0155
3 -4 7 -2.6740 0.0896
3 -4 8 2.9647 0.0344
3 -4 9 -4.6796 -0.0495
3 -4 10 1.1647 -0.0203
3 -4 11 0.7703 0.0559
3 -4 12 -2.2797 0.0119
3 -4 13 0.2668 -0.0896
3 -4 14 5.3078 -0.0591
3 -4 15 0.3030 0.1964
3 -4 16 -4.8819 -0.0054
3 -3 0 13.5601 0.2672
3 -3 1 -11.2351 -0.1998
3 -3 2 7.2974 -0.0428
3 -3 3 -4.2043 0.1001
3 -3 4 -6.4210 -0.0140
3 -3 5 3.2827 -0.0518
3 -3 6 4.7022 0.0826
3 -3 7 -5.1246 0.0658
3 -3 8 5.2282 -0.0567
3 -3 9 -1.8170 -0.1075
3 -3 10 0.4516 -0.0272
3 -3 11 0.3051 0.1087
3 -3 12 -2.5228 0.0415
3 -3 13 0.4937 -0.0269
3 -3 14 1.0096 -0.0742
3 -3 15 -0.0770 0.0283
3 -3 16 -1.7161 0.1273
3 -2 0 15.3756 0.1512
3 -2 1 -12.7797 -0.0323
3 -2 2 4.6900 0.0878
3 -2 3 0.8617 0.0377
3 -2 4 -5.3129 -0.0875
3 -2 5 3.5010 -0.0735
3 -2 6 3.7613 0.0515
3 -2 7 -2.5852 0.0676
3 -2 8 -0.4284 -0.0253
3 -2 9 -1.7011 -0.0844
3 -2 10 -1.6631 -0.0035
3 -2 11 1.7529 0.1004
3 -2 12 2.0325 0.0501
3 -2 13 1.1822 -0.0130
3 -2 14 -0.9191 -0.1057
3 -2 15 -3.2070 -0.1038
3 -2 16 0.7714 0.1978
3 -1 0 8.3370 0.1155
3 -1 1 -3.3943 -0.1801
3 -1 2 1.0701 0.0348
3 -1 3 -1.5651 0.0891
3 -1 4 -4.7026 -0.0668
3 -1 5 1.7936 -0.0218
3 -1 6 4.7582 0.0847
3 -1 7 -1.1064 0.0524
3 -1 8 -3.6027 -0.0267
3 -1 9 4.5372 -0.1085
3 -1 10 -4.3386 -0.0232
3 -1 11 0.9293 0.0657
3 -1 12 3.0948 0.0296
3 -1 13 -2.8201 -0.0454
3 -1 14 2.6641 0.0306
3 -1 15 -1.4343 0.0433
3 -1 16 -1.1027 0.0610
3 0 0 0.1056 0.0681
3 0 1 2.1580 -0.0009
3 0 2 -2.9744 0.1368
3 0 3 0.5382 0.0332
3 0 4 2.4559 -0.1313
3 0 5 -0.7354 -0.0618
3 0 6 1.5648 0.0820
3 0 7 -1.6103 0.0684
3 0 8 -3.4994 -0.0653
3 0 9 5.9287 -0.0936
3 0 10 -3.3904 0.0319
3 0 11 -0.5230 0.0596
3 0 12 1.7542 0.0942
3 0 13 -1.7905 -0.0381
3 0 15 -2.5226 -0.0117
3 1 0 0.9947 0.0015
3 1 1 3.5385 -0.1220
3 1 2 -8.6642 0.1305
3 1 3 4.1277 0.0313
3 1 4 4.7157 -0.1344
3 1 5 -4.9740 -0.0146
3 1 6 -1.1028 0.0888
3 1 7 1.2781 0.0779
3 1 8 2.2654 -0.0165
3 1 9 -0.0826 -0.1042
3 1 10 -3.9459 -0.0473
3 1 11 2.1679 0.0687
3 1 12 0.5444 0.0563
3 1 13 -0.6425 0.0120
3 1 14 3.1494 -0.0231
3 1 15 -4.2119 -0.1547
3 1 16 -0.0421 0.0563
3 1 17 1.9430 0.1974
3 2 0 -3.8658 0.0090
3 2 1 8.4760 0.0270
3 2 2 -2.8438 0.1306
3 2 3 0.1716 0.0150
3 2 4 -0.5276 -0.1232
3 2 5 -0.8342 -0.0906
3 2 6 -2.1516 0.0974
3 2 7 -0.6972 0.1391
3 2 8 6.8269 -0.0728
3 2 9 -1.9158 -0.1141
3 2 10 -5.6809 -0.0016
3 2 11 4.7181 0.0809
3 2 12 1.9972 -0.0016
3 2 13 -3.9057 0.0022
3 2 14 1.1014 0.0120
3 2 15 -0.7475 -0.0273
3 2 16 2.2126 -0.0586
3 2 17 -3.4210 0.1917
3 3 0 -10.6409 -0.1134
3 3 1 -1.1367 -0.0603
3 3 2 -6.2321 0.1890
3 3 3 8.4222 0.0236
3 3 4 5.8351 -0.1305
3 3 5 -1.2041 -0.0182
3 3 6 -4.3945 0.0662
3 3 7 -1.3741 0.0466
3 3 8 2.0798 -0.0320
3 3 9 -0.0856 -0.0934
3 3 10 -2.7419 -0.0141
3 3 11 1.8077 0.1144
3 3 12 1.5618 0.0181
3 3 13 -1.6264 -0.0230
3 3 14 2.9109 0.0272
3 3 15 -2.8823 -0.0340
3 3 16 1.2767 -0.2319
3 4 0 -6.0464 -0.0835
3 4 1 7.0433 -0.0170
3 4 2 -6.5293 0.1306
3 4 3 4.7800 0.0450
3 4 4 -2.8058 -0.1185
3 4 5 -1.9226 -0.1093
3 4 6 2.4608 0.0825
3 4 7 0.1382 0.1284
3 4 8 -2.4033 -0.0148
3 4 9 5.0017 -0.0726
3 4 10 -3.7890 -0.0103
3 4 11 -2.5410 -0.0250
3 4 12 5.5394 0.0176
3 4 13 -1.4289 0.0243
3 4 14 -0.7631 -0.0148
3 4 15 -0.6159 0.0016
3 4 16 1.8516 0.0906
3 5 0 -5.0807 -0.1735
3 5 1 9.6339 -0.0303
3 5 2 -8.3717 0.1942
3 5 3 3.0936 0.0211
3 5 4 -0.9747 -0.1039
3 5 5 -0.5293 -0.0456
3 5 6 0.9447 0.0269
3 5 7 3.4879 0.0409
3 5 8 -3.6481 0.0016
3 5 9 1.9049 -0.0458
3 5 10 -2.6488 0.0104
3 5 11 0.6467 0.0026
3 5 12 1.5379 -0.0028
3 5 13 -2.0303 0.0597
3 5 14 1.0435 0.0291
3 5 15 0.0732 -0.1529
3 5 16 -0.6204 0.1185
3 6 0 -0.4257 -0.1723
3 6 1 5.2123 -0.0583
3 6 2 -4.0478 0.1129
3 6 3 1.7352 0.0476
3 6 4 1.6300 -0.1026
3 6 5 -3.7704 -0.0906
3 6 6 -2.6984 0.1062
3 6 7 8.0108 0.1018
3 6 8 -4.0326 -0.0510
3 6 9 0.6476 -0.0635
3 6 10 -1.9937 0.0023
3 6 11 1.4104 0.0198
3 6 12 -0.4150 -0.0228
3 6 13 0.2551 0.0488
3 6 14 1.7490 0.0062
3 6 15 1.6064 -0.0504
3 6 16 -5.5639 -0.0260
3 7 0 2.1145 -0.2391
3 7 1 -1.9118 -0.0082
3 7 2 2.6206 0.1875
3 7 3 -5.1170 0.0333
3 7 4 6.3571 -0.1152
3 7 5 -1.1887 -0.0598
3 7 6 -5.0752 0.0325
3 7 7 6.2395 0.0609
3 7 8 -4.4173 0.0083
3 7 9 1.9335 -0.0570
3 7 10 0.2436 -0.0305
3 7 11 0.7084 0.0518
3 7 12 -2.5749 0.0115
3 7 13 1.0668 -0.0302
3 7 14 -1.2817 -0.0284
3 7 15 2.9822 0.2645
3 8 0 2.5251 -0.2255
3 8 1 -3.7548 -0.0100
3 8 2 5.7776 0.1226
3 8 3 -9.7749 0.0579
3 8 4 7.0247 -0.0879
3 8 5 -1.0275 -0.0857
3 8 6 -3.0786 0.0187
3 8 7 5.3496 0.0612
3 8 8 -3.6834 0.0158
3 8 9 0.2860 0.0159
3 8 10 1.2057 -0.0081
3 8 11 0.0782 -0.0684
3 8 12 -3.5614 0.0713
3 8 13 4.1089 -0.0195
3 8 14 0.3060 -0.1420
3 8 15 -2.2935 0.2293
3 9 0 2.2617 -0.2680
3 9 1 -2.5274 -0.0307
3 9 2 5.4819 0.1607
3 9 3 -5.1247 0.0359
3 9 4 2.6080 -0.0785
3 9 5 -1.9213 -0.0107
3 9 6 -1.2650 0.0262
3 9 7 3.7640 -0.0222
3 9 8 -0.7598 -0.0325
3 9 9 -1.5080 0.0237
3 9 10 1.8139 0.0631
3 9 11 1.1463 -0.0586
3 9 12 -5.1498 -0.0352
3 9 13 -0.1094 0.0491
3 9 14 5.6235 0.1383
3 10 0 3.1168 -0.2185
3 10 1 -1.0386 0.0111
3 10 2 -2.0641 0.1181
3 10 3 -0.0367 -0.0026
3 10 4 0.2056 -0.0864
3 10 5 2.7338 -0.0255
3 10 6 -1.9470 0.0830
3 10 7 0.2110 0.0607
3 10 8 -0.0726 -0.0317
3 10 9 -4.4105 -0.1079
3 10 10 5.9783 -0.0234
3 10 11 2.3620 0.1445
3 10 12 -5.0731 -0.0455
3 10 13 -4.1828 -0.1523
3 10 14 7.1372 0.2872
3 11 0 -0.3935 -0.2419
3 11 1 2.9939 -0.0033
3 11 2 -4.4835 0.1442
3 11 3 4.3869 0.0212
3 11 4 -3.8683 -0.1062
3 11 5 1.7996 -0.0389
3 11 6 -0.1758 0.0643
3 11 7 -0.0036 0.0333
3 11 8 1.7366 -0.0517
3 11 9 -5.7883 -0.0396
3 11 10 7.3956 -0.0311
3 11 11 -2.7313 0.1645
3 11 12 -1.1455 0.0875
3 11 13 0.1239 -0.3319
3 12 0 -3.7734 -0.2710
3 12 1 6.2654 -0.0101
3 12 2 -5.6623 0.0902
3 12 3 1.8315 0.0046
3 12 4 -1.6333 -0.0217
3 12 5 1.9396 0.0170
3 12 6 2.9559 -0.0113
3 12 7 -2.1658 0.0295
3 12 8 0.9553 -0.0163
3 12 9 -8.6479 0.0209
3 12 10 8.9156 0.0122
3 12 11 1.1782 -0.1356
3 12 12 -3.0963 0.2292
3 13 0 -6.1793 -0.2824
3 13 1 5.4672 0.0302
3 13 2 -0.2134 0.1423
3 13 3 -0.2953 0.0064
3 13 4 -0.5220 -0.0266
3 13 5 -4.4434 -0.0017
3 13 6 3.7565 -0.0351
3 13 7 0.6712 -0.0189
3 13 8 2.7442 0.0632
3 13 9 -5.0352 -0.0152
3 13 10 0.5136 0.0249
3 13 11 -0.1506 -0.3333
3 14 0 -4.1443 -0.1773
3 14 1 -4.7030 0.0610
3 14 2 2.1443 0.0882
3 14 3 -0.8553 -0.0663
3 14 4 4.6876 -0.1233
3 14 5 -4.8925 -0.0248
3 14 6 -0.3761 0.2093
3 14 7 3.5399 -0.0588
3 14 8 -0.5054 -0.0559
3 14 9 -1.1554 -0.1429
3 15 0 -4.2838 -0.1427
3 15 1 -1.5516 -0.0944
3 15 2 8.6396 -0.0369
3 15 3 -7.0712 0.0274
3 15 4 1.3679 0.0325
3 15 5 1.7960 0.0787
3 15 6 -1.9158 0.2493
4 -15 0 2.5444 0.2739
4 -15 1 -4.1081 -0.1068
4 -15 2 -1.6321 -0.2541
4 -14 0 3.5776 0.4885
4 -14 1 0.9559 -0.0848
4 -14 2 -0.5060 -0.2089
4 -14 3 -1.6185 0.0457
4 -14 4 5.6145 0.0659
4 -14 5 -6.8476 0.0306
4 -14 6 1.3064 0.0064
4 -13 0 6.0424 0.6103
4 -13 1 -0.5443 -0.1030
4 -13 2 -3.6463 -0.1849
4 -13 3 -2.3609 -0.0207
4 -13 4 5.8189 0.0532
4 -13 5 -0.5002 0.0306
4 -13 6 -1.8655 0.0233
4 -13 7 -0.8720 -0.0404
4 -13 8 2.8421 0.1134
4 -12 0 2.5123 0.5501
4 -12 1 -0.4329 -0.1375
4 -12 2 -2.8672 -0.1107
4 -12 3 2.1919 0.0243
4 -12 4 -0.4853 0.0456
4 -12 5 2.3603 -0.0093
4 -12 6 -2.4081 -0.0122
4 -12 7 -0.3596 -0.0163
4 -12 8 2.9616 0.1128
4 -12 9 -4.6899 -0.1065
4 -11 0 0.1292 0.6074
4 -11 1 2.1981 -0.1159
4 -11 2 -2.0676 -0.1444
4 -11 3 2.9768 0.0480
4 -11 4 -2.1064 0.0545
4 -11 5 1.5632 -0.0395
4 -11 6 -4.1197 -0.0277
4 -11 7 0.0385 0.0523
4 -11 8 3.8348 0.0524
4 -11 9 -3.3331 -0.0735
4 -10 0 -0.5340 0.6342
4 -10 1 0.5736 -0.1276
4 -10 2 -1.4696 -0.1212
4 -10 3 -0.2220 0.0359
4 -10 4 1.9338 0.0198
4 -10 5 0.4545 -0.0060
4 -10 6 -1.3041 -0.0209
4 -10 7 -0.3918 0.0392
4 -10 8 -0.7570 -0.0031
4 -10 9 0.3465 -0.0562
4 -10 10 4.3239 -0.0489
4 -9 0 -0.4879 0.6843
4 -9 1 1.2706 -0.1642
4 -9 2 0.7561 -0.1778
4 -9 3 -2.8291 0.0535
4 -9 4 4.0288 0.0539
4 -9 5 -2.5184 -0.0347
4 -9 6 0.1826 -0.0047
4 -9 7 2.1729 0.0743
4 -9 8 -2.6012 0.0049
4 -9 9 -2.1903 -0.0919
4 -9 10 -4.2574 -0.0315
4 -9 12 -1.5838 0.0261
4 -9 13 -2.0919 -0.0893
4 -8 0 -0.8820 0.6512
4 -8 1 0.9412 -0.1314
4 -8 2 3.0425 -0.0952
4 -8 3 -3.2121 0.0507
4 -8 4 0.3821 0.0403
4 -8 5 -1.7257 -0.0290
4 -8 6 -0.0036 -0.0457
4 -8 7 3.9568 0.0198
4 -8 8 -1.5538 0.0559
4 -8 9 2.3587 -0.0693
4 -8 10 -5.9212 -0.0386
4 -8 11 4.4773 0.0539
4 -8 12 -0.0536 0.0898
4 -8 13 -4.4957 -0.0824
4 -8 14 4.9662 0.0123
4 -7 0 -0.7760 0.7160
4 -7 1 -4.0109 -0.1167
4 -7 2 3.0779 -0.1586
4 -7 3 0.9099 0.0358
4 -7 4 -0.0078 0.0438
4 -7 5 3.8807 -0.0510
4 -7 6 -4.3309 -0.0218
4 -7 7 -0.0928 0.0606
4 -7 8 -1.5913 0.0342
4 -7 9 1.9462 -0.0574
4 -7 10 -1.6800 -0.0227
4 -7 11 0.8387 0.0310
4 -7 12 4.5123 0.0689
4 -7 13 -6.9296 -0.0664
4 -7 14 5.2962 -0.0023
4 -7 15 -2.0638 -0.0504
4 -6 0 1.4323 0.6734
4 -6 1 -2.4192 -0.1625
4 -6 2 2.4036 -0.1044
4 -6 3 1.5016 0.0404
4 -6 4 -4.2820 0.0321
4 -6 5 3.0119 -0.0049
4 -6 6 -2.0130 -0.0260
4 -6 7 0.6995 0.0265
4 -6 8 0.6831 0.0075
4 -6 9 -0.8709 -0.0615
4 -6 10 0.0796 -0.0422
4 -6 11 -0.2419 0.0919
4 -6 12 3.1895 0.0792
4 -6 13 -4.2354 -0.0842
4 -6 15 -0.7944 0.0709
4 -5 0 2.1358 0.6890
4 -5 1 -1.6130 -0.1419
4 -5 2 -3.8710 -0.1333
4 -5 3 1.6078 0.0443
4 -5 4 -1.0092 0.0379
4 -5 5 2.4184 -0.0557
4 -5 6 1.8752 -0.0212
4 -5 7 -0.5296 0.0689
4 -5 8 -1.3080 0.0146
4 -5 9 -1.5223 -0.0441
4 -5 10 -1.5416 -0.0288
4 -5 11 2.5720 0.0609
4 -5 12 2.7943 0.0415
4 -5 13 -0.9190 -0.0611
4 -5 14 -4.8578 -0.1046
4 -5 15 1.3275 0.1174
4 -5 16 2.7797 0.0222
4 -4 0 -2.1998 0.6098
4 -4 1 -2.8548 -0.1406
4 -4 2 -1.9485 -0.0634
4 -4 3 5.5749 0.0511
4 -4 4 1.8798 0.0345
4 -4 5 -0.0177 -0.0310
4 -4 6 -3.5338 -0.0317
4 -4 7 -0.2194 0.0289
4 -4 8 -1.0389 -0.0030
4 -4 9 1.5378 -0.0637
4 -4 10 -0.4013 0.0019
4 -4 11 1.4252 0.0887
4 -4 12 -0.7259 0.0538
4 -4 13 1.9546 -0.0450
4 -4 14 -4.8885 -0.1463
4 -3 0 3.7391 0.6586
4 -3 1 -3.5436 -0.1207
4 -3 2 -1.3324 -0.1368
4 -3 3 0.2009 0.0434
4 -3 4 -2.2897 0.0033
4 -3 5 6.1988 -0.0704
4 -3 6 -4.7826 0.0472
4 -3 7 0.9566 0.0935
4 -3 8 -1.6622 -0.0276
4 -3 9 3.2596 -0.0843
4 -3 10 1.9991 -0.0220
4 -3 11 -3.3218 0.0684
4 -3 12 -1.5321 0.0605
4 -3 13 5.1776 -0.0367
4 -2 0 3.3167 0.5711
4 -2 1 -5.9756 -0.1237
4 -2 2 2.1025 -0.0681
4 -2 3 -0.2689 0.0376
4 -2 4 -2.1459 -0.0035
4 -2 5 9.2639 -0.0451
4 -2 6 -7.2018 0.0291
4 -2 7 2.5195 0.0565
4 -2 8 -1.2903 -0.0374
4 -2 9 -1.6134 -0.0635
4 -2 10 0.0419 -0.0009
4 -2 11 0.6536 0.0736
4 -2 12 -1.1477 0.0598
4 -1 0 -0.3526 0.5609
4 -1 1 -3.4868 -0.1446
4 -1 2 1.2490 -0.0740
4 -1 3 1.8218 0.0474
4 -1 4 -2.5969 -0.0355
4 -1 5 1.6963 -0.0570
4 -1 6 -5.2843 0.0658
4 -1 7 4.6471 0.0657
4 -1 8 -1.0670 -0.0160
4 -1 9 3.3074 -0.0710
4 -1 10 -3.6423 -0.0291
4 -1 11 3.6605 0.0765
4 -1 12 -2.7102 0.0416
4 0 0 -3.2001 0.4674
4 0 1 1.6881 -0.1077
4 0 2 -4.1637 0.0150
4 0 3 3.4772 0.0626
4 0 4 0.8582 -0.0758
4 0 5 -0.2120 -0.0851
4 0 6 -1.9166 0.0550
4 0 7 4.7807 0.0739
4 0 8 -6.5634 -0.0137
4 0 9 5.0261 -0.0792
4 0 10 -4.5938 0.0002
4 0 11 4.9061 0.0617
4 0 12 -2.3223 0.0134
4 0 13 0.4179 0.0112
4 0 15 -0.3360 -0.0727
4 1 0 -3.3255 0.4737
4 1 1 8.1401 -0.1466
4 1 2 -5.8495 -0.0521
4 1 3 1.3377 0.0740
4 1 4 0.5123 -0.0416
4 1 5 -2.4801 -0.0552
4 1 6 -2.4196 0.0322
4 1 7 7.1876 0.0386
4 1 8 -6.4203 0.0080
4 1 9 2.9137 -0.0242
4 1 10 -0.9179 -0.0181
4 1 11 2.9668 0.0489
4 1 12 -2.7864 0.0174
4 1 13 1.6701 -0.0816
4 1 14 -1.5401 0.0092
4 1 15 1.3239 0.0022
4 1 16 -2.4239 -0.0308
4 2 0 -7.8057 0.3677
4 2 1 5.3475 -0.1104
4 2 2 3.3886 -0.0007
4 2 3 -0.4825 0.0599
4 2 4 -4.8811 -0.0380
4 2 5 -0.8787 -0.0652
4 2 6 2.2618 0.0261
4 2 7 4.9805 0.0932
4 2 8 -4.4923 -0.0333
4 2 9 -2.0872 -0.0953
4 2 10 2.7463 0.0179
4 2 11 0.5110 0.0649
4 2 12 -0.3801 0.0260
4 2 13 0.4184 -0.0247
4 2 14 -3.4189 -0.0450
4 2 15 3.1436 -0.0436
4 2 16 0.1815 0.0454
4 2 17 -0.8989 0.2102
4 3 0 -2.5849 0.3815
4 3 1 -2.9239 -0.1500
4 3 2 0.0702 -0.0330
4 3 3 -0.1684 0.0255
4 3 4 1.4125 -0.0447
4 3 5 0.5357 0.0146
4 3 6 2.0338 0.0648
4 3 7 -1.2790 0.0092
4 3 8 0.6413 -0.0337
4 3 9 -6.3016 -0.0611
4 3 10 4.3757 -0.0024
4 3 11 1.9707 0.0602
4 3 12 -0.8016 0.0105
4 3 13 -3.8972 0.0062
4 3 14 1.8923 0.0215
4 3 15 4.7729 -0.0703
4 3 16 -3.8671 -0.1130
4 3 17 -1.4005 0.2895
4 4 0 5.1213 0.2442
4 4 1 0.2103 -0.1127
4 4 2 -1.2059 0.0468
4 4 3 1.7259 0.0647
4 4 4 -2.5093 -0.0643
4 4 5 -4.4177 -0.0924
4 4 6 7.1907 0.0439
4 4 7 -5.4301 0.0895
4 4 8 2.0512 -0.0077
4 4 9 0.2652 -0.0706
4 4 10 4.0898 0.0102
4 4 11 -4.4807 0.0628
4 4 12 1.2181 -0.0129
4 4 13 -1.3005 -0.0619
4 4 14 -1.0073 -0.0001
4 4 15 2.9866 -0.0391
4 4 16 -0.1153 0.0331
4 4 17 -1.4732 0.2651
4 5 0 6.5659 0.2497
4 5 1 0.8099 -0.1001
4 5 2 -7.1372 0.0236
4 5 3 4.1379 0.0084
4 5 4 1.2019 -0.0849
4 5 5 -3.4343 -0.0082
4 5 6 6.7639 0.0780
4 5 7 -5.6012 0.0567
4 5 8 0.2207 -0.0326
4 5 9 -0.6691 -0.0784
4 5 10 2.4539 -0.0339
4 5 11 -0.0412 0.0610
4 5 12 1.4856 0.0674
4 5 13 -3.1770 -0.0228
4 5 14 -0.9338 -0.0308
4 5 15 -0.1482 -0.0781
4 5 16 3.1680 0.0755
4 6 0 6.8422 0.1531
4 6 1 2.1511 -0.0851
4 6 2 -5.9666 0.0273
4 6 3 1.4623 0.0420
4 6 4 3.7023 -0.0571
4 6 5 -4.1043 -0.0689
4 6 6 2.1288 0.0335
4 6 7 0.1639 0.1165
4 6 8 -1.1166 -0.0075
4 6 9 -2.5170 -0.0786
4 6 10 2.4025 -0.0233
4 6 11 1.3534 0.0047
4 6 12 -0.7325 0.0330
4 6 13 -0.9347 0.0999
4 6 14 4.1050 -0.0900
4 6 15 -6.9302 -0.1263
4 6 16 4.7454 0.1385
4 7 0 1.7433 0.1624
4 7 1 -0.4781 -0.0469
4 7 2 0.3823 0.0497
4 7 3 -2.4263 0.0021
4 7 4 3.1950 -0.0722
4 7 5 -1.8306 0.0038
4 7 6 1.8065 0.0523
4 7 7 0.9218 -0.0019
4 7 8 -2.0121 -0.0376
4 7 9 -1.7264 -0.0200
4 7 10 1.5707 0.0427
4 7 11 0.8285 0.0440
4 7 12 -0.3914 -0.0665
4 7 13 -1.7786 0.0032
4 7 14 7.1887 -0.0187
4 7 15 -10.3205 0.0403
4 7 16 3.6907 0.0167
4 8 0 -3.5031 0.0730
4 8 1 -0.2025 -0.0824
4 8 2 4.3004 0.0466
4 8 3 -3.3927 0.0207
4 8 4 1.8978 -0.0440
4 8 5 -1.7622 -0.0340
4 8 6 0.6840 0.0704
4 8 7 -0.5151 0.0301
4 8 8 1.5483 -0.0777
4 8 9 -0.0556 -0.0364
4 8 10 -1.3693 0.0678
4 8 11 -1.3051 0.0438
4 8 12 2.2811 0.0138
4 8 13 -2.0007 -0.0722
4 8 14 6.2234 -0.0600
4 8 15 -4.6777 0.0821
4 9 0 -3.6408 0.0951
4 9 1 1.4228 -0.0431
4 9 2 2.0651 0.0437
4 9 3 -0.0630 -0.0156
4 9 4 0.3722 -0.0757
4 9 5 -1.5229 -0.0143
4 9 6 -0.1160 0.0908
4 9 7 -1.2538 0.0601
4 9 8 2.8364 -0.0306
4 9 9 1.2470 -0.0605
4 9 10 -1.0748 -0.0576
4 9 11 -3.2943 -0.0058
4 9 12 2.0373 0.1452
4 9 13 -0.5377 -0.0471
4 9 14 -0.7407 -0.0766
4 9 15 3.6990 0.1495
4 10 0 0.8383 -0.0275
4 10 1 0.0043 -0.0235
4 10 2 -3.0909 0.0823
4 10 3 3.9598 0.0250
4 10 4 -2.3085 -0.0752
4 10 5 1.1456 -0.0377
4 10 6 0.0155 0.0137
4 10 7 -0.8964 0.0441
4 10 8 0.4108 0.0683
4 10 9 -0.5867 -0.0266
4 10 10 0.5033 -0.1212
4 10 11 -1.6883 0.0057
4 10 12 2.2012 0.1098
4 10 13 2.6175 0.0613
4 10 14 -5.3443 -0.2263
4 11 0 -1.1268 0.0150
4 11 1 -1.5021 0.0065
4 11 2 -3.9279 0.0406
4 11 3 10.0945 -0.0146
4 11 4 -3.6777 -0.1001
4 11 5 -2.6006 -0.0217
4 11 6 -1.3496 0.0652
4 11 7 2.0188 0.0253
4 11 8 0.9878 -0.0297
4 11 9 0.6880 0.0014
4 11 10 1.7930 0.0475
4 11 11 -5.7813 0.0235
4 11 12 1.0121 -0.1618
4 11 13 4.4832 0.2248
4 12 0 -1.1777 -0.0731
4 12 1 1.7041 -0.0213
4 12 2 -5.4546 0.0943
4 12 3 5.8753 0.0138
4 12 4 0.6460 -0.0553
4 12 5 -0.5336 -0.0044
4 12 6 -2.0228 0.0230
4 12 7 -1.2024 0.0052
4 12 8 1.7099 -0.0294
4 12 9 0.9945 -0.0037
4 12 10 0.0295 0.1034
4 12 11 -4.8797 0.0215
4 12 12 6.1300 -0.3029
4 13 0 -3.2454 -0.0060
4 13 1 0.5471 -0.0140
4 13 2 0.5859 0.1062
4 13 3 0.4159 0.0523
4 13 4 1.0394 -0.0250
4 13 5 -1.4494 -0.0781
4 13 6 -0.5758 -0.0857
4 13 7 -2.5103 0.0275
4 13 8 1.6694 0.0965
4 13 9 4.4434 -0.0129
4 13 10 0.3741 -0.0349
4 13 11 -8.5478 0.0136
4 14 0 1.8215 -0.0520
4 14 1 -4.3271 -0.0262
4 14 2 2.5218 0.0979
4 14 3 -5.0585 0.0276
4 14 4 2.9017 -0.0914
4 14 5 3.4679 -0.0691
4 14 6 0.9088 0.0502
4 14 7 -4.2264 0.0732
4 14 8 -1.9477 0.0064
4 14 9 2.6589 -0.0972
4 15 0 0.7081 -0.0691
4 15 1 -4.4396 -0.0568
4 15 2 8.5929 -0.0436
4 15 3 -2.6874 0.0230
4 15 4 -3.5512 0.0844
4 15 5 0.3705 0.0800
4 15 6 4.2265 -0.0108
5 -14 0 -0.2728 0.4837
5 -14 1 1.2632 -0.1041
5 -14 2 2.6593 -0.1069
5 -14 3 0.8140 0.0996
5 -14 4 -3.3956 0.0535
5 -14 5 -1.1386 -0.0517
5 -13 0 2.9027 0.6361
5 -13 1 -2.8897 -0.1521
5 -13 2 1.0298 -0.1983
5 -13 3 1.2370 0.0383
5 -13 4 -1.6427 0.0957
5 -13 5 -0.3429 0.0109
5 -13 6 0.3991 -0.0722
5 -13 7 3.1205 0.0299
5 -13 8 -2.9879 -0.0024
5 -12 0 0.3582 0.6728
5 -12 1 -3.3289 -0.1336
5 -12 2 0.5341 -0.2004
5 -12 3 2.2630 0.0191
5 -12 4 -0.9503 0.0888
5 -12 5 0.1353 0.0183
5 -12 6 -3.0888 -0.0264
5 -12 7 7.6981 0.0052
5 -12 8 -4.6821 -0.0393
5 -12 9 -2.0249 -0.0384
5 -12 10 1.1422 0.1244
5 -11 0 -0.4029 0.6726
5 -11 1 1.0546 -0.0772
5 -11 2 -1.4203 -0.1749
5 -11 3 -0.9943 0.0174
5 -11 4 0.1177 0.0599
5 -11 5 4.6409 -0.0271
5 -11 6 -6.3102 -0.0036
5 -11 7 3.9110 0.0302
5 -11 8 -2.3840 0.0021
5 -11 9 2.1108 -0.0385
5 -11 10 -0.3563 0.0427
5 -10 0 -0.2080 0.7760
5 -10 1 3.1092 -0.0921
5 -10 2 -1.4058 -0.2037
5 -10 3 -2.3174 0.0277
5 -10 4 -1.9867 0.0723
5 -10 5 3.1759 -0.0262
5 -10 6 -0.4436 -0.0175
5 -10 7 4.1089 0.0125
5 -10 8 -4.1435 0.0228
5 -10 9 0.1652 -0.0233
5 -10 10 -0.1302 -0.0211
5 -9 0 -2.0532 0.8056
5 -9 1 3.2518 -0.1837
5 -9 2 -0.7378 -0.2609
5 -9 3 -1.0402 0.0471
5 -9 4 -0.7950 0.1340
5 -9 5 -0.9152 -0.0073
5 -9 6 0.8117 -0.0569
5 -9 7 3.0535 0.0169
5 -9 8 -1.8148 0.0421
5 -9 9 0.2887 -0.0239
5 -9 10 -4.9242 -0.0563
5 -9 13 5.0551 -0.0633
5 -8 0 -2.7279 0.8761
5 -8 1 1.1143 -0.1486
5 -8 2 0.1469 -0.2460
5 -8 3 0.8815 0.0361
5 -8 4 0.6593 0.0914
5 -8 5 -3.1789 0.0156
5 -8 6 -1.4476 -0.0380
5 -8 7 3.3258 -0.0116
5 -8 8 -0.5314 0.0361
5 -8 9 3.2155 -0.0173
5 -8 10 -2.2722 -0.0648
5 -8 11 1.6207 0.0370
5 -8 12 -4.0392 0.0953
5 -8 13 0.8389 -0.0427
5 -8 14 -0.0149 -0.1567
5 -7 0 0.0630 0.8709
5 -7 1 -1.5767 -0.1570
5 -7 2 -0.1766 -0.2468
5 -7 3 -0.9384 0.0557
5 -7 4 2.5124 0.0760
5 -7 5 2.4008 -0.0374
5 -7 6 -2.9803 -0.0267
5 -7 7 0.2397 0.0544
5 -7 8 -3.2314 0.0435
5 -7 9 2.3305 -0.0444
5 -7 10 -0.0146 -0.0627
5 -7 11 -0.0891 0.0322
5 -7 12 2.4042 0.0607
5 -7 13 -1.1319 -0.0049
5 -7 14 -1.6928 -0.1633
5 -7 15 0.4482 0.1203
5 -6 0 1.2645 0.9302
5 -6 1 -2.2280 -0.1675
5 -6 2 3.2378 -0.2440
5 -6 3 -0.7108 0.0346
5 -6 4 -1.5991 0.0855
5 -6 5 0.8184 -0.0055
5 -6 6 -2.6339 -0.0392
5 -6 7 0.8447 0.0248
5 -6 8 0.3203 0.0400
5 -6 9 3.2073 -0.0416
5 -6 10 0.8007 -0.0610
5 -6 11 -5.1987 0.0577
5 -6 12 1.9465 0.0573
5 -6 13 1.8367 -0.0149
5 -6 14 -2.3068 -0.1629
5 -6 15 0.9197 0.0310
5 -5 0 1.1725 0.8829
5 -5 1 -0.5552 -0.2238
5 -5 2 -0.6257 -0.2319
5 -5 3 1.5498 0.0543
5 -5 4 -2.5185 0.1165
5 -5 5 0.4897 -0.0075
5 -5 6 1.6263 -0.0665
5 -5 7 0.8248 0.0128
5 -5 8 -1.3008 0.0439
5 -5 9 -0.5836 -0.0240
5 -5 10 2.0442 -0.0168
5 -5 11 -3.4943 0.0328
5 -5 12 -0.4721 0.0299
5 -5 13 4.8861 -0.0345
5 -5 14 -2.6294 -0.0827
5 -5 15 -1.8257 -0.0529
5 -5 16 2.7908 0.2495
5 -4 0 -1.7136 0.9359
5 -4 1 0.3268 -0.1820
5 -4 2 -4.1325 -0.2288
5 -4 3 8.2647 0.0357
5 -4 4 -1.1931 0.0780
5 -4 5 -0.6833 0.0079
5 -4 6 -3.4151 -0.0140
5 -4 7 -0.6381 0.0166
5 -4 8 2.0311 0.0181
5 -4 9 -1.3033 -0.0609
5 -4 10 2.5973 -0.0334
5 -4 11 0.4393 0.0075
5 -4 12 -1.7164 0.0870
5 -4 13 -0.3566 -0.0010
5 -4 14 1.2675 -0.0391
5 -4 15 -1.8135 -0.0794
5 -4 16 2.7363 0.1499
5 -3 0 -1.5024 0.8794
5 -3 1 3.3044 -0.1709
5 -3 2 -4.5305 -0.2295
5 -3 3 5.1220 0.0639
5 -3 4 -4.5493 0.0788
5 -3 5 2.6872 -0.0675
5 -3 6 -2.7455 -0.0352
5 -3 7 0.4667 0.0597
5 -3 8 3.2017 0.0229
5 -3 9 -2.3697 -0.0150
5 -3 10 2.9983 0.0066
5 -3 11 -2.7855 -0.0150
5 -3 12 -0.2694 0.0164
5 -3 13 -1.6199 -0.0476
5 -3 14 5.0140 -0.0185
5 -3 15 -4.1768 0.0559
5 -3 16 0.6659 0.1229
5 -2 0 -3.7978 0.8936
5 -2 1 -0.5946 -0.1991
5 -2 2 2.3872 -0.2162
5 -2 3 2.6424 0.0368
5 -2 4 -6.0433 0.0762
5 -2 5 4.8937 0.0076
5 -2 6 0.9656 -0.0045
5 -2 7 -3.2753 0.0292
5 -2 8 3.3140 -0.0344
5 -2 9 -4.3791 -0.0414
5 -2 10 1.3572 0.0015
5 -2 11 -2.2431 0.0663
5 -2 12 3.3582 -0.0079
5 -2 13 -1.6164 -0.0564
5 -2 14 3.5236 -0.0273
5 -1 0 -2.3109 0.8529
5 -1 1 -4.4271 -0.1850
5 -1 2 2.4925 -0.1860
5 -1 3 0.5628 0.0449
5 -1 4 -1.3409 0.0678
5 -1 5 -1.2662 -0.0130
5 -1 6 4.1750 -0.0204
5 -1 7 -5.4879 0.0143
5 -1 8 2.4735 -0.0116
5 -1 9 -0.4827 -0.0160
5 -1 10 4.0340 -0.0238
5 -1 11 -1.1494 0.0759
5 -1 12 -1.2837 0.0323
5 0 0 -0.8412 0.8372
5 0 1 -2.6539 -0.2009
5 0 2 0.5922 -0.2128
5 0 3 0.4402 0.0595
5 0 4 0.8329 0.0834
5 0 5 -3.2994 -0.0086
5 0 6 9.0519 -0.0032
5 0 7 -5.0627 0.0080
5 0 8 -1.2850 -0.0107
5 0 9 -1.6090 -0.0382
5 0 10 1.9070 0.0002
5 0 11 1.9227 0.0303
5 0 12 -2.9886 0.0148
5 0 13 -0.7132 -0.0059
5 1 0 4.3848 0.7894
5 1 1 -0.1940 -0.1327
5 1 2 -2.0589 -0.2026
5 1 3 1.6231 0.0210
5 1 4 -1.8351 0.0732
5 1 5 -1.5607 0.0039
5 1 6 6.0248 0.0087
5 1 7 -6.7351 -0.0030
5 1 8 1.0093 -0.0227
5 1 9 1.7847 -0.0449
5 1 10 -0.5982 0.0106
5 1 11 2.3133 0.0386
5 1 12 -0.7110 0.0711
5 1 13 -4.4424 -0.0321
5 1 14 6.6748 -0.0733
5 1 15 -4.0748 -0.0279
5 1 16 1.7039 0.0287
5 1 17 -1.4597 0.1647
5 2 0 6.5577 0.7532
5 2 2 -6.1730 -0.1890
5 2 3 7.2403 0.0413
5 2 4 -2.4845 0.0620
5 2 5 -1.7495 -0.0152
5 2 6 6.1505 0.0108
5 2 7 -4.5340 0.0603
5 2 8 1.2023 -0.0126
5 2 9 1.4915 -0.0835
5 2 10 -2.1951 -0.0255
5 2 11 -1.1216 0.0491
5 2 12 1.7795 0.0230
5 2 13 -1.3118 -0.0132
5 2 14 4.4431 0.0162
5 2 15 -8.0765 -0.0027
5 2 16 4.4384 -0.0645
5 2 17 3.2280 0.1906
5 3 0 8.6735 0.6951
5 3 1 1.4008 -0.1432
5 3 2 -9.0100 -0.1610
5 3 3 4.1923 0.0224
5 3 4 1.8360 0.0405
5 3 5 -3.4007 0.0209
5 3 6 3.6775 0.0285
5 3 7 -2.4041 -0.0008
5 3 8 1.1464 -0.0456
5 3 9 0.5104 -0.0244
5 3 10 -2.4150 -0.0131
5 3 11 0.5344 0.0662
5 3 12 -0.1428 0.0023
5 3 13 0.9623 -0.0513
5 3 14 3.0559 0.0251
5 3 15 -4.1237 0.0725
5 3 16 -0.2461 -0.1056
5 3 17 1.1184 0.1017
5 4 0 0.8710 0.6198
5 4 1 3.3874 -0.1635
5 4 2 -2.5826 -0.1370
5 4 3 1.6789 0.0529
5 4 4 2.3734 0.0409
5 4 5 -6.3680 -0.0216
5 4 6 0.9414 -0.0017
5 4 7 1.3677 0.0225
5 4 8 -0.7159 -0.0168
5 4 9 2.7375 -0.0370
5 4 10 0.9599 0.0234
5 4 11 -0.9047 0.0615
5 4 12 -6.8689 -0.0008
5 4 13 6.8434 -0.0526
5 4 14 1.5327 -0.0584
5 4 15 -3.6661 -0.0069
5 4 16 -1.6330 0.1169
5 4 17 2.3715 0.0266
5 5 0 -2.8647 0.6108
5 5 1 -0.4875 -0.0772
5 5 2 0.4357 -0.1257
5 5 3 1.2024 -0.0083
5 5 4 2.1017 -0.0044
5 5 5 -1.5694 0.0115
5 5 6 -1.4202 0.0515
5 5 7 1.1543 0.0133
5 5 8 -0.4917 -0.0210
5 5 9 2.0085 -0.0437
5 5 10 -2.4819 0.0085
5 5 11 1.1344 0.0112
5 5 12 -2.4882 -0.0034
5 5 13 3.7155 -0.0198
5 5 14 -1.4140 0.0328
5 5 15 0.0280 -0.0264
5 5 16 -0.5991 0.2181
5 6 0 2.2761 0.4911
5 6 1 -1.2678 -0.1338
5 6 2 0.7426 -0.0691
5 6 3 0.4330 0.0546
5 6 4 -2.0310 0.0154
5 6 5 0.8203 -0.0298
5 6 6 -0.1850 0.0038
5 6 7 0.3364 0.0262
5 6 8 -0.5667 -0.0222
5 6 9 0.8805 -0.0454
5 6 10 0.6863 0.0306
5 6 11 -1.1792 0.0406
5 6 12 -1.4719 -0.0027
5 6 13 1.2423 -0.0019
5 6 14 1.0768 -0.0294
5 6 15 -1.0062 -0.1116
5 6 16 2.3678 0.3516
5 7 0 0.6983 0.4442
5 7 1 0.1819 -0.0950
5 7 2 -0.9554 -0.0464
5 7 3 1.2587 0.0328
5 7 4 -1.4713 -0.0141
5 7 5 -2.2368 -0.0143
5 7 6 3.9496 0.0464
5 7 7 1.1086 0.0185
5 7 8 -2.6028 -0.0619
5 7 9 -2.4042 -0.0444
5 7 10 5.1713 0.0132
5 7 11 -2.5147 0.0933
5 7 12 0.5733 0.0401
5 7 13 -0.6861 -0.0687
5 7 14 0.4794 -0.1474
5 7 15 -3.2781 0.0168
5 7 16 4.4860 0.3255
5 8 0 -4.1517 0.3409
5 8 1 3.0528 -0.1455
5 8 2 -0.5689 -0.0558
5 8 3 1.9730 0.0625
5 8 4 1.3974 0.0150
5 8 5 -6.5601 -0.0237
5 8 6 2.4483 0.0161
5 8 7 2.1408 0.0305
5 8 8 -0.3419 -0.0262
5 8 9 -2.8586 -0.0402
5 8 10 3.7429 -0.0045
5 8 11 -3.4372 0.0076
5 8 12 2.7422 0.0402
5 8 13 0.9702 0.0603
5 8 14 -2.3322 -0.0897
5 8 15 -2.2355 -0.0045
5 9 0 -6.9271 0.2886
5 9 1 2.9314 -0.0435
5 9 2 -0.4233 -0.0171
5 9 3 1.5407 0.0083
5 9 4 2.7200 -0.0290
5 9 5 -5.3598 0.0091
5 9 6 -1.0975 0.0223
5 9 7 3.8178 -0.0001
5 9 8 1.1014 0.0028
5 9 9 -2.8149 0.0251
5 9 10 1.6487 0.0082
5 9 11 -1.2086 -0.0943
5 9 12 0.0077 -0.0292
5 9 13 2.0965 0.0720
5 9 14 -3.2444 0.0401
5 9 15 -0.2666 0.0133
5 10 0 -1.1745 0.2274
5 10 1 -0.9457 -0.1018
5 10 2 -2.2459 -0.0401
5 10 3 0.6897 0.0240
5 10 4 1.0469 -0.0043
5 10 5 0.7639 0.0266
5 10 6 -1.9036 0.0367
5 10 7 2.1027 -0.0189
5 10 8 0.4941 -0.0534
5 10 9 -2.7804 -0.0280
5 10 10 -1.3620 0.0133
5 10 11 1.8518 0.1008
5 10 12 1.1866 0.0155
5 10 13 1.8661 -0.1589
5 10 14 -1.4411 0.1110
5 11 0 1.2884 0.2379
5 11 1 -3.9743 -0.0264
5 11 2 -0.6750 -0.0092
5 11 3 2.3076 -0.0428
5 11 4 -2.6599 -0.0605
5 11 5 1.7934 -0.0247
5 11 6 1.0474 0.0834
5 11 7 -1.3276 0.0733
5 11 8 -0.4792 -0.0528
5 11 9 0.6554 -0.0793
5 11 10 1.7868 -0.0037
5 11 11 -1.3861 0.1391
5 11 12 -0.1556 0.0455
5 11 13 -1.7910 -0.3038
5 12 0 1.5064 0.1247
5 12 1 2.6646 -0.1448
5 12 2 1.0681 0.0191
5 12 3 -1.6125 0.0538
5 12 4 -5.2919 0.0185
5 12 5 2.1326 -0.0043
5 12 6 8.1618 0.0305
5 12 7 -5.3600 -0.0232
5 12 8 -2.8135 -0.0145
5 12 9 0.9984 0.0185
5 12 10 3.3231 -0.0342
5 12 11 -5.1928 -0.1086
5 12 12 4.3180 0.2506
5 13 0 -1.8359 0.1995
5 13 1 2.0876 -0.0255
5 13 2 1.7595 -0.0721
5 13 3 1.2485 0.0121
5 13 4 -3.2617 0.0338
5 13 5 -7.5959 0.0099
5 13 6 9.0811 -0.0799
5 13 7 0.7407 -0.0594
5 13 8 -1.8155 0.1055
5 13 9 -3.1621 0.0873
5 13 10 5.4975 -0.0040
5 13 11 -2.8820 -0.3426
5 14 0 -2.1609 0.0575
5 14 1 0.9713 0.0425
5 14 2 0.1435 -0.1364
5 14 3 -1.1443 -0.0096
5 14 4 1.4068 -0.0416
5 14 5 -4.5936 0.0488
5 14 6 7.0007 0.0212
5 14 7 -0.2581 0.0762
5 14 8 -2.0418 0.0070
5 14 9 -3.6041 -0.1226
5 15 4 3.0626 0.0055
6 -14 0 -0.5413 0.4068
6 -14 1 -1.5725 -0.1097
6 -14 2 3.3602 -0.1689
6 -14 3 0.7668 0.0587
6 -14 4 -3.0566 0.0942
6 -13 0 0.8113 0.5992
6 -13 1 -0.4141 -0.1586
6 -13 2 0.9046 -0.2494
6 -13 3 -0.4018 0.0191
6 -13 4 -0.9939 0.1313
6 -13 5 0.8952 0.0282
6 -13 6 -0.1864 -0.0578
6 -13 7 0.2045 -0.0518
6 -12 0 -3.2163 0.6497
6 -12 1 0.5023 -0.1417
6 -12 2 1.2811 -0.2402
6 -12 3 1.2461 0.0546
6 -12 4 -1.3630 0.1618
6 -12 6 -1.0675 -0.0748
6 -12 7 0.2233 -0.0611
6 -12 8 3.2054 0.0513
6 -12 9 -3.9348 -0.0264
6 -11 0 -2.1912 0.6709
6 -11 1 0.1749 -0.1389
6 -11 2 -0.5226 -0.2800
6 -11 3 2.6951 0.0376
6 -11 4 -1.0175 0.1659
6 -11 5 1.1634 0.0212
6 -11 6 0.3546 -0.0882
6 -11 7 -5.0084 -0.0444
6 -11 8 2.6273 0.0635
6 -11 9 0.9804 0.0043
6 -11 10 0.6083 -0.0520
6 -11 11 -1.0058 0.0808
6 -10 0 -0.8213 0.7519
6 -10 1 -0.8581 -0.0676
6 -10 2 -0.4260 -0.2803
6 -10 3 3.1421 0.0150
6 -10 4 0.0636 0.1563
6 -10 5 -2.5252 0.0270
6 -10 6 0.7993 -0.0888
6 -10 7 -0.7097 -0.0252
6 -10 8 3.0444 0.0343
6 -10 10 -0.6023 -0.0633
6 -10 11 0.5733 0.1139
6 -9 0 0.1270 0.8162
6 -9 1 -2.4996 -0.1627
6 -9 2 0.9618 -0.2906
6 -9 3 -0.1393 0.0594
6 -9 4 0.6512 0.1719
6 -9 5 -0.0198 -0.0063
6 -9 6 0.4893 -0.0966
6 -9 7 -2.2710 -0.0047
6 -9 8 2.6907 0.0310
6 -9 9 -0.8433 -0.0017
6 -9 10 0.0712 -0.0275
6 -9 11 -1.5898 0.0571
6 -9 12 -1.8131 0.0121
6 -9 13 5.5339 -0.0642
6 -8 0 0.4537 0.8576
6 -8 1 -3.3397 -0.1406
6 -8 2 1.8495 -0.2758
6 -8 3 1.9112 0.0609
6 -8 4 -0.9616 0.1754
6 -8 5 -0.7281 -0.0055
6 -8 6 0.9836 -0.0970
6 -8 7 -2.7820 -0.0314
6 -8 8 2.0201 0.0514
6 -8 9 1.1568 -0.0074
6 -8 10 2.1269 -0.0320
6 -8 11 -1.5739 0.0150
6 -8 12 -4.3910 0.0740
6 -8 13 1.8836 -0.0322
6 -7 0 1.0194 0.8976
6 -7 1 1.3948 -0.2004
6 -7 2 -0.9831 -0.3411
6 -7 3 0.8624 0.0859
6 -7 4 -1.0746 0.2104
6 -7 5 -1.4594 -0.0066
6 -7 6 2.7857 -0.1077
6 -7 7 0.1742 -0.0260
6 -7 8 -0.9050 0.0663
6 -7 9 -0.1412 -0.0023
6 -7 10 -1.1822 -0.0464
6 -7 11 -0.8520 -0.0253
6 -7 12 1.5772 0.0697
6 -7 13 0.7670 0.0303
6 -7 14 -0.7091 -0.0010
6 -7 15 3.3140 -0.1178
6 -6 0 -0.2672 0.9530
6 -6 1 2.0240 -0.1177
6 -6 2 -1.2877 -0.3190
6 -6 3 1.3182 0.0320
6 -6 4 1.6203 0.1604
6 -6 5 -2.9765 0.0178
6 -6 6 -3.0060 -0.0870
6 -6 7 1.9668 -0.0267
6 -6 8 1.3237 0.0513
6 -6 9 2.9551 0.0164
6 -6 10 0.3453 -0.0582
6 -6 11 -3.2743 -0.0175
6 -6 12 -0.7473 0.0621
6 -6 13 -1.1909 0.0407
6 -6 14 1.1778 -0.0097
6 -6 15 3.7181 -0.1206
6 -5 0 -2.1270 0.9830
6 -5 1 0.4082 -0.2311
6 -5 2 -0.4063 -0.3515
6 -5 3 0.8273 0.0734
6 -5 4 -0.2232 0.1902
6 -5 5 1.5791 0.0144
6 -5 6 -3.7696 -0.0908
6 -5 7 2.6622 -0.0135
6 -5 8 1.8365 0.0377
6 -5 9 -3.2292 0.0125
6 -5 10 2.1134 -0.0334
6 -5 11 -1.0401 -0.0008
6 -5 12 -2.3607 -0.0145
6 -5 13 1.9312 0.0057
6 -5 14 0.3542 0.0412
6 -5 15 0.3759 0.0334
6 -5 16 0.2494 -0.0591
6 -4 0 1.5554 1.0136
6 -4 1 -2.3150 -0.1763
6 -4 2 -3.1788 -0.3045
6 -4 3 5.9713 0.0626
6 -4 4 -3.8711 0.1595
6 -4 5 4.3418 -0.0037
6 -4 6 -2.8564 -0.0913
6 -4 7 -2.9834 -0.0214
6 -4 8 3.1169 0.0536
6 -4 9 -3.2313 0.0169
6 -4 10 3.5346 -0.0357
6 -4 11 1.5995 -0.0115
6 -4 12 -2.4319 0.0017
6 -4 13 1.8299 0.0321
6 -4 14 -1.8109 -0.0339
6 -4 15 -1.6800 0.0622
6 -4 16 2.5168 -0.0297
6 -3 0 2.8719 1.0168
6 -3 1 -0.2667 -0.2044
6 -3 2 -4.5378 -0.3393
6 -3 3 5.0401 0.0489
6 -3 4 -4.5333 0.1876
6 -3 5 2.1875 0.0105
6 -3 6 1.2812 -0.1056
6 -3 7 -2.8593 -0.0376
6 -3 8 3.3644 0.0369
6 -3 9 -2.6685 0.0250
6 -3 10 2.1299 0.0315
6 -3 11 1.5761 -0.0021
6 -3 12 -4.7704 -0.0116
6 -3 13 -0.3775 0.0125
6 -3 14 3.7003 -0.0880
6 -3 15 -0.9330 -0.0132
6 -3 16 -0.8897 0.0661
6 -2 0 0.9153 1.0630
6 -2 1 -1.0224 -0.1628
6 -2 2 0.6351 -0.3331
6 -2 3 1.6892 0.0347
6 -2 4 0.7055 0.1582
6 -2 5 -4.9772 0.0172
6 -2 6 5.2129 -0.0638
6 -2 7 -3.5139 -0.0091
6 -2 8 1.9916 0.0219
6 -2 9 0.3349 -0.0090
6 -2 10 -3.2856 -0.0065
6 -2 11 1.0323 -0.0044
6 -2 12 1.3594 0.0022
6 -2 13 -0.4291 -0.0037
6 -2 14 1.9060 0.0378
6 -2 15 0.0713 -0.0465
6 -2 16 -2.7764 -0.0567
6 -2 17 -0.1031 0.2193
6 -1 0 3.5575 1.0088
6 -1 1 -1.3041 -0.1962
6 -1 2 1.7256 -0.2949
6 -1 3 -9.0934 0.0721
6 -1 4 11.4391 0.1718
6 -1 5 -7.4218 -0.0042
6 -1 6 4.5644 -0.1098
6 -1 7 -4.4018 -0.0487
6 -1 8 -0.0788 0.0233
6 -1 9 4.0363 0.0466
6 -1 10 -1.3015 0.0283
6 -1 11 0.3630 0.0048
6 -1 12 0.8138 0.0055
6 -1 13 -0.2423 -0.0594
6 -1 14 -3.6078 0.0112
6 -1 15 1.3469 0.0135
6 -1 16 1.5751 -0.0665
6 -1 17 -1.3082 0.1748
6 0 0 0.2065 1.0466
6 0 1 -1.8542 -0.2000
6 0 2 5.7674 -0.3512
6 0 3 -8.1802 0.0625
6 0 4 12.2284 0.1924
6 0 5 -10.1419 0.0054
6 0 6 2.3365 -0.0780
6 0 7 3.4334 -0.0322
6 0 8 -1.3076 -0.0005
6 0 9 -0.9998 0.0172
6 0 10 -2.1686 0.0388
6 0 11 0.9792 0.0168
6 0 12 -1.1568 -0.0045
6 0 13 3.0092 -0.0559
6 0 14 1.1068 -0.0691
6 0 15 -1.8455 0.0743
6 0 16 -0.8054 0.0409
6 0 17 0.0680 0.0839
6 1 0 2.7455 0.9527
6 1 1 -2.1323 -0.1755
6 1 2 4.0561 -0.2507
6 1 3 -2.5171 0.0678
6 1 4 3.4006 0.1300
6 1 5 -4.1816 -0.0034
6 1 6 -3.4683 -0.0764
6 1 7 5.1008 -0.0376
6 1 8 -0.8853 0.0155
6 1 9 0.4460 0.0097
6 1 10 -0.6298 0.0027
6 1 11 0.3955 0.0341
6 1 12 -0.8057 0.0391
6 1 13 0.9278 0.0038
6 1 14 1.3519 -0.0901
6 1 15 -2.4717 -0.0494
6 1 16 2.2179 0.0622
6 1 17 -2.0562 0.1390
6 2 0 0.7655 0.9762
6 2 1 -3.0741 -0.1627
6 2 2 -1.5709 -0.3026
6 2 3 3.4731 0.0184
6 2 4 -1.9160 0.1255
6 2 5 3.6500 0.0310
6 2 6 -6.1039 -0.0405
6 2 7 4.8234 -0.0152
6 2 8 0.7335 -0.0101
6 2 9 -0.4962 0.0061
6 2 10 -1.5091 0.0257
6 2 11 -0.4790 0.0386
6 2 12 0.1882 -0.0508
6 2 13 -0.2420 -0.0745
6 2 14 0.9110 0.0481
6 2 15 -2.5056 0.0005
6 2 16 3.5824 0.0171
6 2 17 -1.3472 0.1826
6 3 0 -2.2258 0.8407
6 3 1 2.2524 -0.1221
6 3 2 0.3158 -0.2055
6 3 3 2.5858 0.0256
6 3 4 -3.2370 0.0895
6 3 5 2.0866 0.0262
6 3 6 -3.8537 -0.0196
6 3 7 2.7816 -0.0376
6 3 8 -0.2999 -0.0530
6 3 9 -1.3954 0.0000
6 3 10 0.4950 0.0345
6 3 11 0.0271 0.0635
6 3 12 2.2596 0.0352
6 3 13 -0.2943 -0.0764
6 3 14 -3.4209 -0.0281
6 3 15 1.6304 -0.0004
6 3 16 3.5349 -0.0352
6 3 17 -4.8070 0.2096
6 4 0 -5.6215 0.8615
6 4 1 -0.5996 -0.1233
6 4 2 2.2400 -0.2138
6 4 3 -1.5987 0.0261
6 4 4 1.3565 0.0670
6 4 5 -0.6421 -0.0250
6 4 6 -0.1497 -0.0103
6 4 7 0.8576 0.0219
6 4 8 -0.7117 -0.0112
6 4 9 -2.0833 -0.0425
6 4 10 3.9655 0.0430
6 4 11 -1.5372 0.0482
6 4 12 -0.7741 0.0040
6 4 13 2.6224 -0.0154
6 4 14 -2.6326 -0.0745
6 4 15 -0.7567 -0.0479
6 4 16 0.5463 0.0038
6 4 17 1.3887 0.1953
6 5 0 -3.2085 0.7395
6 5 1 -2.7266 -0.1052
6 5 2 2.9232 -0.1601
6 5 3 -3.9785 0.0171
6 5 4 4.7249 0.0689
6 5 5 0.1023 0.0050
6 5 6 -0.1035 -0.0151
6 5 7 -2.4055 -0.0096
6 5 8 2.3276 0.0067
6 5 9 -1.4590 -0.0190
6 5 10 0.9953 -0.0036
6 5 11 -3.3462 0.0188
6 5 12 2.0394 -0.0016
6 5 13 2.2758 -0.0220
6 5 14 -1.1514 -0.0103
6 5 15 -0.0807 0.0624
6 5 16 -2.2167 0.0683
6 5 17 2.4097 -0.1526
6 6 0 5.1185 0.7047
6 6 1 -1.7912 -0.1284
6 6 2 0.0846 -0.1560
6 6 3 -2.8293 0.0393
6 6 4 1.2714 0.0395
6 6 5 -0.5247 -0.0135
6 6 6 1.9933 0.0049
6 6 7 -2.8284 0.0149
6 6 8 2.7585 -0.0320
6 6 9 -1.4076 -0.0190
6 6 10 1.4379 -0.0036
6 6 11 -1.2385 0.0508
6 6 12 -0.0289 0.0196
6 6 13 -2.7652 -0.0102
6 6 14 3.6333 0.0001
6 6 15 2.3320 -0.0823
6 6 16 -3.9746 0.0944
6 7 0 3.8539 0.6101
6 7 1 -1.2357 -0.0897
6 7 2 -2.5891 -0.1372
6 7 3 -0.4077 0.0100
6 7 4 1.9602 0.0285
6 7 5 -1.4453 0.0051
6 7 6 3.2482 0.0140
6 7 7 -1.9020 0.0160
6 7 8 0.4820 -0.0419
6 7 9 -2.4897 -0.0034
6 7 10 1.3265 0.0269
6 7 11 1.4494 0.0188
6 7 12 1.2803 -0.0262
6 7 13 -3.9644 -0.0096
6 7 14 0.4498 -0.0103
6 7 15 2.6571 -0.0494
6 7 16 -0.6363 0.1179
6 8 0 1.6300 0.5544
6 8 1 1.2148 -0.1031
6 8 2 -1.1292 -0.1454
6 8 3 -0.2448 0.0295
6 8 4 2.3977 0.0518
6 8 5 -2.4998 -0.0123
6 8 6 2.3853 0.0029
6 8 7 -2.4614 0.0042
6 8 8 0.7199 -0.0213
6 8 9 -0.0498 -0.0281
6 8 10 0.1648 0.0714
6 8 11 -0.1480 0.0105
6 8 12 0.6074 -0.0735
6 8 13 0.3694 -0.0182
6 8 14 -2.1900 0.0534
6 8 15 1.9908 0.0864
6 9 0 -1.6909 0.5055
6 9 1 3.3180 -0.0858
6 9 2 1.1067 -0.0882
6 9 3 -1.7975 0.0189
6 9 4 0.6645 0.0140
6 9 5 -2.5247 -0.0104
6 9 6 3.1887 0.0067
6 9 7 -2.4456 -0.0213
6 9 8 1.2642 0.0027
6 9 9 0.9986 0.0081
6 9 10 -0.9722 0.0553
6 9 11 1.1549 -0.0214
6 9 12 -2.1798 -0.0066
6 9 13 0.6352 -0.0388
6 9 14 -1.6512 -0.0727
6 9 15 3.0091 0.1430
6 10 0 -2.2636 0.4798
6 10 1 3.9303 -0.0788
6 10 2 -0.6257 -0.0984
6 10 3 -3.0835 0.0185
6 10 4 1.7559 0.0150
6 10 5 -1.4219 -0.0166
6 10 6 4.5976 -0.0024
6 10 7 -2.3742 0.0164
6 10 8 -2.1107 0.0041
6 10 9 2.0835 0.0101
6 10 10 -1.7172 -0.1103
6 10 11 1.0847 -0.0222
6 10 12 -0.8143 0.2120
6 10 13 1.7442 0.1028
6 10 14 -0.5700 -0.3157
6 11 0 -3.0854 0.2869
6 11 1 0.7642 -0.0793
6 11 2 -0.9870 -0.0132
6 11 3 -0.2224 0.0683
6 11 4 5.1207 0.0134
6 11 5 -4.0841 -0.0332
6 11 6 0.1970 -0.0450
6 11 7 2.1762 0.0000
6 11 8 -5.3999 -0.0052
6 11 9 2.7379 0.0748
6 11 10 3.0475 -0.0175
6 11 11 0.4235 -0.0045
6 11 12 -2.8153 -0.1104
6 11 13 -1.4368 0.2295
6 12 0 -2.3027 0.2228
6 12 1 0.6274 -0.1850
6 12 2 -0.3537 -0.0829
6 12 3 -0.6805 0.0946
6 12 4 2.6758 0.0827
6 12 5 -0.3725 0.0314
6 12 6 -2.2056 0.0223
6 12 7 4.3680 -0.0448
6 12 8 -6.3960 -0.0837
6 12 9 2.3336 -0.0426
6 12 10 2.7749 0.1174
6 12 11 -2.5288 0.0495
6 12 12 -0.6762 -0.3225
6 13 0 2.8396 0.2647
6 13 1 -0.3513 -0.0121
6 13 2 -5.8423 -0.0725
6 13 3 1.8205 -0.0345
6 13 4 3.4612 0.0167
6 13 5 1.8137 -0.0094
6 13 6 -8.4713 -0.0136
6 13 7 4.5511 0.0153
6 13 8 0.5846 0.1253
6 13 9 0.8754 -0.2191
6 13 10 -1.1015 0.0907
6 14 0 2.8743 0.1215
6 14 1 1.9943 -0.0753
6 14 2 -5.0838 -0.0663
6 14 3 0.4283 0.0273
6 14 4 -1.6100 0.0072
6 14 5 6.4452 -0.0760
6 14 6 -0.4979 -0.0269
6 14 7 -1.9246 0.1507
6 14 8 -3.2449 0.2852
7 -13 0 2.2144 0.4902
7 -13 1 1.2401 -0.1683
7 -13 2 -3.6859 -0.3040
7 -13 3 -1.0821 0.0350
7 -13 4 1.5384 0.1659
7 -13 5 1.5548 0.0604
7 -13 6 -3.3345 -0.1028
7 -12 0 -2.2918 0.5736
7 -12 1 3.7747 -0.0619
7 -12 2 -2.3830 -0.2188
7 -12 3 0.6579 0.0261
7 -12 4 -1.6976 0.1424
7 -12 5 1.3018 0.0132
7 -12 6 -2.6839 -0.1115
7 -12 7 1.4984 -0.0140
7 -12 8 6.0414 0.0248
7 -12 9 -8.2024 0.1140
7 -11 0 0.3116 0.6143
7 -11 1 4.2196 -0.0302
7 -11 2 -2.9859 -0.2555
7 -11 3 0.4353 -0.0472
7 -11 4 -1.3338 0.1424
7 -11 5 1.6887 0.0188
7 -11 6 -0.2349 -0.0994
7 -11 7 -2.1304 -0.0054
7 -11 8 4.0181 0.0282
7 -11 9 -5.8765 0.1211
7 -11 10 5.6883 -0.0551
7 -10 0 -0.8599 0.5863
7 -10 1 2.1027 -0.0278
7 -10 2 1.1769 -0.2499
7 -10 3 -0.9299 -0.0284
7 -10 4 -0.8897 0.1865
7 -10 5 1.3836 0.0346
7 -10 6 -1.8693 -0.1267
7 -10 7 -0.8829 -0.0384
7 -10 8 4.1709 0.0504
7 -10 9 -2.5768 0.0688
7 -10 10 -1.3960 -0.0477
7 -10 11 1.9703 -0.0395
7 -10 12 1.0680 0.0880
7 -9 0 1.2919 0.7494
7 -9 1 -0.1201 -0.0450
7 -9 2 2.3225 -0.3177
7 -9 3 -3.2387 0.0032
7 -9 4 -2.0927 0.1848
7 -9 5 4.8230 -0.0026
7 -9 6 -0.9896 -0.1147
7 -9 7 -0.9267 -0.0325
7 -9 8 0.2151 0.0616
7 -9 9 -0.1138 0.0608
7 -9 10 -1.6640 -0.0330
7 -9 11 0.0425 -0.0497
7 -9 12 3.5402 0.0954
7 -9 13 -0.0306 -0.0558
7 -8 0 1.3876 0.7621
7 -8 1 -1.0931 -0.0369
7 -8 2 -0.5673 -0.2948
7 -8 3 1.0512 0.0097
7 -8 4 -1.7038 0.1784
7 -8 5 3.2087 0.0082
7 -8 6 -0.5528 -0.1079
7 -8 7 -0.2412 -0.0483
7 -8 8 -0.6216 0.0828
7 -8 9 -2.1930 0.0635
7 -8 10 1.0488 -0.0826
7 -8 11 0.3795 -0.0460
7 -8 12 3.8447 0.1105
7 -8 13 -2.0360 0.0169
7 -8 14 -3.9425 -0.1999
7 -7 0 -0.2788 0.8030
7 -7 1 2.3837 -0.1077
7 -7 2 -2.6661 -0.3469
7 -7 3 1.7863 0.0529
7 -7 4 -3.3997 0.2314
7 -7 5 0.2652 -0.0154
7 -7 6 1.9008 -0.1418
7 -7 7 1.7094 -0.0353
7 -7 8 2.2268 0.0785
7 -7 9 -4.1587 0.0401
7 -7 10 -4.3582 -0.0475
7 -7 11 0.3288 -0.0019
7 -7 12 6.0853 0.0430
7 -7 13 0.8147 0.0307
7 -7 14 -0.9891 -0.1609
7 -6 0 1.7753 0.8116
7 -6 1 1.7256 -0.0955
7 -6 2 -5.0577 -0.3081
7 -6 3 3.8317 0.0370
7 -6 4 -0.2808 0.2002
7 -6 5 -1.5587 0.0079
7 -6 6 0.0329 -0.1346
7 -6 7 0.2377 -0.0558
7 -6 8 1.9387 0.0770
7 -6 9 0.2330 0.0563
7 -6 10 -3.1691 -0.0484
7 -6 11 1.1028 -0.0197
7 -6 12 1.8938 0.0575
7 -6 13 -0.9629 0.0509
7 -6 14 -0.7444 -0.0781
7 -6 15 -1.2671 -0.1985
7 -5 0 0.8540 0.9351
7 -5 1 0.3030 -0.1330
7 -5 2 -3.3578 -0.3893
7 -5 3 3.2739 0.0364
7 -5 4 -0.7086 0.2209
7 -5 5 -0.6221 0.0334
7 -5 6 -1.2126 -0.1238
7 -5 7 2.0850 -0.0525
7 -5 8 2.3917 0.0763
7 -5 9 -1.6310 0.0521
7 -5 10 -3.0846 -0.0464
7 -5 11 -0.7129 -0.0471
7 -5 12 1.0223 0.0095
7 -5 13 3.5509 0.0137
7 -5 14 -1.0164 0.0733
7 -5 15 -1.7580 -0.1407
7 -5 16 0.3788 0.1456
7 -4 0 -0.1105 0.9091
7 -4 1 3.1027 -0.1142
7 -4 2 -3.3231 -0.3236
7 -4 3 2.4044 0.0504
7 -4 4 -2.1775 0.2027
7 -4 5 1.5343 0.0309
7 -4 6 -0.6709 -0.1473
7 -4 7 -0.1200 -0.0909
7 -4 8 0.8363 0.0736
7 -4 9 -1.0867 0.0867
7 -4 10 1.5085 -0.0086
7 -4 11 -3.0383 -0.0607
7 -4 12 1.2425 -0.0188
7 -4 13 4.7917 0.0408
7 -4 15 -2.6485 -0.0766
7 -4 16 0.9068 -0.0156
7 -3 0 -4.2028 0.9344
7 -3 1 3.4891 -0.1369
7 -3 2 -1.1733 -0.3561
7 -3 3 1.3239 0.0305
7 -3 4 -4.0022 0.2174
7 -3 5 2.5868 0.0286
7 -3 6 0.2018 -0.1366
7 -3 7 -0.5095 -0.0543
7 -3 8 2.1027 0.0750
7 -3 9 -1.5570 0.0545
7 -3 10 0.5328 -0.0032
7 -3 11 -0.2089 -0.0402
7 -3 12 -0.0778 -0.0376
7 -3 13 -2.7684 0.0212
7 -3 15 1.7896 0.0409
7 -3 16 1.6663 -0.0121
7 -2 0 -4.3691 0.9850
7 -2 1 0.5144 -0.1151
7 -2 2 -0.0988 -0.3685
7 -2 3 4.2240 0.0232
7 -2 4 -1.7479 0.2376
7 -2 5 -2.4877 0.0143
7 -2 6 -0.1620 -0.1314
7 -2 7 0.5203 -0.0240
7 -2 8 2.0419 0.0606
7 -2 9 -0.0686 0.0312
7 -2 10 -3.2364 -0.0142
7 -2 11 1.1947 -0.0295
7 -2 12 1.9544 -0.0282
7 -2 13 -1.0734 -0.0136
7 -2 15 -1.5947 0.0835
7 -2 16 0.9902 0.1180
7 -2 17 -0.0167 -0.1477
7 -1 0 0.6786 1.0291
7 -1 1 2.1769 -0.1636
7 -1 2 -2.4576 -0.3712
7 -1 3 -2.4134 0.0255
7 -1 4 0.7475 0.2019
7 -1 5 0.8259 0.0373
7 -1 6 2.1593 -0.1061
7 -1 7 -2.5381 -0.0571
7 -1 8 0.6833 0.0401
7 -1 9 0.2426 0.0535
7 -1 10 -1.3818 -0.0086
7 -1 11 3.4858 -0.0045
7 -1 12 -1.5739 -0.0113
7 -1 13 0.6557 -0.0343
7 -1 15 -4.4375 0.0054
7 -1 16 3.8916 0.1308
7 -1 17 1.7531 -0.0681
7 0 0 -2.2314 1.0428
7 0 1 0.8000 -0.0904
7 0 2 -0.1361 -0.3757
7 0 3 0.0013 -0.0170
7 0 4 1.9495 0.1682
7 0 5 -1.9195 0.0401
7 0 6 1.9036 -0.0739
7 0 7 -1.8770 -0.0145
7 0 8 2.2262 0.0423
7 0 9 -2.0097 0.0203
7 0 10 -2.1074 -0.0140
7 0 11 3.3671 -0.0212
7 0 12 -1.3789 -0.0334
7 0 13 -0.6877 0.0035
7 0 15 -0.4255 0.0033
7 0 16 0.6010 0.0376
7 0 17 -2.1095 0.0831
7 1 0 -0.0937 0.9747
7 1 1 2.5600 -0.1003
7 1 2 1.2337 -0.3090
7 1 3 -2.1551 0.0275
7 1 4 -1.9800 0.1465
7 1 5 -0.3143 0.0079
7 1 6 3.8977 -0.0900
7 1 7 -1.5606 -0.0449
7 1 8 -2.9819 0.0561
7 1 9 0.4941 0.0535
7 1 10 3.8186 -0.0024
7 1 11 -0.4332 -0.0362
7 1 12 -0.4704 -0.0178
7 1 13 -2.0636 -0.0096
7 1 14 1.9298 -0.0216
7 1 15 -1.5500 0.1052
7 1 16 1.1951 -0.0279
7 1 17 -0.8715 0.0407
7 2 0 -1.1787 0.9657
7 2 1 -0.4948 -0.0651
7 2 2 2.5297 -0.3203
7 2 3 -2.8913 -0.0390
7 2 4 -3.2543 0.1408
7 2 5 3.5647 0.0134
7 2 6 2.1003 -0.0454
7 2 7 0.8581 0.0240
7 2 8 -3.4371 0.0294
7 2 9 0.6754 -0.0363
7 2 10 1.2568 0.0169
7 2 11 -2.1822 0.0324
7 2 12 2.0939 -0.0347
7 2 13 -2.3578 -0.0771
7 2 14 2.1939 -0.0212
7 2 15 -1.4200 0.0801
7 2 16 -0.3151 0.0454
7 2 17 1.3433 0.1066
7 3 0 -1.5331 0.8939
7 3 1 -0.5895 -0.1260
7 3 2 4.8553 -0.2517
7 3 3 -0.2706 0.0385
7 3 4 -1.8345 0.1414
7 3 5 1.0582 -0.0008
7 3 6 -3.0540 -0.0822
7 3 7 2.6598 -0.0348
7 3 8 -1.1905 0.0237
7 3 9 -0.7732 0.0293
7 3 10 -0.0325 0.0003
7 3 11 1.3740 -0.0210
7 3 12 0.7244 0.0135
7 3 13 -1.5488 0.0245
7 3 14 1.1129 0.0253
7 3 15 0.9296 -0.0322
7 3 16 -1.0924 -0.0542
7 3 17 -0.7278 0.0342
7 4 0 -0.3456 0.9147
7 4 1 -0.2434 -0.1040
7 4 2 -1.1060 -0.2966
7 4 3 -0.1739 0.0410
7 4 4 0.8600 0.1214
7 4 5 -0.3096 -0.0134
7 4 6 -0.6660 -0.0626
7 4 7 1.5749 0.0005
7 4 8 -0.6245 0.0166
7 4 9 -0.0856 0.0231
7 4 10 0.2182 0.0333
7 4 11 1.7834 0.0067
7 4 12 -2.8279 -0.0553
7 4 13 -0.4159 -0.0618
7 4 14 1.5101 0.0338
7 4 15 0.1809 0.0714
7 4 16 -1.3952 -0.0106
7 4 17 1.1434 -0.0859
7 5 0 -2.3888 0.7819
7 5 1 1.4920 -0.1361
7 5 2 -1.7491 -0.2454
7 5 3 1.5975 0.0465
7 5 4 1.8936 0.1188
7 5 5 -1.7412 0.0506
7 5 6 0.7659 -0.0413
7 5 7 -0.9930 -0.0471
7 5 8 -0.3137 -0.0136
7 5 9 0.2705 0.0116
7 5 10 0.2161 0.0105
7 5 11 0.3410 -0.0042
7 5 12 -0.3098 -0.0081
7 5 13 0.0411 -0.0346
7 5 14 -0.1910 0.0110
7 5 15 -1.3011 0.0806
7 5 16 2.6796 0.1314
7 6 0 -0.4812 0.7553
7 6 1 3.4788 -0.0876
7 6 2 -1.5665 -0.2093
7 6 3 0.4818 0.0280
7 6 4 0.3819 0.0910
7 6 5 -3.1705 -0.0413
7 6 6 1.4001 -0.0445
7 6 7 -0.0135 0.0475
7 6 8 1.2361 0.0211
7 6 9 -1.5449 -0.0354
7 6 10 0.8743 -0.0104
7 6 11 1.1593 0.0245
7 6 12 -0.2989 0.0043
7 6 13 -2.1575 -0.0122
7 6 14 1.6313 0.0522
7 6 15 -1.8578 -0.0978
7 6 16 2.8432 0.0789
7 7 0 -2.0529 0.7188
7 7 1 0.7184 -0.1635
7 7 2 0.3382 -0.2097
7 7 3 -1.6049 0.0186
7 7 4 1.2072 0.1110
7 7 5 -0.0682 0.0160
7 7 6 1.9065 -0.0347
7 7 7 -1.1011 -0.0058
7 7 8 0.0201 0.0119
7 7 9 -3.0049 0.0037
7 7 10 1.6082 0.0018
7 7 11 2.2656 0.0050
7 7 12 -1.5563 -0.0492
7 7 13 0.2663 0.0031
7 7 14 1.3065 0.0155
7 7 15 -3.1316 -0.0646
7 7 16 2.1073 0.1624
7 8 0 -0.3084 0.6513
7 8 1 -0.7199 -0.1288
7 8 2 1.7926 -0.1753
7 8 3 -2.2305 0.0594
7 8 4 1.1134 0.0861
7 8 5 1.1146 -0.0417
7 8 6 1.1079 -0.0449
7 8 7 -2.0380 0.0199
7 8 8 -0.8277 0.0164
7 8 9 -1.1293 0.0080
7 8 10 2.2603 0.0014
7 8 11 3.2423 -0.0310
7 8 12 -5.2602 -0.0150
7 8 13 1.1453 0.1032
7 8 14 0.7793 -0.1051
7 8 15 -0.1188 -0.0585
7 9 0 0.8203 0.5911
7 9 1 1.7193 -0.0845
7 9 2 1.5338 -0.1676
7 9 3 -2.6349 0.0622
7 9 4 -0.9892 0.0707
7 9 5 -0.0536 -0.0333
7 9 6 0.3154 -0.0512
7 9 7 1.4821 -0.0166
7 9 8 -0.1757 0.0241
7 9 9 -1.1341 0.0537
7 9 10 -1.5393 0.0303
7 9 11 5.4985 -0.0593
7 9 12 -3.2380 -0.0319
7 9 13 -0.6450 0.0416
7 9 14 -1.4752 0.0148
7 9 15 1.5334 -0.1473
7 10 0 0.0791 0.4266
7 10 1 4.4127 -0.0730
7 10 2 -0.5407 -0.1082
7 10 3 -2.1624 0.0478
7 10 4 -1.5197 0.0766
7 10 5 -0.6571 -0.0151
7 10 6 0.9845 -0.0614
7 10 7 5.2415 -0.0249
7 10 8 -2.2534 0.0283
7 10 9 -1.3816 0.0373
7 10 10 -4.3831 -0.0086
7 10 11 3.4361 -0.0515
7 10 12 0.9543 0.0406
7 10 13 1.3033 -0.0672
7 10 14 -0.2298 0.2170
7 11 0 -3.8183 0.4010
7 11 1 0.9597 -0.1770
7 11 2 2.4223 -0.1325
7 11 3 1.9999 0.0505
7 11 4 1.0705 0.1081
7 11 5 -2.2202 0.0408
7 11 6 -5.2924 -0.0245
7 11 7 4.8455 -0.0508
7 11 8 0.3057 -0.0452
7 11 9 0.6869 -0.0287
7 11 10 -2.4034 0.0522
7 11 11 1.1377 0.1811
7 11 12 1.2400 -0.0093
7 11 13 -1.3767 -0.4019
7 12 0 -3.2596 0.5215
7 12 1 -4.2434 -0.0998
7 12 2 4.2645 -0.1684
7 12 3 3.5974 0.0196
7 12 4 -2.2742 0.0421
7 12 5 -1.6974 -0.0117
7 12 6 -2.3160 0.0409
7 12 7 2.8205 0.0595
7 12 8 0.3888 -0.0470
7 12 9 1.3750 -0.0882
7 12 10 -0.6012 -0.0146
7 12 11 -3.6150 0.1346
7 13 0 1.9927 0.3570
7 13 1 -4.2673 0.0693
7 13 2 0.3136 -0.0352
7 13 3 2.1327 0.0045
7 13 4 -0.8306 -0.0370
7 13 5 1.5705 -0.0575
7 13 6 -1.5982 -0.0453
7 13 7 -2.9298 0.0405
7 13 8 3.0520 0.0333
7 13 9 2.2794 0.0335
7 13 10 -1.2520 -0.0121
7 14 3 1.3110 0.0820
7 14 4 -2.0192 0.0477
7 14 5 -0.8992 -0.0225
7 14 6 4.4309 -0.0719
8 -12 0 -2.5768 0.2142
8 -12 1 1.5970 -0.1288
8 -12 2 0.1974 -0.2598
8 -12 3 1.8189 0.1565
8 -12 4 -4.2644 0.1269
8 -12 5 3.8768 0.1170
8 -12 6 0.4514 -0.1386
8 -12 7 -4.6947 -0.1336
8 -12 8 3.9349 0.0306
8 -11 0 0.2697 0.4752
8 -11 1 3.4151 -0.0084
8 -11 2 -1.4713 -0.3252
8 -11 3 -0.4995 -0.0903
8 -11 4 -2.8727 0.1831
8 -11 5 4.5640 0.0898
8 -11 6 1.4122 -0.0646
8 -11 7 -5.3772 -0.0509
8 -11 8 2.9139 0.0058
8 -11 9 0.8072 -0.0246
8 -11 10 -3.8093 0.1533
8 -10 0 -2.1271 0.3999
8 -10 1 -1.3962 -0.0097
8 -10 2 1.7633 -0.2439
8 -10 3 1.1698 -0.0919
8 -10 4 -2.3155 0.2186
8 -10 5 0.7898 0.0752
8 -10 6 1.6785 -0.1039
8 -10 7 -4.2339 -0.0381
8 -10 8 1.0304 0.0737
8 -10 9 5.8639 -0.0639
8 -10 10 -5.4527 0.0473
8 -10 11 0.4732 -0.0903
8 -9 0 0.8539 0.4371
8 -9 1 -2.0299 0.0177
8 -9 2 1.5676 -0.2307
8 -9 3 -0.3351 -0.0281
8 -9 4 0.0100 0.1557
8 -9 5 -0.9289 0.0211
8 -9 6 1.8502 -0.1356
8 -9 7 -2.0294 0.0008
8 -9 8 -2.5040 0.0825
8 -9 9 4.8466 -0.0053
8 -9 10 2.3909 0.0126
8 -9 11 -5.3478 -0.0470
8 -9 12 1.8909 0.0394
8 -8 0 0.1380 0.4884
8 -8 1 -0.9263 -0.0098
8 -8 2 0.4756 -0.2549
8 -8 3 -0.8255 -0.0002
8 -8 4 3.4622 0.1313
8 -8 5 -1.3336 0.0474
8 -8 6 0.0528 -0.1185
8 -8 7 -0.3590 -0.0157
8 -8 8 -1.8447 0.0710
8 -8 9 -4.5593 0.0857
8 -8 10 9.8263 -0.0584
8 -8 11 -2.4675 -0.1127
8 -8 12 2.5270 0.0328
8 -8 13 -6.9632 0.0123
8 -7 0 -1.8740 0.5530
8 -7 1 -0.3480 -0.0034
8 -7 2 2.4019 -0.2752
8 -7 3 -0.8683 0.0090
8 -7 4 -1.0424 0.2053
8 -7 5 -0.8371 -0.0117
8 -7 6 2.4302 -0.1755
8 -7 7 -1.4474 -0.0092
8 -7 8 1.9829 0.0869
8 -7 9 -6.6287 0.0717
8 -7 10 6.1012 -0.0433
8 -7 11 -0.6530 -0.0561
8 -7 12 2.7864 0.0269
8 -7 14 2.8907 -0.0934
8 -6 0 -0.5401 0.5580
8 -6 1 0.9957 -0.0299
8 -6 2 -0.3873 -0.2398
8 -6 3 1.1040 -0.0195
8 -6 4 -1.2419 0.2071
8 -6 5 -0.3357 0.0111
8 -6 6 4.0778 -0.1413
8 -6 7 -2.1433 -0.0607
8 -6 8 -0.7868 0.0832
8 -6 9 -4.3724 0.1060
8 -6 10 2.1773 -0.0324
8 -6 11 4.5282 -0.1082
8 -6 12 2.8057 0.0254
8 -6 13 -5.6919 0.1047
8 -6 14 -1.8311 -0.1093
8 -6 15 -0.5386 -0.0654
8 -5 0 1.8930 0.6221
8 -5 1 0.4377 -0.0261
8 -5 2 -2.3824 -0.2898
8 -5 3 2.0721 0.0078
8 -5 4 -1.2105 0.2285
8 -5 5 -1.9905 0.0074
8 -5 6 2.2239 -0.1426
8 -5 7 1.9990 -0.0658
8 -5 8 -0.2319 0.0875
8 -5 9 -2.4888 0.0888
8 -5 10 -2.3582 -0.0492
8 -5 11 1.2038 -0.0904
8 -5 12 3.1697 0.0389
8 -5 13 0.2143 0.0870
8 -5 14 -2.3568 -0.0744
8 -5 15 2.6468 -0.1492
8 -4 0 0.9407 0.6701
8 -4 1 3.1118 -0.0362
8 -4 2 -1.3204 -0.3118
8 -4 3 0.0155 0.0024
8 -4 4 0.5578 0.1970
8 -4 5 -2.2363 0.0501
8 -4 6 -0.0097 -0.1220
8 -4 7 3.6066 -0.0746
8 -4 8 -0.9221 0.0682
8 -4 9 -2.3479 0.0474
8 -4 10 2.0179 -0.0580
8 -4 11 -2.8688 -0.0369
8 -4 12 0.9466 0.0496
8 -4 13 3.0530 0.1075
8 -4 14 -1.0632 0.0302
8 -4 15 2.1200 -0.2442
8 -4 16 -6.0122 0.0027
8 -3 0 0.0787 0.6928
8 -3 1 0.8015 -0.0381
8 -3 2 1.3160 -0.3297
8 -3 3 -1.4490 0.0019
8 -3 4 1.0387 0.2076
8 -3 5 -1.0551 0.0342
8 -3 6 -0.4432 -0.1452
8 -3 7 0.7320 -0.0498
8 -3 8 1.3910 0.1200
8 -3 9 -1.7562 0.0673
8 -3 10 1.4620 -0.0887
8 -3 11 -0.5444 -0.0804
8 -3 12 -0.3600 0.0194
8 -3 13 -2.7285 0.0619
8 -3 14 1.0267 0.0949
8 -3 15 3.4590 -0.0501
8 -3 16 -1.4024 -0.1879
8 -2 0 -0.3244 0.7670
8 -2 1 -1.4440 -0.0279
8 -2 2 2.5229 -0.3175
8 -2 3 -1.7165 -0.0131
8 -2 4 3.5881 0.2129
8 -2 5 -1.7838 0.0353
8 -2 6 -1.3289 -0.1342
8 -2 7 -0.7685 -0.0424
8 -2 8 1.4324 0.0716
8 -2 9 -0.6145 0.0387
8 -2 10 0.3278 -0.0329
8 -2 11 2.6671 -0.0594
8 -2 12 -4.1441 0.0109
8 -2 13 -1.2205 0.0394
8 -2 14 5.6857 0.0443
8 -2 15 -0.4516 0.0254
8 -2 16 -2.5154 -0.1036
8 -1 0 -0.2234 0.8027
8 -1 1 -0.0732 -0.0735
8 -1 2 4.2319 -0.3331
8 -1 3 -5.7090 0.0193
8 -1 4 -0.0972 0.2014
8 -1 5 1.4065 0.0253
8 -1 6 2.6551 -0.1149
8 -1 7 -2.0611 -0.0525
8 -1 8 0.7038 0.0457
8 -1 9 -0.9244 0.0611
8 -1 10 -0.6380 -0.0064
8 -1 11 5.7927 -0.0598
8 -1 12 -6.9403 -0.0078
8 -1 13 -0.8684 0.0336
8 -1 14 4.3600 0.0220
8 -1 15 -0.1227 0.0219
8 -1 16 -3.6950 0.0174
8 -1 17 3.9414 -0.1394
8 0 0 -2.8262 0.7847
8 0 1 -3.4951 -0.0628
8 0 2 3.0271 -0.3253
8 0 3 1.1783 0.0113
8 0 4 1.4032 0.2127
8 0 5 -2.1283 0.0378
8 0 6 0.6406 -0.1461
8 0 7 -2.4524 -0.0392
8 0 8 2.9763 0.0814
8 0 9 -0.1685 0.0271
8 0 10 -2.9619 -0.0348
8 0 11 2.9140 -0.0140
8 0 12 -0.8662 -0.0346
8 0 13 -0.5793 0.0239
8 0 14 -1.7414 0.0716
8 0 15 5.2585 -0.0290
8 0 16 -3.4940 -0.0083
8 0 17 1.7251 -0.0501
8 1 0 -2.0672 0.7878
8 1 1 0.2278 -0.0863
8 1 2 0.7117 -0.3316
8 1 3 0.8854 0.0116
8 1 4 0.3656 0.2139
8 1 5 -3.0337 0.0491
8 1 6 1.9381 -0.1171
8 1 7 -0.9702 -0.0882
8 1 8 -0.4881 0.0400
8 1 9 0.4283 0.0849
8 1 10 2.4783 -0.0121
8 1 11 -0.0378 -0.0296
8 1 12 -0.7138 0.0074
8 1 13 -1.7363 -0.0140
8 1 14 -0.5814 -0.0239
8 1 15 2.5930 0.0137
8 1 16 -3.1976 0.0754
8 1 17 2.5320 0.0137
8 2 0 0.0508 0.7889
8 2 1 -0.2890 -0.0716
8 2 2 -2.8829 -0.2993
8 2 3 -0.0666 -0.0016
8 2 4 2.5873 0.1809
8 2 5 -1.0705 0.0087
8 2 6 0.1966 -0.0882
8 2 7 0.6393 -0.0074
8 2 8 -0.7261 0.0546
8 2 9 1.0710 0.0117
8 2 10 0.2844 -0.0402
8 2 11 -3.4315 -0.0152
8 2 12 1.7246 0.0123
8 2 13 0.2416 -0.0016
8 2 14 2.0005 0.0179
8 2 15 -2.7266 -0.0123
8 2 16 -0.7010 -0.0165
8 2 17 2.3405 0.0453
8 3 0 0.2231 0.7789
8 3 1 1.0519 -0.1000
8 3 2 -1.3119 -0.2840
8 3 3 -0.3433 0.0366
8 3 4 2.0326 0.1734
8 3 5 0.8586 0.0290
8 3 6 -2.6561 -0.0948
8 3 7 0.1450 -0.0777
8 3 8 0.5060 0.0040
8 3 9 -1.1239 0.0464
8 3 10 0.1881 0.0490
8 3 11 1.3551 -0.0013
8 3 12 0.8854 -0.0501
8 3 13 -2.5622 0.0168
8 3 14 2.7996 0.0354
8 3 15 -2.0182 0.0098
8 3 16 1.1089 -0.0479
8 3 17 0.2525 -0.0398
8 4 0 -0.4599 0.7351
8 4 1 3.9374 -0.0642
8 4 2 -0.8543 -0.3134
8 4 3 -2.6617 -0.0110
8 4 4 -1.4091 0.1642
8 4 5 1.5320 0.0408
8 4 6 0.5495 -0.0853
8 4 7 1.0099 -0.0155
8 4 8 -0.1883 0.0533
8 4 9 -1.5133 -0.0083
8 4 10 2.2582 -0.0216
8 4 11 -0.2877 0.0279
8 4 12 -0.7650 0.0058
8 4 13 -2.4065 -0.0054
8 4 14 2.3340 -0.0793
8 4 15 -0.0911 0.0084
8 4 16 -1.2682 -0.0113
8 4 17 1.7753 0.1831
8 5 0 -1.8654 0.7506
8 5 1 0.9578 -0.0820
8 5 2 1.4508 -0.2824
8 5 3 0.3498 0.0207
8 5 4 -1.5332 0.1505
8 5 5 0.8625 0.0346
8 5 6 -0.5132 -0.0755
8 5 7 0.9821 -0.0626
8 5 8 -0.0465 0.0473
8 5 9 -2.3138 0.0472
8 5 10 2.2318 -0.0325
8 5 11 -2.9413 -0.0546
8 5 12 3.4311 -0.0052
8 5 13 -0.2233 0.0543
8 5 14 -1.3950 0.0756
8 5 15 0.3971 -0.0110
8 5 16 -0.2731 -0.2408
8 6 0 1.2067 0.7232
8 6 1 -2.1054 -0.0560
8 6 2 2.8161 -0.2454
8 6 3 -1.0014 -0.0024
8 6 4 -1.6435 0.1556
8 6 5 2.4471 -0.0200
8 6 6 -3.4652 -0.1188
8 6 7 -0.2339 -0.0042
8 6 8 3.6501 0.0564
8 6 9 -0.6447 0.0103
8 6 10 1.2244 0.0341
8 6 11 -4.6383 0.0154
8 6 12 2.7094 -0.0294
8 6 13 0.1967 -0.0666
8 6 14 0.2469 0.1026
8 6 15 -0.4763 0.0152
8 6 16 -0.4736 -0.2987
8 7 0 2.6299 0.7463
8 7 1 -5.9089 -0.1019
8 7 2 3.1476 -0.2909
8 7 3 -1.0982 0.0042
8 7 4 -1.0559 0.1409
8 7 5 3.2131 0.0459
8 7 6 -1.0779 -0.0498
8 7 7 -2.2403 -0.0289
8 7 8 3.3149 0.0022
8 7 9 -0.7722 0.0038
8 7 10 0.3877 0.0071
8 7 11 -3.2282 -0.0083
8 7 12 0.0362 0.0035
8 7 13 1.3533 -0.0004
8 7 14 4.3919 0.0110
8 7 15 -3.1772 -0.0032
8 7 16 -2.1728 -0.0427
8 8 0 5.6926 0.6152
8 8 1 -4.7724 -0.0613
8 8 2 -0.4579 -0.2016
8 8 3 0.6886 0.0628
8 8 4 2.3884 0.1153
8 8 5 -1.7984 -0.0220
8 8 6 1.4943 -0.1201
8 8 7 -2.9529 -0.0151
8 8 8 0.0081 0.0615
8 8 9 1.7655 0.0520
8 8 10 2.7574 -0.0059
8 8 11 -2.3147 -0.0905
8 8 12 -2.2218 -0.0671
8 8 13 -1.0896 0.1987
8 8 14 4.5791 0.0852
8 8 15 -0.5843 -0.2047
8 9 0 1.9163 0.5624
8 9 1 -1.2174 -0.0303
8 9 2 1.4498 -0.1955
8 9 3 -1.0208 0.0156
8 9 4 2.4828 0.1317
8 9 5 -4.6846 0.0156
8 9 6 1.6501 -0.0902
8 9 7 0.5004 -0.0546
8 9 8 -1.3058 0.0296
8 9 9 1.1439 0.0794
8 9 10 2.2308 0.0278
8 9 11 -1.4767 -0.0319
8 9 12 -0.9034 -0.1137
8 9 13 -1.5606 -0.0779
8 9 14 1.8364 0.2943
8 10 0 -0.0384 0.4747
8 10 1 -0.6123 -0.1218
8 10 2 1.5563 -0.1582
8 10 3 -3.6267 0.0231
8 10 4 2.7187 0.1282
8 10 5 -2.7610 0.0079
8 10 6 1.1130 -0.0547
8 10 7 4.4371 -0.0135
8 10 8 -1.3628 0.0192
8 10 9 -3.1834 -0.0042
8 10 10 -0.1247 -0.0164
8 10 11 1.4980 0.0200
8 10 12 -1.2076 0.0567
8 10 13 0.4314 -0.3312
8 11 0 2.0582 0.5726
8 11 1 -4.9853 -0.0501
8 11 2 4.5253 -0.2106
8 11 3 -2.2331 -0.0491
8 11 4 1.9674 0.0645
8 11 5 0.9847 0.0320
8 11 6 -0.6653 0.0083
8 11 7 -2.9700 0.0368
8 11 8 0.9046 0.0229
8 11 9 0.7306 -0.0547
8 11 10 -0.6366 -0.0691
8 11 11 3.7742 0.0045
8 11 12 -2.6971 0.2795
8 12 0 5.2514 0.3889
8 12 1 -4.2500 0.1264
8 12 2 4.3761 -0.0757
8 12 3 -2.8850 0.0050
8 12 4 -0.7478 -0.0200
8 12 5 -2.0752 -0.0955
8 12 6 3.8352 -0.0464
8 12 7 -2.1890 0.0761
8 12 8 1.3662 0.0774
8 12 9 0.6238 0.0458
8 12 10 -1.2430 -0.0292
8 12 11 0.9894 -0.1720
8 13 2 3.2073 0.0465
8 13 3 -2.1200 0.0346
8 13 4 0.1843 -0.0164
8 13 5 -1.5485 -0.0377
8 13 6 5.2796 -0.0403
8 13 7 -4.4228 -0.0467
8 13 8 -0.4355 -0.0137
9 -12 2 -1.5638 0.0974
9 -12 3 5.8588 0.1339
9 -12 4 -2.6668 0.1635
9 -12 5 0.6682 0.0052
9 -11 0 2.4407 0.1893
9 -11 1 1.1792 -0.1116
9 -11 2 -3.6975 -0.0791
9 -11 3 1.3528 -0.0583
9 -11 4 -0.3159 0.1848
9 -11 5 0.4460 0.1292
9 -11 6 1.7051 -0.2888
9 -11 7 -1.8185 0.0086
9 -11 8 2.0229 0.0808
9 -11 9 -2.1625 0.0304
9 -10 0 1.3984 0.1015
9 -10 1 -0.1577 -0.0350
9 -10 2 -3.2075 -0.1603
9 -10 3 1.4165 -0.0495
9 -10 4 1.2760 0.1738
9 -10 5 -4.0748 0.1361
9 -10 6 4.1428 -0.1303
9 -10 7 -0.1015 -0.1030
9 -10 8 -0.8965 0.0682
9 -10 9 -0.0398 0.0524
9 -10 10 -1.0608 0.0418
9 -9 0 1.7792 0.0898
9 -9 1 2.5712 0.1060
9 -9 2 -0.4942 -0.1728
9 -9 3 -1.9214 -0.0714
9 -9 4 -0.4075 0.1324
9 -9 5 -2.4347 0.0335
9 -9 6 4.0111 -0.0603
9 -9 7 1.3938 -0.0593
9 -9 8 -3.0715 0.0896
9 -9 9 1.2323 -0.0072
9 -9 10 1.5681 -0.0100
9 -9 11 -2.3729 -0.0556
9 -9 12 -1.6383 0.0423
9 -8 0 0.9637 0.1309
9 -8 1 0.3846 0.0840
9 -8 2 0.9627 -0.1560
9 -8 3 -0.5100 -0.0722
9 -8 4 -1.2256 0.1237
9 -8 5 -0.6528 0.0242
9 -8 6 0.0893 -0.0818
9 -8 7 3.0488 -0.0392
9 -8 8 -0.4103 0.1207
9 -8 9 -2.8140 0.0552
9 -8 10 2.4954 -0.0595
9 -8 11 -2.3450 -0.1115
9 -8 12 0.0286 -0.0376
9 -8 13 2.0506 0.1391
9 -7 0 4.5437 0.2030
9 -7 1 -1.3147 0.0487
9 -7 2 -1.0704 -0.1573
9 -7 3 2.1791 -0.0213
9 -7 4 -1.6582 0.1665
9 -7 5 -1.5397 0.0199
9 -7 6 -0.7521 -0.1885
9 -7 7 1.2563 -0.0320
9 -7 8 1.8853 0.1359
9 -7 9 -2.1002 0.0349
9 -7 10 5.1690 -0.0623
9 -7 11 -2.1776 -0.0582
9 -7 12 -6.9948 0.0347
9 -7 13 3.4238 0.1245
9 -7 14 3.1145 -0.1141
9 -6 0 0.3633 0.2791
9 -6 1 1.0551 0.0365
9 -6 2 -1.8791 -0.2040
9 -6 3 0.9316 -0.0211
9 -6 4 1.9908 0.1165
9 -6 5 -0.8775 0.0488
9 -6 6 -0.2889 -0.1191
9 -6 7 -1.2521 -0.0273
9 -6 8 1.3082 0.1074
9 -6 9 -3.0738 0.0485
9 -6 10 3.3053 -0.0492
9 -6 11 5.2699 -0.0913
9 -6 12 -8.7641 0.0136
9 -6 13 0.9649 0.0741
9 -6 14 2.1455 -0.0498
9 -5 0 -0.0918 0.2504
9 -5 1 -0.2655 0.0421
9 -5 2 -1.1629 -0.2209
9 -5 3 -0.9665 0.0313
9 -5 4 2.5838 0.2024
9 -5 5 -1.3580 0.0142
9 -5 6 0.1792 -0.1860
9 -5 7 -1.7008 -0.0649
9 -5 8 1.3792 0.1077
9 -5 9 -0.1719 0.1026
9 -5 10 -1.0904 -0.0486
9 -5 11 5.5715 -0.1039
9 -5 12 -4.4776 0.0401
9 -5 13 -2.0489 0.0544
9 -5 14 0.1429 -0.0316
9 -5 15 5.2459 -0.0161
9 -4 0 -2.7024 0.3489
9 -4 1 -2.9999 0.0345
9 -4 2 2.4724 -0.2003
9 -4 3 -0.8444 -0.0484
9 -4 4 2.3773 0.1462
9 -4 5 -1.2455 0.0520
9 -4 6 0.1311 -0.1320
9 -4 7 0.3323 -0.0613
9 -4 8 -1.2700 0.0917
9 -4 9 -0.3752 0.1040
9 -4 10 0.3294 -0.0562
9 -4 11 2.0242 -0.0952
9 -4 12 0.6534 0.0007
9 -4 13 -1.4237 0.0810
9 -4 14 -3.4522 0.0722
9 -4 15 4.5261 -0.0738
9 -4 16 -2.9465 -0.2130
9 -3 0 0.8928 0.3570
9 -3 1 -3.4655 -0.0264
9 -3 2 1.4775 -0.2138
9 -3 3 -1.4900 -0.0354
9 -3 4 1.6115 0.2098
9 -3 5 0.0802 0.0720
9 -3 6 -0.0758 -0.1683
9 -3 7 -0.4870 -0.0927
9 -3 8 -1.0329 0.0831
9 -3 9 1.3413 0.1078
9 -3 10 -0.6728 -0.0079
9 -3 11 -2.4699 -0.0717
9 -3 12 4.5655 -0.0579
9 -3 13 3.0760 0.0584
9 -3 14 -7.5862 0.0486
9 -3 15 -0.0129 -0.0207
9 -3 16 1.4810 -0.1962
9 -2 0 1.0622 0.4376
9 -2 1 -0.3157 -0.0031
9 -2 2 0.0477 -0.2289
9 -2 3 -3.2351 -0.0233
9 -2 4 2.1204 0.1885
9 -2 5 1.9733 0.0241
9 -2 6 -0.7635 -0.1474
9 -2 7 -0.5514 -0.0472
9 -2 8 -1.1794 0.1091
9 -2 9 0.5010 0.0437
9 -2 10 1.0590 -0.0515
9 -2 11 -1.1100 -0.0422
9 -2 12 -2.8332 -0.0110
9 -2 13 6.6503 0.0813
9 -2 14 -0.6446 0.0485
9 -2 15 -2.8142 -0.0370
9 -2 16 -1.3778 -0.2408
9 -1 0 1.1791 0.4264
9 -1 1 3.0021 0.0068
9 -1 2 0.5169 -0.2639
9 -1 3 -3.7949 -0.0154
9 -1 4 -1.4851 0.2087
9 -1 5 2.7882 0.0223
9 -1 6 1.1275 -0.1330
9 -1 7 -0.1110 -0.0740
9 -1 8 -0.9763 0.0817
9 -1 9 -0.6393 0.1042
9 -1 10 1.4010 -0.0184
9 -1 11 1.4128 -0.1199
9 -1 12 -6.0834 -0.0100
9 -1 13 3.2814 0.0711
9 -1 14 2.1751 0.0392
9 -1 15 -0.0635 0.0369
9 -1 16 -3.1924 -0.1323
9 0 0 0.0384 0.4926
9 0 1 1.7473 0.0254
9 0 2 -3.6795 -0.2743
9 0 3 -0.0515 -0.0276
9 0 4 2.1748 0.2031
9 0 5 1.2440 0.0536
9 0 6 -2.2245 -0.1526
9 0 7 0.2878 -0.0800
9 0 8 1.4517 0.0920
9 0 9 -2.2811 0.0810
9 0 10 0.5375 -0.0204
9 0 11 -1.2742 -0.0761
9 0 12 1.0742 -0.0187
9 0 13 2.1883 -0.0002
9 0 14 -1.2136 0.1075
9 0 15 0.8334 0.0717
9 0 16 -1.2057 -0.1462
9 0 17 -0.5362 -0.1748
9 1 0 -1.4293 0.4882
9 1 1 4.4274 -0.0094
9 1 2 -1.0527 -0.2694
9 1 3 -1.7571 -0.0234
9 1 4 -1.0936 0.1691
9 1 5 1.3323 0.0619
9 1 6 0.6369 -0.1185
9 1 7 -0.5353 -0.0588
9 1 8 0.7747 0.0651
9 1 9 -2.1726 0.0653
9 1 10 3.5730 -0.0171
9 1 11 -2.4367 -0.0574
9 1 12 2.9948 -0.0017
9 1 13 -4.7738 0.0031
9 1 14 0.1556 0.0372
9 1 15 3.7746 -0.0060
9 1 16 -0.1126 0.0040
9 1 17 -3.1295 -0.0822
9 2 0 1.5953 0.4978
9 2 1 2.9118 -0.0303
9 2 2 -0.3662 -0.2613
9 2 3 -4.2003 0.0109
9 2 4 0.6014 0.2074
9 2 5 2.1347 0.0351
9 2 6 0.5899 -0.1677
9 2 7 -1.5806 -0.0535
9 2 8 0.3567 0.1066
9 2 9 0.4752 0.0812
9 2 10 3.0009 -0.0529
9 2 11 -7.3236 -0.0804
9 2 12 3.5823 -0.0463
9 2 13 -0.8354 0.0282
9 2 14 1.2215 0.1182
9 2 15 1.1451 0.0493
9 2 16 1.0244 -0.0253
9 2 17 -3.6604 -0.2340
9 3 0 -0.4469 0.5436
9 3 1 -0.7238 -0.0251
9 3 2 1.5829 -0.2872
9 3 3 -2.3406 -0.0331
9 3 4 1.9610 0.1960
9 3 5 1.3009 0.0619
9 3 6 -1.3628 -0.1066
9 3 7 -0.8155 -0.0809
9 3 8 0.4805 0.0264
9 3 9 -1.4468 0.0781
9 3 10 2.1961 0.0012
9 3 11 -2.0674 -0.0189
9 3 12 3.7799 -0.0314
9 3 13 -1.0890 -0.0046
9 3 14 -3.7040 0.0232
9 3 15 1.2452 0.0278
9 3 16 3.6968 0.0269
9 4 0 -2.0416 0.5187
9 4 1 0.8627 -0.0512
9 4 2 1.6808 -0.2863
9 4 3 -2.8007 -0.0621
9 4 4 0.5129 0.1960
9 4 5 1.8155 0.0677
9 4 6 -2.0860 -0.1054
9 4 7 0.3858 -0.0353
9 4 8 1.5416 0.0868
9 4 9 -1.4571 0.0721
9 4 10 2.0315 -0.0400
9 4 11 -1.4082 -0.1057
9 4 12 -0.5023 -0.0720
9 4 13 0.9294 0.0713
9 4 14 -0.8959 0.1056
9 4 15 0.1923 -0.0183
9 4 16 -1.0235 -0.2065
9 5 0 -4.8055 0.5874
9 5 1 2.2152 0.0005
9 5 2 0.0836 -0.2872
9 5 3 -1.1163 0.0007
9 5 4 0.8947 0.1952
9 5 5 2.0952 0.0053
9 5 6 -2.1619 -0.1233
9 5 7 -0.6032 -0.0754
9 5 8 1.5391 0.0649
9 5 9 0.0602 0.1036
9 5 10 -1.9066 0.0139
9 5 11 -1.2019 -0.0721
9 5 12 2.4774 -0.0845
9 5 13 0.1735 -0.0278
9 5 14 1.1560 0.1448
9 5 15 -0.6854 0.1370
9 5 16 -2.1886 -0.3215
9 6 0 -5.7880 0.5686
9 6 1 0.4422 -0.0371
9 6 2 1.7195 -0.2776
9 6 3 -0.7614 -0.0216
9 6 4 -0.6461 0.1478
9 6 5 0.5568 0.0248
9 6 6 0.9809 -0.1084
9 6 7 -2.1204 -0.0234
9 6 8 -0.9476 0.1090
9 6 9 3.5688 0.0007
9 6 10 -1.1018 -0.0513
9 6 11 -0.4080 0.0325
9 6 12 2.2353 0.0190
9 6 13 -5.1147 -0.0254
9 6 14 2.8247 -0.0017
9 6 15 0.9433 -0.0728
9 6 16 -0.9928 -0.0236
9 7 0 -4.6247 0.5059
9 7 1 -4.3123 -0.0103
9 7 2 3.9518 -0.2288
9 7 3 0.1736 0.0237
9 7 4 0.1238 0.1313
9 7 5 -2.6491 0.0070
9 7 6 4.2314 -0.0907
9 7 7 -0.9033 -0.0270
9 7 8 -1.4259 0.0706
9 7 9 0.3962 0.0675
9 7 10 -2.3062 -0.0372
9 7 11 1.7490 -0.1145
9 7 12 3.8081 -0.0418
9 7 13 -5.0884 0.1466
9 7 14 1.5459 0.0785
9 7 15 -0.0675 -0.2370
9 8 0 0.7398 0.4339
9 8 1 -0.5604 -0.0219
9 8 2 0.4884 -0.1733
9 8 3 -2.6957 0.0110
9 8 4 4.5064 0.1280
9 8 5 -3.0936 0.0309
9 8 6 2.8711 -0.1069
9 8 7 -1.0207 -0.0597
9 8 8 -1.5801 0.0218
9 8 9 -0.7594 0.0562
9 8 10 0.1922 0.0398
9 8 11 1.5206 -0.0246
9 8 12 2.7356 -0.0568
9 8 13 -2.5544 0.0479
9 8 14 -0.3618 0.0285
9 8 15 -2.2916 -0.0302
9 9 0 -1.0306 0.4616
9 9 1 -0.6744 -0.0306
9 9 2 2.8122 -0.2061
9 9 3 -1.5202 -0.0646
9 9 4 -0.9246 0.1049
9 9 5 -0.2196 0.0687
9 9 6 1.7949 -0.0043
9 9 7 0.1679 -0.0054
9 9 8 -1.7077 -0.0090
9 9 9 0.0891 -0.0482
9 9 10 0.1437 -0.0432
9 9 11 -0.0225 0.0362
9 9 12 1.0526 0.1586
9 9 13 -0.7871 0.0177
9 9 14 1.6686 -0.4149
9 10 0 -2.2650 0.4782
9 10 1 1.0757 0.0099
9 10 2 -1.0479 -0.1726
9 10 3 -1.4346 -0.0552
9 10 4 -2.6605 0.0431
9 10 5 5.8882 -0.0009
9 10 6 -3.1187 0.0015
9 10 7 3.0188 0.0480
9 10 8 -0.4240 0.0758
9 10 9 -0.8797 -0.0540
9 10 10 -2.2676 -0.1414
9 10 11 1.5778 -0.0588
9 10 12 -0.3635 0.1634
9 10 13 -0.8728 0.2590
9 11 0 1.3043 0.3386
9 11 1 2.1315 0.1624
9 11 2 -3.4288 -0.0767
9 11 3 2.4060 -0.0589
9 11 4 -4.0096 -0.0216
9 11 5 6.4858 -0.0019
9 11 6 -2.5963 -0.0197
9 11 7 0.5686 -0.0069
9 11 8 -3.8610 0.0616
9 11 9 0.7845 0.0702
9 11 10 0.6660 -0.0309
9 11 11 4.0278 -0.1357
9 12 1 5.9160 0.0556
9 12 2 -1.8414 0.0036
9 12 3 -0.8841 0.0602
9 12 4 -2.9582 0.0747
9 12 5 1.4888 0.0013
9 12 6 -1.8610 -0.1107
9 12 7 3.0662 -0.0612
9 12 8 1.3183 -0.0301
9 12 9 -1.1015 0.0758
10 -11 2 -1.4182 0.2129
10 -11 3 -1.2389 -0.0771
10 -11 4 -0.1580 0.0119
10 -11 5 1.1860 0.0512
10 -11 6 0.6585 -0.2075
10 -10 0 -2.0450 -0.1974
10 -10 1 3.0038 -0.1124
10 -10 2 -4.3424 -0.0082
10 -10 3 1.5303 0.0816
10 -10 4 1.7328 0.1126
10 -10 5 0.6000 0.0758
10 -10 6 -1.0214 -0.2149
10 -10 7 -1.6363 -0.0275
10 -10 8 1.6291 0.0468
10 -10 9 -3.9428 0.0568
10 -9 0 -2.0594 -0.1431
10 -9 1 2.9661 0.1166
10 -9 2 -1.6528 -0.1249
10 -9 3 -0.3205 -0.0634
10 -9 4 -0.7583 0.1032
10 -9 5 3.6312 0.1309
10 -9 6 0.3780 -0.1033
10 -9 7 -4.6385 -0.0712
10 -9 8 4.4171 0.0818
10 -9 9 -5.9330 -0.0529
10 -9 10 5.0305 -0.0850
10 -9 11 -0.4922 0.1826
10 -8 0 -0.9811 -0.1831
10 -8 1 -3.1731 0.0758
10 -8 2 0.8567 -0.0664
10 -8 3 -0.2609 -0.0798
10 -8 4 -0.1798 0.0822
10 -8 5 3.0229 0.0879
10 -8 6 0.0384 -0.0443
10 -8 7 -4.8195 -0.0773
10 -8 8 6.5603 0.0792
10 -8 9 -4.3411 0.0220
10 -8 10 -0.9073 -0.1289
10 -8 11 -0.8190 0.1108
10 -8 12 2.5298 -0.0650
10 -7 0 1.2261 -0.1105
10 -7 1 -2.4808 0.0278
10 -7 2 2.0252 -0.0700
10 -7 3 -1.0535 -0.0732
10 -7 4 0.4559 0.1101
10 -7 5 -0.5591 0.0466
10 -7 6 0.7713 -0.0742
10 -7 7 -1.7891 -0.0115
10 -7 8 2.4515 0.0664
10 -7 9 -0.1030 0.0210
10 -7 10 0.2532 -0.1357
10 -7 11 -2.2123 -0.0390
10 -7 12 0.0727 0.0848
10 -7 13 0.5979 0.1948
10 -6 0 -4.2302 -0.0168
10 -6 1 -1.2083 0.1092
10 -6 2 1.9075 -0.1243
10 -6 3 -0.1173 -0.0941
10 -6 4 1.2791 0.0629
10 -6 5 -1.3990 0.0296
10 -6 6 -0.0065 -0.0504
10 -6 7 1.1048 0.0167
10 -6 8 -0.7213 0.0986
10 -6 9 0.5014 0.0567
10 -6 10 0.2336 -0.0844
10 -6 11 -1.8689 -0.1673
10 -6 12 0.2301 0.0370
10 -6 13 -0.2081 0.1810
10 -6 14 2.3679 -0.0771
10 -5 0 -2.7290 -0.1038
10 -5 1 3.9919 0.1233
10 -5 2 -1.8612 -0.1213
10 -5 3 -0.5840 -0.0569
10 -5 4 -0.1230 0.1478
10 -5 5 0.1987 0.0510
10 -5 6 -1.1891 -0.1322
10 -5 7 0.7473 -0.0815
10 -5 8 -0.7149 0.1120
10 -5 9 2.4470 0.0527
10 -5 10 0.4411 -0.0334
10 -5 12 2.3698 0.0087
10 -5 13 -4.6595 0.1266
10 -5 14 3.0060 0.0086
10 -4 0 -5.6945 -0.0419
10 -4 1 4.2503 0.1175
10 -4 2 -2.1161 -0.0736
10 -4 3 2.0297 -0.0496
10 -4 4 -0.3700 0.0515
10 -4 5 1.8063 0.0118
10 -4 6 -2.0348 -0.0751
10 -4 7 -0.4538 -0.0732
10 -4 8 0.4117 0.1380
10 -4 9 0.4886 0.1121
10 -4 10 0.8280 -0.0773
10 -4 11 -2.0486 -0.1116
10 -4 12 5.1514 -0.0015
10 -4 13 -8.0202 0.0625
10 -4 14 2.4917 0.0703
10 -4 15 3.4113 -0.1937
10 -3 0 -2.3161 -0.0166
10 -3 1 5.0967 0.0639
10 -3 2 -3.6602 -0.1195
10 -3 3 1.8356 -0.0283
10 -3 4 -1.3158 0.1400
10 -3 5 0.5694 0.0884
10 -3 6 0.8247 -0.1267
10 -3 7 -2.6305 -0.1118
10 -3 8 -0.0826 0.0742
10 -3 9 2.0705 0.0997
10 -3 10 1.4814 -0.0605
10 -3 11 -5.5417 -0.0833
10 -3 12 6.7426 0.0678
10 -3 13 -2.4954 0.0928
10 -3 14 -1.9364 -0.0166
10 -3 15 0.7272 -0.3130
10 -2 0 -3.0680 0.0528
10 -2 1 3.7699 0.0703
10 -2 2 -4.5276 -0.1605
10 -2 3 1.2026 -0.0089
10 -2 4 2.2168 0.1467
10 -2 5 -1.7036 0.0669
10 -2 6 1.1682 -0.1653
10 -2 7 -0.7674 -0.0747
10 -2 8 0.0434 0.0890
10 -2 9 -1.0803 0.0982
10 -2 10 2.5049 -0.0405
10 -2 11 -1.2165 -0.0837
10 -2 12 0.7076 0.0197
10 -2 13 -1.4145 0.0868
10 -2 14 -0.4750 0.0344
10 -2 15 2.2246 -0.2076
10 -2 16 -0.9347 -0.0016
10 -1 0 -1.2104 0.0331
10 -1 1 2.7104 0.0158
10 -1 2 -2.1038 -0.1416
10 -1 3 -0.3625 -0.0127
10 -1 4 4.1849 0.1475
10 -1 5 -2.4412 0.0796
10 -1 6 -0.8415 -0.1223
10 -1 7 -0.3526 -0.0751
10 -1 8 0.4667 0.0512
10 -1 9 -0.6266 0.0665
10 -1 10 1.7677 -0.0197
10 -1 11 0.6481 -0.0725
10 -1 12 -1.2343 -0.0072
10 -1 13 -0.6544 0.1201
10 -1 14 -1.3902 0.0092
10 -1 15 2.6230 -0.0946
10 -1 16 -1.7554 -0.1682
10 0 0 -0.1786 0.1573
10 0 1 -2.3105 0.0477
10 0 2 -0.5301 -0.1687
10 0 3 -3.1346 -0.0610
10 0 4 5.8151 0.1806
10 0 5 1.4415 0.0673
10 0 6 -4.5344 -0.1388
10 0 7 -1.2025 -0.0921
10 0 8 3.0939 0.0951
10 0 9 -0.4529 0.0607
10 0 10 -1.2129 -0.0539
10 0 11 -0.9185 -0.0177
10 0 12 1.3745 0.0050
10 0 13 2.7512 0.0482
10 0 14 -1.0291 0.0207
10 0 15 -0.4473 0.0347
10 0 16 -3.6257 -0.2991
10 1 0 0.3512 0.1424
10 1 1 -4.9849 0.0063
10 1 2 4.5840 -0.1594
10 1 3 -0.2110 -0.0486
10 1 4 -0.8605 0.1777
10 1 5 0.9873 0.0669
10 1 6 0.0273 -0.1201
10 1 7 -1.9321 -0.1074
10 1 8 0.6759 0.0932
10 1 9 0.8438 0.1136
10 1 10 -0.4948 -0.0619
10 1 11 0.3892 -0.1137
10 1 12 2.6577 0.0240
10 1 13 -3.0612 0.1138
10 1 14 -2.1498 0.0413
10 1 15 2.6347 -0.0649
10 1 16 -0.9235 -0.3096
10 2 0 3.2049 0.1551
10 2 1 -2.5919 0.0195
10 2 2 2.6666 -0.1680
10 2 3 0.1917 -0.0186
10 2 4 -2.8088 0.1967
10 2 5 1.3601 0.0921
10 2 6 1.8178 -0.1435
10 2 7 -2.1929 -0.1324
10 2 8 -0.3476 0.0394
10 2 9 2.3637 0.0931
10 2 10 -1.5814 0.0228
10 2 11 -2.3339 -0.0830
10 2 12 2.2792 -0.0202
10 2 13 -0.1753 0.0422
10 2 14 1.3494 0.1001
10 2 15 0.8150 0.0324
10 2 16 -3.1394 -0.3134
10 3 0 -3.7114 0.1806
10 3 1 -1.7535 0.0797
10 3 2 -0.3134 -0.2018
10 3 3 2.7644 -0.0718
10 3 4 -0.7328 0.1348
10 3 5 -0.1239 0.0890
10 3 6 0.2797 -0.0928
10 3 7 -0.1835 -0.0764
10 3 8 -0.3919 0.0502
10 3 9 1.3588 0.0713
10 3 10 -1.9634 -0.0381
10 3 11 -1.8150 -0.1073
10 3 12 4.6959 0.0847
10 3 13 0.4063 0.1184
10 3 14 -2.6484 0.0015
10 3 15 -0.1714 -0.0847
10 3 16 -1.5767 -0.3554
10 4 0 -6.0297 0.2098
10 4 1 1.2075 0.0345
10 4 2 1.3999 -0.1928
10 4 3 3.5163 -0.0411
10 4 4 -3.4019 0.1611
10 4 5 -1.8473 0.1081
10 4 6 0.7266 -0.1201
10 4 7 2.3605 -0.0962
10 4 8 -1.1699 0.0786
10 4 9 -0.2033 0.0710
10 4 10 1.8967 -0.0221
10 4 11 -2.2409 -0.0589
10 4 12 -0.0713 -0.0895
10 4 13 -0.3152 0.0107
10 4 14 0.8063 0.2288
10 4 15 2.1905 0.0349
10 4 16 -3.2489 -0.4432
10 5 0 -5.1549 0.2334
10 5 1 1.0932 0.0784
10 5 2 0.5909 -0.1511
10 5 3 3.2820 -0.0488
10 5 4 -2.3987 0.1753
10 5 5 -1.8689 0.0705
10 5 6 -0.4458 -0.1286
10 5 7 2.9053 -0.0984
10 5 8 -0.0194 0.0098
10 5 9 -0.6620 0.0478
10 5 10 0.1597 -0.0148
10 5 11 -2.0280 0.0430
10 5 12 1.1810 0.0521
10 5 13 0.0493 -0.0352
10 5 14 -0.0291 0.0347
10 5 15 0.8834 -0.0715
10 5 16 0.1613 -0.0674
10 6 0 -0.8008 0.3157
10 6 1 1.0391 -0.0275
10 6 2 -1.3986 -0.2248
10 6 3 1.8159 -0.0809
10 6 4 -0.3485 0.1278
10 6 5 -0.5423 0.0857
10 6 6 -2.0107 -0.0320
10 6 7 1.2868 -0.0071
10 6 8 -0.3837 0.0496
10 6 9 1.0201 -0.0017
10 6 10 0.5849 -0.1412
10 6 11 1.0022 -0.0296
10 6 12 -1.0675 0.1190
10 6 13 -1.6595 0.1046
10 6 14 -0.6894 0.0052
10 6 15 1.5246 -0.2754
10 7 0 0.8353 0.2353
10 7 1 -0.2213 0.0308
10 7 2 -1.4398 -0.1582
10 7 3 3.0288 -0.0234
10 7 4 -0.1175 0.1727
10 7 5 0.2499 0.0484
10 7 6 -2.1194 -0.0960
10 7 7 -0.8292 -0.0482
10 7 8 1.4277 0.0075
10 7 9 2.5281 0.0396
10 7 10 -3.2030 0.0458
10 7 11 1.6245 -0.0600
10 7 12 -1.9040 -0.1112
10 7 13 2.1777 0.0947
10 7 14 -2.0752 0.0380
10 7 15 1.4239 -0.0262
10 8 0 -1.2305 0.1878
10 8 1 4.8216 0.1396
10 8 2 -1.5651 -0.0961
10 8 3 -0.6601 -0.1314
10 8 4 0.9109 0.0151
10 8 5 2.0838 0.0657
10 8 6 -1.0946 0.0142
10 8 7 -3.5303 -0.0300
10 8 8 -0.1525 0.0447
10 8 9 4.5118 -0.0233
10 8 10 -1.9175 -0.0594
10 8 11 1.7966 0.0250
10 8 12 -4.4923 0.0815
10 8 13 4.3013 0.0816
10 8 14 -2.0880 -0.3548
10 9 0 -0.0029 0.1449
10 9 1 0.3748 0.0341
10 9 2 -2.4413 -0.1439
10 9 3 3.1528 -0.0230
10 9 4 1.0418 0.0713
10 9 5 -4.0290 0.0065
10 9 6 2.1166 -0.0439
10 9 7 1.0754 -0.0378
10 9 8 -5.3728 0.1311
10 9 9 5.7661 0.0641
10 9 10 -0.1521 -0.1184
10 9 11 -0.7492 -0.1418
10 9 12 -3.4664 0.0872
10 9 13 3.2747 0.3115
10 10 0 -0.9199 0.0877
10 10 1 0.1205 0.0303
10 10 2 -1.3390 -0.0519
10 10 3 -2.6237 0.0751
10 10 4 4.2132 0.0819
10 10 5 -0.3381 -0.0789
10 10 6 -1.8261 -0.1675
10 10 7 3.5479 0.0085
10 10 8 -6.7092 0.0962
10 10 9 5.5323 0.0970
10 10 10 1.4898 0.0545
10 10 11 -2.8546 -0.1534
10 10 12 -2.0817 -0.1597
10 11 2 1.6112 -0.0289
10 11 3 -1.7510 0.0307
10 11 4 3.7082 0.0972
10 11 5 -1.1468 0.0405
10 11 6 -3.5226 -0.2144
10 11 7 7.1154 0.0673
10 11 8 -7.9206 -0.0516
10 11 9 -1.0462 -0.0155
10 11 10 5.1615 0.2077
11 -10 4 1.9148 0.0825
11 -10 5 0.2089 -0.0544
11 -10 6 -5.0658 -0.2676
11 -9 1 -2.3569 0.3599
11 -9 2 3.3909 -0.0632
11 -9 3 0.2197 0.0100
11 -9 4 -1.8281 0.0523
11 -9 5 2.5638 0.0809
11 -9 6 -2.4267 -0.1684
11 -9 7 -2.0208 -0.0403
11 -9 8 1.4275 0.0730
11 -9 9 3.2840 0.0112
11 -8 0 0.4814 -0.4838
11 -8 1 -0.6676 0.1741
11 -8 2 -0.7611 -0.0701
11 -8 3 -0.0725 -0.0089
11 -8 4 0.0018 0.1436
11 -8 5 2.1546 0.1052
11 -8 6 -0.5442 -0.0884
11 -8 7 -1.8529 -0.1556
11 -8 8 -2.5662 0.0121
11 -8 9 4.7781 -0.0047
11 -8 10 0.1846 0.0809
11 -8 11 -2.3421 0.1376
11 -7 0 -4.5302 -0.4125
11 -7 1 4.8376 0.1588
11 -7 2 0.4853 -0.0140
11 -7 3 -1.3905 -0.1280
11 -7 4 0.4205 0.0724
11 -7 5 -0.3617 0.0967
11 -7 6 1.0040 -0.0186
11 -7 7 1.2239 -0.0253
11 -7 8 -5.4575 0.0469
11 -7 9 1.5044 -0.0754
11 -7 10 4.2644 -0.1149
11 -7 11 -0.9766 0.1191
11 -7 12 -0.9857 0.0285
11 -6 0 -3.9493 -0.3886
11 -6 1 3.3068 0.1570
11 -6 2 -1.5196 0.0373
11 -6 3 -1.8508 -0.0472
11 -6 4 1.7108 0.0000
11 -6 5 0.2240 0.0204
11 -6 6 -0.4350 -0.0485
11 -6 7 3.4313 0.0033
11 -6 8 -3.3587 0.0687
11 -6 9 -2.9119 0.1014
11 -6 10 2.4315 -0.1261
11 -6 11 1.2604 -0.1228
11 -6 12 -0.3620 0.0613
11 -6 13 -0.0216 0.1961
11 -5 0 0.6486 -0.3784
11 -5 1 4.6241 0.1157
11 -5 2 -1.4726 0.0229
11 -5 3 -3.5658 -0.0173
11 -5 4 -0.6305 0.0378
11 -5 5 2.7067 0.0440
11 -5 6 -1.8396 -0.0891
11 -5 7 3.1314 -0.0394
11 -5 8 -1.1994 0.0651
11 -5 9 -1.1423 0.0741
11 -5 10 -0.0965 -0.0819
11 -5 11 0.1851 -0.1161
11 -5 12 -0.2377 0.0447
11 -5 13 2.7076 0.2200
11 -5 14 -2.6107 -0.0799
11 -4 0 -0.0998 -0.3676
11 -4 1 -0.1816 0.1484
11 -4 2 0.6570 0.0187
11 -4 3 -0.2276 -0.0670
11 -4 4 -1.0188 0.0369
11 -4 5 4.5642 0.0013
11 -4 6 -4.1549 -0.0518
11 -4 7 0.5586 -0.0530
11 -4 8 1.5169 0.0779
11 -4 9 0.8487 0.1266
11 -4 10 -2.3761 0.0106
11 -4 11 -0.1083 -0.1448
11 -4 12 -2.0690 -0.1030
11 -4 13 4.3954 0.1073
11 -4 14 -1.8340 0.0764
11 -3 0 1.8926 -0.4204
11 -3 1 0.2545 0.1468
11 -3 2 2.8472 0.0830
11 -3 3 0.6707 -0.0931
11 -3 4 -5.4629 0.0361
11 -3 5 1.6820 0.0516
11 -3 6 -0.0355 -0.0622
11 -3 7 -0.1799 -0.0959
11 -3 8 0.7337 0.1161
11 -3 9 1.1157 0.1134
11 -3 10 0.3422 -0.0979
11 -3 11 -1.1663 -0.1560
11 -3 12 -5.4744 0.0170
11 -3 13 8.0059 0.1619
11 -3 14 -1.0384 0.1031
11 -3 15 -2.1080 -0.2323
11 -2 0 -0.7047 -0.2935
11 -2 1 -3.0774 0.1663
11 -2 2 2.3730 -0.0101
11 -2 3 3.0986 -0.0805
11 -2 4 -4.7635 0.0403
11 -2 5 -0.0483 0.0453
11 -2 6 2.2841 -0.0958
11 -2 7 -1.1200 -0.0803
11 -2 8 3.1477 0.1082
11 -2 9 -1.3308 0.1269
11 -2 10 -1.9318 -0.0378
11 -2 11 2.4463 -0.0966
11 -2 12 -3.6137 -0.0118
11 -2 13 3.1633 0.0245
11 -2 14 -3.1484 0.0346
11 -2 15 1.8989 -0.1043
11 -1 0 2.4145 -0.2655
11 -1 1 -2.0408 0.1345
11 -1 2 0.7951 -0.0299
11 -1 3 5.3967 0.0006
11 -1 4 -2.9978 0.0526
11 -1 5 -3.1721 0.0096
11 -1 6 2.3249 -0.0971
11 -1 7 -1.9428 -0.0575
11 -1 8 1.3891 0.0912
11 -1 9 1.6180 0.1292
11 -1 10 -0.7890 -0.0210
11 -1 11 -1.1359 -0.1875
11 -1 12 -1.4802 -0.0690
11 -1 13 4.3833 0.1841
11 -1 14 -3.3451 0.1136
11 -1 15 0.0300 -0.1843
11 0 0 4.5828 -0.2024
11 0 1 -0.6145 0.2043
11 0 2 -2.3620 -0.0549
11 0 3 3.2260 -0.1159
11 0 4 -1.2034 0.0780
11 0 5 -2.7381 0.0612
11 0 6 0.8479 -0.1119
11 0 7 0.3515 -0.0815
11 0 8 0.8856 0.1017
11 0 9 1.5339 0.1000
11 0 10 0.4080 -0.0193
11 0 11 -3.6021 -0.0800
11 0 12 -1.5087 -0.0283
11 0 13 3.9622 0.0575
11 0 14 1.2023 0.0586
11 0 15 -1.8458 -0.0945
11 0 16 -1.0319 -0.1837
11 1 0 -1.2958 -0.2161
11 1 1 2.5426 0.1405
11 1 2 -1.2346 -0.0205
11 1 3 3.5855 -0.0790
11 1 4 0.2906 0.0548
11 1 5 -3.1641 0.0755
11 1 6 -0.4604 -0.0781
11 1 7 2.4733 -0.1082
11 1 8 -0.9793 0.0764
11 1 9 -2.2505 0.1832
11 1 10 3.4987 -0.0223
11 1 11 0.4341 -0.2086
11 1 12 -0.1915 -0.0532
11 1 13 -2.4650 0.1371
11 1 14 -0.4232 0.1116
11 1 15 -1.1820 -0.0769
11 1 16 4.0533 -0.2639
11 2 0 -5.1497 -0.0647
11 2 1 4.4702 0.1567
11 2 2 1.6614 -0.0650
11 2 3 -0.1469 -0.0622
11 2 4 -2.8355 0.0498
11 2 5 0.7785 0.0849
11 2 6 -0.4483 -0.1008
11 2 7 0.6210 -0.1032
11 2 8 2.3129 0.0750
11 2 9 -3.2124 0.1001
11 2 10 -0.1045 -0.0515
11 2 11 0.6105 -0.0310
11 2 12 1.3555 0.0255
11 2 13 -1.7386 -0.0022
11 2 14 1.3249 -0.0284
11 2 15 -1.0506 0.0277
11 2 16 3.1669 -0.0954
11 3 0 -6.8341 -0.1321
11 3 1 -1.4233 0.1557
11 3 2 1.3092 -0.0295
11 3 3 -0.4630 -0.0994
11 3 4 -1.6239 0.0331
11 3 5 3.7231 0.0493
11 3 6 -0.7934 -0.0955
11 3 7 -2.6373 -0.0794
11 3 8 3.0180 0.0993
11 3 9 -0.5653 0.1767
11 3 10 -1.1814 -0.0117
11 3 11 -0.6430 -0.1845
11 3 12 1.4776 -0.0608
11 3 13 1.8890 0.1921
11 3 14 -1.7206 -0.0100
11 3 15 -3.0756 -0.1795
11 4 0 -0.7333 -0.0969
11 4 1 -1.7243 0.1143
11 4 2 2.0743 0.0041
11 4 3 1.7643 -0.0284
11 4 4 -0.9445 0.1090
11 4 5 -0.7844 0.0210
11 4 6 0.1005 -0.0876
11 4 7 -1.5900 -0.0769
11 4 8 1.8767 0.0343
11 4 9 0.1353 0.0333
11 4 10 -0.3018 0.0375
11 4 11 0.7444 0.0351
11 4 12 -2.5499 -0.0504
11 4 13 1.3962 -0.0665
11 4 14 0.2192 0.0093
11 4 15 -0.0510 -0.1061
11 5 0 4.3411 -0.0724
11 5 1 -1.6528 0.0694
11 5 2 -1.5971 0.0309
11 5 3 -0.1097 -0.0249
11 5 4 1.6221 0.0716
11 5 5 -1.5071 0.0004
11 5 6 2.7162 -0.1071
11 5 7 -2.2736 -0.0480
11 5 8 0.0098 0.0613
11 5 9 1.6190 0.0185
11 5 10 -1.8267 -0.0174
11 5 11 0.8814 -0.0442
11 5 12 -1.1000 0.1083
11 5 13 1.3525 0.1078
11 5 14 0.6371 -0.0120
11 5 15 -2.2701 -0.4433
11 6 0 3.6949 -0.1119
11 6 1 1.3306 -0.0034
11 6 2 -2.3720 -0.1181
11 6 3 -2.0635 0.0248
11 6 4 0.3644 0.0578
11 6 5 -0.2511 0.0262
11 6 6 5.0883 -0.0399
11 6 7 -1.9026 -0.0290
11 6 8 -3.0269 0.0774
11 6 9 0.9607 0.1178
11 6 10 -1.0286 -0.0903
11 6 11 1.8539 -0.2046
11 6 12 1.2815 0.0824
11 6 13 -2.0053 0.1273
11 6 14 1.2584 -0.0142
11 7 0 1.4661 -0.1594
11 7 1 0.6102 0.0119
11 7 2 -3.5205 -0.0637
11 7 3 3.8464 0.0706
11 7 4 -2.0543 0.1174
11 7 5 -2.8789 0.0699
11 7 6 3.0290 -0.1110
11 7 7 2.4894 -0.1239
11 7 8 -0.9755 0.0038
11 7 9 -0.4518 0.0824
11 7 10 -1.6846 -0.0267
11 7 11 -2.1668 0.0110
11 7 12 3.0685 0.0850
11 7 13 0.2600 0.0524
11 7 14 0.5934 -0.3557
11 8 0 -1.7728 -0.0769
11 8 1 2.4374 0.0485
11 8 2 -1.4043 0.1141
11 8 3 4.4500 -0.1012
11 8 4 -5.6632 -0.1273
11 8 5 0.2693 -0.0093
11 8 6 -0.0932 0.0341
11 8 7 1.5572 0.0645
11 8 8 2.2185 0.1111
11 8 9 -1.6392 0.0191
11 8 10 -0.2258 -0.2171
11 8 11 -1.9666 -0.1139
11 8 12 0.8985 0.1437
11 8 13 0.6485 0.4245
11 9 1 2.8837 -0.1061
11 9 2 -4.9087 0.0352
11 9 3 5.2885 -0.0797
11 9 4 -2.0810 0.0827
11 9 5 -0.8038 0.0578
11 9 6 -2.9472 -0.0690
11 9 7 1.3111 -0.0439
11 9 8 4.2794 0.0881
11 9 9 -1.4389 0.0332
11 9 10 -1.1481 -0.0395
11 9 11 -1.0175 -0.1000
11 9 12 1.0380 -0.1059
11 10 2 -1.5004 0.1608
11 10 3 -0.7171 0.0616
11 10 4 -2.2402 0.0127
11 10 5 5.7770 -0.0604
11 10 6 -0.3695 -0.0614
11 10 7 -5.6963 0.0335
11 10 8 1.6120 0.0483
11 10 9 3.3764 -0.1045
11 10 10 -1.0551 0.0813
12 -8 2 -6.2821 0.1130
12 -8 3 2.5839 -0.1041
12 -8 4 2.2274 0.0263
12 -8 5 -5.0246 0.0009
12 -8 6 3.8314 -0.0522
12 -8 7 -0.4774 -0.0587
12 -8 8 -0.3663 0.0239
12 -8 9 0.9349 0.0049
12 -7 1 1.3521 0.4257
12 -7 2 -4.1449 0.1974
12 -7 3 4.2085 -0.2110
12 -7 4 2.3092 -0.0788
12 -7 5 -4.7908 0.0622
12 -7 6 1.5350 0.0297
12 -7 7 -0.6990 -0.0537
12 -7 8 0.7003 0.0602
12 -7 9 0.4237 -0.0573
12 -7 10 -0.4644 0.0648
12 -6 0 0.9455 -0.8560
12 -6 1 2.5445 0.2834
12 -6 2 -2.6521 0.1681
12 -6 3 1.3341 -0.0571
12 -6 4 -0.4150 -0.0441
12 -6 5 -1.0012 0.0762
12 -6 6 0.4959 0.0409
12 -6 7 -0.6708 -0.0774
12 -6 8 2.0528 -0.0893
12 -6 9 -0.2528 -0.0190
12 -6 10 -2.0950 0.1346
12 -6 11 -1.2153 -0.0354
12 -6 12 4.5218 0.0030
12 -5 0 -3.1565 -0.7348
12 -5 1 1.1651 0.2283
12 -5 2 0.8270 0.1669
12 -5 3 2.6156 -0.0752
12 -5 4 -2.7978 -0.1177
12 -5 5 -2.3717 0.0702
12 -5 6 2.4294 0.0629
12 -5 7 0.2305 0.0289
12 -5 8 0.3696 0.0001
12 -5 9 0.0369 -0.0534
12 -5 10 0.8188 -0.1476
12 -5 11 -5.2611 -0.1003
12 -5 12 5.5481 0.2305
12 -5 13 0.0356 0.3499
12 -4 0 -1.3612 -0.6739
12 -4 1 -3.3306 0.2315
12 -4 2 -2.2165 0.1354
12 -4 3 4.6152 -0.1886
12 -4 4 3.0335 -0.0636
12 -4 5 -4.3846 0.1063
12 -4 6 2.6771 0.0523
12 -4 7 -2.7081 -0.0003
12 -4 8 0.5854 -0.0017
12 -4 9 0.5109 0.0401
12 -4 10 1.1856 -0.0836
12 -4 11 -4.4336 -0.1145
12 -4 12 3.9591 0.0325
12 -4 13 0.7141 0.2602
12 -3 0 2.8764 -0.7243
12 -3 1 2.2179 0.1001
12 -3 2 -2.1208 0.1803
12 -3 3 -0.4788 -0.0516
12 -3 4 4.2618 -0.0104
12 -3 5 -7.5286 0.0484
12 -3 6 3.1659 -0.0209
12 -3 7 -0.0390 -0.0843
12 -3 8 1.8362 0.0566
12 -3 9 -1.9016 0.1690
12 -3 10 0.0371 -0.0951
12 -3 11 0.1560 -0.2369
12 -3 12 -0.2373 -0.0654
12 -3 13 1.9143 0.2832
12 -3 14 -0.7682 0.2862
12 -2 0 0.9510 -0.5572
12 -2 1 0.7374 0.1992
12 -2 2 -1.3356 0.0425
12 -2 3 -3.4519 -0.1360
12 -2 4 3.8747 -0.0198
12 -2 5 -1.5114 0.0935
12 -2 6 2.6501 0.0145
12 -2 7 -1.0129 -0.0452
12 -2 8 0.7676 0.0307
12 -2 9 -0.2845 0.0359
12 -2 10 -3.7002 -0.0593
12 -2 11 2.6759 -0.0320
12 -2 12 1.3175 0.0396
12 -2 13 -0.0668 0.0218
12 -2 14 -4.2584 0.0874
12 -1 0 1.3509 -0.5977
12 -1 1 -0.4629 0.1672
12 -1 2 0.2496 0.0614
12 -1 3 -0.8577 -0.0281
12 -1 4 0.8786 0.0329
12 -1 5 0.6308 0.0480
12 -1 6 0.6381 -0.0414
12 -1 7 -0.2454 -0.0770
12 -1 8 -3.7194 0.0232
12 -1 9 1.5168 0.0954
12 -1 10 0.0043 0.0412
12 -1 11 2.3136 -0.1549
12 -1 12 -1.3731 -0.1312
12 -1 13 0.3456 0.1306
12 -1 14 -1.7270 0.2148
12 -1 15 3.3794 -0.0773
12 0 0 4.9726 -0.5658
12 0 1 -3.8839 0.1384
12 0 2 -1.3709 0.1168
12 0 3 1.3942 -0.1297
12 0 4 -1.3789 -0.0280
12 0 5 -1.3534 0.0874
12 0 6 1.8868 -0.0017
12 0 7 2.2707 -0.0728
12 0 8 -1.3673 0.0558
12 0 9 -0.1905 0.0527
12 0 10 -2.2792 -0.0721
12 0 11 2.5824 -0.0509
12 0 12 0.1406 0.0636
12 0 13 -0.8524 0.0935
12 0 14 -1.5416 -0.0268
12 0 15 2.3618 -0.1381
12 1 0 4.3508 -0.6497
12 1 1 -4.0547 0.0463
12 1 2 -0.1244 0.1535
12 1 3 0.2539 -0.0058
12 1 4 2.0567 0.0224
12 1 5 -2.6833 0.0378
12 1 6 3.3854 -0.0270
12 1 7 -0.3901 -0.0736
12 1 8 -0.8280 0.0097
12 1 9 -1.1336 0.1228
12 1 10 -1.9998 0.0217
12 1 11 2.5014 -0.1629
12 1 12 1.6381 -0.1321
12 1 13 0.8891 0.1491
12 1 14 -3.6244 0.2172
12 1 15 -1.2847 -0.1741
12 2 0 2.9234 -0.4296
12 2 1 -1.0027 0.2271
12 2 2 3.9924 0.0435
12 2 3 -3.8148 -0.0993
12 2 4 0.6946 -0.0074
12 2 5 -3.3784 0.0713
12 2 6 3.2151 -0.0385
12 2 7 -0.8746 -0.0722
12 2 8 0.7797 0.0669
12 2 9 2.1640 0.0708
12 2 10 -2.3072 -0.1060
12 2 11 -2.0294 -0.0652
12 2 12 -0.5806 0.0975
12 2 13 4.5520 0.0762
12 2 14 -1.2077 0.0248
12 2 15 -1.3156 -0.1594
12 3 0 -2.2516 -0.6267
12 3 1 0.0232 0.0620
12 3 2 3.6641 0.0961
12 3 3 -5.5501 -0.0248
12 3 4 0.4802 -0.0201
12 3 5 2.1763 0.0487
12 3 6 0.1603 -0.0232
12 3 7 0.9392 -0.0788
12 3 8 -3.5424 0.0296
12 3 9 0.8873 0.1351
12 3 10 2.8552 0.0964
12 3 11 0.7404 -0.1859
12 3 12 -4.5772 -0.2075
12 3 13 2.4937 0.1652
12 3 14 0.1647 0.1648
12 3 15 -1.2708 -0.0817
12 4 0 -7.6308 -0.5445
12 4 1 3.9967 0.0750
12 4 2 4.2852 0.0965
12 4 3 0.0136 0.0477
12 4 4 -2.4710 0.0582
12 4 5 2.1707 -0.0307
12 4 6 -4.0044 -0.0514
12 4 7 3.3786 -0.0004
12 4 8 -1.9721 0.0337
12 4 9 -1.3063 -0.0157
12 4 10 1.8338 -0.0411
12 4 11 2.6868 -0.0409
12 4 12 -2.6546 0.0443
12 4 13 -0.5197 0.1212
12 4 14 0.3762 -0.1087
12 5 0 -5.1425 -0.1527
12 5 1 3.3870 0.0484
12 5 2 -0.8463 -0.0048
12 5 3 3.9928 -0.0530
12 5 4 -5.5129 -0.0179
12 5 5 0.7850 0.0379
12 5 6 0.7017 -0.0682
12 5 7 2.3630 -0.0570
12 5 8 -0.7399 0.0869
12 5 9 -2.5468 0.1306
12 5 10 0.3018 -0.0411
12 5 11 1.5010 -0.1261
12 5 12 1.0635 -0.0446
12 5 13 -1.2373 0.0727
12 5 14 0.5274 0.2127
12 6 0 -3.1001 -0.1866
12 6 1 0.3294 0.0088
12 6 2 -1.6266 -0.0327
12 6 3 6.7714 -0.0152
12 6 4 -5.2808 0.0183
12 6 5 -0.7853 0.0605
12 6 6 3.4720 -0.0525
12 6 7 -0.5120 -0.0413
12 6 8 -0.2331 0.0363
12 6 9 -2.8778 0.1111
12 6 10 0.5891 -0.0209
12 6 11 1.0330 -0.0447
12 6 12 2.9011 0.0519
12 6 13 -3.1342 -0.3228
12 7 1 -0.1590 0.0285
12 7 2 -4.4207 0.0841
12 7 3 3.7457 0.0342
12 7 4 0.7680 0.1045
12 7 5 1.2538 0.0079
12 7 6 -3.4723 -0.0991
12 7 7 -0.3875 -0.1139
12 7 8 2.9490 0.0034
12 7 9 -0.8475 0.0257
12 7 10 0.3136 -0.0281
12 7 11 -1.7739 0.0495
12 7 12 2.0398 0.3714
12 8 2 -0.0964 0.0858
12 8 3 -0.6725 -0.0787
12 8 4 -2.9303 0.1380
12 8 5 6.7615 -0.1342
12 8 6 -4.1070 -0.0560
12 8 7 -0.3692 0.0307
12 8 8 0.8514 0.0609
12 8 9 -1.2772 -0.0097
12 8 10 1.3761 0.1225
12 8 11 0.3933 -0.1507
12 9 4 -1.8467 0.3852
12 9 5 6.0548 0.1981
12 9 6 -5.2878 -0.0112
12 9 7 1.6280 -0.1305
12 9 8 2.0327 -0.1836
12 9 9 -3.3155 -0.1782
13 -6 3 -4.8566 0.1641
13 -6 4 -0.5836 0.0386
13 -6 5 1.1916 -0.0818
13 -6 6 -0.2625 0.1979
13 -6 7 1.1254 -0.1738
13 -6 8 -0.1485 -0.2020
13 -6 9 -1.1100 -0.0666
13 -5 2 1.5696 0.1561
13 -5 3 -4.4096 0.0957
13 -5 4 1.0884 -0.1593
13 -5 5 0.2517 -0.0742
13 -5 6 -0.2701 0.0942
13 -5 7 2.5855 0.0258
13 -5 8 -1.4363 -0.0200
13 -5 9 -3.1294 -0.0914
13 -5 10 4.2565 0.0684
13 -5 11 1.2062 -0.0616
13 -4 1 2.1364 0.0798
13 -4 2 -1.7837 0.2622
13 -4 3 -1.3982 -0.1024
13 -4 4 1.7226 -0.2364
13 -4 5 0.3892 0.0922
13 -4 6 0.7946 0.1091
13 -4 7 0.9294 0.0264
13 -4 8 -3.5669 -0.0389
13 -4 9 -1.0236 -0.1100
13 -4 10 0.7819 -0.0456
13 -4 11 4.7008 0.0327
13 -4 12 -1.6033 0.3967
13 -3 0 1.2141 -0.3401
13 -3 1 0.8103 0.0548
13 -3 2 -0.2645 0.2669
13 -3 3 2.8645 0.0123
13 -3 4 -1.1167 -0.0764
13 -3 5 -3.8816 0.0069
13 -3 6 -1.6370 -0.0213
13 -3 7 4.5677 -0.0563
13 -3 8 -0.1783 0.0087
13 -3 9 0.5842 0.0917
13 -3 10 -2.6686 -0.0323
13 -3 11 1.2996 -0.1766
13 -3 12 1.7127 0.1590
13 -2 0 3.1887 -0.6037
13 -2 1 -2.3286 0.3118
13 -2 2 -4.3029 0.3697
13 -2 3 4.3602 -0.1426
13 -2 4 0.9204 -0.2441
13 -2 5 -1.5556 -0.0254
13 -2 6 -1.7716 0.1042
13 -2 7 4.0306 0.0708
13 -2 8 -2.1316 0.0615
13 -2 9 0.8234 0.0191
13 -2 10 1.2434 -0.1943
13 -2 11 -5.1063 -0.1652
13 -2 12 2.8492 0.2020
13 -2 13 2.3368 0.4696
13 -1 0 0.8075 -0.8159
13 -1 1 2.3120 0.2119
13 -1 2 -3.7821 0.3295
13 -1 3 1.3829 -0.0070
13 -1 4 2.4950 -0.1131
13 -1 5 0.9613 -0.0319
13 -1 6 -3.3064 0.0049
13 -1 7 0.3169 -0.0018
13 -1 8 -2.4009 -0.0089
13 -1 9 -0.3938 0.0613
13 -1 10 7.0814 0.0321
13 -1 11 -3.9251 -0.1042
13 -1 12 -1.7468 -0.1560
13 -1 13 0.9765 0.3954
13 0 0 -2.6023 -0.6231
13 0 1 2.0184 0.2256
13 0 2 -0.4863 0.2359
13 0 3 -1.2337 -0.1049
13 0 4 0.4735 -0.1873
13 0 5 0.6741 -0.0143
13 0 6 -0.2508 0.0540
13 0 7 -2.4913 0.0382
13 0 8 2.7378 0.0979
13 0 9 0.7572 0.0613
13 0 10 1.6472 -0.1744
13 0 11 -4.1583 -0.1925
13 0 12 1.1100 0.1468
13 0 13 -0.4466 0.5076
13 1 0 -1.8076 -0.6305
13 1 1 -2.1878 0.1321
13 1 2 4.7015 0.2134
13 1 3 -2.4796 -0.0041
13 1 4 -1.1436 -0.0469
13 1 5 0.5426 0.0018
13 1 6 6.1065 -0.0157
13 1 7 -5.6262 -0.0330
13 1 8 -0.3718 0.0357
13 1 9 -0.8638 0.0642
13 1 10 3.2088 -0.0040
13 1 11 -2.4494 -0.1566
13 1 12 1.7052 -0.0459
13 1 13 -0.9669 0.3425
13 1 14 0.3113 -0.2633
13 2 0 2.3834 -0.2572
13 2 1 -2.8544 0.3507
13 2 2 5.3682 0.1965
13 2 3 -3.7411 -0.1876
13 2 4 0.5174 -0.1972
13 2 5 -2.9324 0.0135
13 2 6 5.1326 0.0723
13 2 7 -4.2350 0.0128
13 2 8 0.6566 0.0642
13 2 9 0.3298 0.0740
13 2 10 4.5017 -0.1772
13 2 11 -4.2543 -0.2143
13 2 12 -0.4340 0.2315
13 2 13 0.1676 0.5099
13 3 0 0.8128 -0.1591
13 3 1 0.6197 -0.0761
13 3 2 1.7031 0.0895
13 3 3 -7.0540 0.0049
13 3 4 3.6780 -0.0748
13 3 5 -0.2239 0.0033
13 3 6 3.3803 0.0470
13 3 7 -0.8046 0.0182
13 3 8 -1.5089 0.0240
13 3 9 -3.4827 0.0428
13 3 10 2.4335 -0.0550
13 3 11 3.0030 -0.1086
13 3 12 0.5186 -0.0485
13 3 13 -3.4050 0.3736
13 4 1 4.4984 0.0050
13 4 2 0.8694 0.1945
13 4 3 -3.9034 0.0330
13 4 4 2.4864 -0.0255
13 4 5 -0.0480 -0.1170
13 4 6 0.5263 -0.0902
13 4 7 -0.7277 0.1062
13 4 8 -0.7704 0.2033
13 4 9 1.2757 -0.0240
13 4 10 -2.3670 -0.2660
13 4 11 1.0777 -0.1558
13 4 12 1.9570 0.1167
13 4 13 -1.0892 0.5579
13 5 1 5.9629 -0.0050
13 5 2 -2.5571 0.0895
13 5 3 -1.5489 -0.0670
13 5 4 -1.7322 -0.1223
13 5 5 -0.8373 -0.0626
13 5 6 2.8923 0.0133
13 5 7 -0.3892 0.0132
13 5 8 0.7726 0.1117
13 5 9 2.4613 0.0851
13 5 10 -3.8229 -0.0145
13 5 11 -1.6509 -0.0871
13 5 12 2.7081 -0.1985
13 6 3 3.4327 0.0591
13 6 4 -2.2127 0.0468
13 6 5 -1.7029 -0.0090
13 6 6 4.0459 -0.0742
13 6 7 -3.6727 0.0221
13 6 8 1.5043 0.0927
13 6 9 0.8742 -0.0365
13 6 10 -0.4359 -0.0465
13 6 11 -1.7261 0.0701
13 7 4 0.1420 -0.0093
13 7 5 0.4232 -0.0364
13 7 6 0.7191 -0.0749
13 7 7 -5.7316 0.0011
13 7 8 3.3614 0.0283
13 7 9 1.5810 0.0383
13 7 10 2.2807 -0.0171
14 -4 5 1.2927 0.1174
14 -4 6 -0.4652 0.1629
14 -4 7 5.0509 -0.0041
14 -4 8 -9.2064 -0.1960
14 -3 4 -4.6244 0.1702
14 -3 5 2.5681 0.1643
14 -3 6 -4.0427 0.0500
14 -3 7 5.5102 -0.0830
14 -3 8 -3.2536 -0.1717
14 -3 9 0.6420 -0.0628
14 -3 10 2.8779 0.0560
14 -2 3 1.3422 -0.2664
14 -2 4 -4.8818 -0.1010
14 -2 5 3.2999 0.0325
14 -2 6 0.7501 0.1514
14 -2 7 2.1481 0.0436
14 -2 8 0.3480 -0.0270
14 -2 9 -5.2075 -0.0266
14 -2 10 1.2857 -0.1525
14 -2 11 0.6381 0.0119
14 -1 3 -0.5096 -0.0114
14 -1 4 -3.8061 -0.0101
14 -1 5 0.8667 0.1371
14 -1 6 3.4143 0.1095
14 -1 7 -2.3212 -0.0865
14 -1 8 1.3584 -0.1522
14 -1 9 -1.7344 -0.0847
14 -1 10 -3.9052 0.0756
14 -1 11 6.1119 0.1258
14 0 3 0.9636 -0.0063
14 0 4 -2.1510 -0.1109
14 0 5 -0.1427 0.0682
14 0 6 0.1853 0.1415
14 0 7 -1.1014 0.0023
14 0 8 1.2076 -0.0556
14 0 9 6.9172 -0.0171
14 0 10 -7.6897 0.0002
14 0 11 0.2703 -0.1316
14 1 3 3.1612 0.0844
14 1 4 -3.4086 0.0931
14 1 5 2.4418 0.1110
14 1 6 -2.1923 0.0419
14 1 7 2.1864 -0.0612
14 1 8 -1.7749 -0.1277
14 1 9 0.3664 -0.0898
14 1 10 -1.3240 0.0376
14 1 11 1.8853 0.1864
14 2 3 1.9766 -0.0580
14 2 4 -1.4536 -0.1050
14 2 5 2.9874 0.0307
14 2 6 -3.2685 0.0710
14 2 7 -1.9349 0.0315
14 2 8 3.4830 -0.0462
14 2 9 -2.5863 0.0329
14 2 10 3.8066 -0.1081
14 2 11 -0.4162 0.0238
14 3 3 -2.0098 -0.0018
14 3 4 2.9621 0.0843
14 3 5 0.2960 0.1868
14 3 6 1.5990 0.1313
14 3 7 -5.1395 -0.1135
14 3 8 6.2533 -0.1975
14 3 9 -4.3538 -0.0188
14 3 10 -1.3780 0.1033
14 3 11 1.6058 0.1419
14 4 4 6.4258 -0.0639
14 4 5 -3.9159 0.0332
14 4 6 1.7822 0.1568
14 4 7 -4.6197 -0.0982
14 4 8 2.7898 -0.0680
14 4 9 1.9946 -0.1231
14 4 10 -1.8241 0.1856
14 5 6 -0.3919 0.4347
14 5 7 -0.8198 0.0612
14 5 8 0.3014 -0.2172
14 5 9 2.9896 -0.3852
0 0 0 0.0 0.0
;
_shelx_fab_checksum              574
_olex2_submission_special_instructions 'No special instructions were received'
loop_
_space_group_symop_operation_xyz
'x, y, z'
'-x, -y, -z'
loop_
_atom_site_label
_atom_site_type_symbol
_atom_site_fract_x
_atom_site_fract_y
_atom_site_fract_z
_atom_site_U_iso_or_equiv
_atom_site_adp_type
_atom_site_occupancy
_atom_site_site_symmetry_order
_atom_site_calc_flag
_atom_site_refinement_flags_posn
_atom_site_refinement_flags_adp
_atom_site_refinement_flags_occupancy
_atom_site_disorder_assembly
_atom_site_disorder_group
Co1 Co 1.47873(10) 0.48981(10) 0.09715(9) 0.0283(4) Uani 1 1 d . . . . .
Co2 Co 0.93205(10) 0.00760(10) 0.10184(9) 0.0309(4) Uani 1 1 d . . . . .
O2 O 1.3476(5) 0.5423(5) -0.0306(5) 0.0346(12) Uani 1 1 d . . . . .
O1 O 1.3129(5) 0.5308(5) 0.1269(5) 0.0389(9) Uani 1 1 d . . . . .
O8 O 1.1836(5) 0.0358(5) -0.0505(5) 0.0390(14) Uani 1 1 d . . . . .
N1 N 0.5101(6) 0.4665(5) 0.7787(5) 0.0264(12) Uani 1 1 d . . . . .
O6 O 1.4387(5) 0.3444(5) 0.1270(5) 0.0402(8) Uani 1 1 d . . . . .
O7 O 1.0773(5) 0.0527(5) 0.1086(5) 0.0400(12) Uani 1 1 d . . . . .
O3 O 1.0419(6) 0.8684(5) 0.0061(5) 0.0449(13) Uani 1 1 d . . . . .
O4 O 0.9360(5) 0.8683(5) 0.1642(5) 0.0421(12) Uani 1 1 d . . . . .
N4 N 0.8045(6) 0.0907(6) 0.2078(5) 0.0322(8) Uani 1 1 d . . . . .
O5 O 1.4738(6) 0.3667(5) -0.0305(5) 0.0444(13) Uani 1 1 d . . . . .
N3 N 0.5488(6) 0.3060(6) 0.4751(5) 0.0310(13) Uani 1 1 d . . . . .
C29 C 0.4777(8) 0.3957(7) 0.6220(6) 0.0301(12) Uani 1 1 d . . . . .
C24 C 0.5314(8) 0.2707(7) 0.4008(6) 0.0291(10) Uani 1 1 d . . . . .
C1 C 1.2822(8) 0.5493(8) 0.0579(8) 0.0383(7) Uani 1 1 d . . . . .
C18 C 1.1729(8) 0.0569(8) 0.0336(8) 0.0386(7) Uani 1 1 d . . . . .
C25 C 0.4311(8) 0.2866(7) 0.3873(7) 0.0361(18) Uani 1 1 d . . . . .
H25 H 0.424982 0.262160 0.332165 0.043 Uiso 1 1 calc R U . . .
C3 C 1.4130(8) 0.2068(8) 0.0491(8) 0.0388(6) Uani 0.6 1 d . . P A 1
C28 C 0.4582(8) 0.3577(7) 0.5389(7) 0.0327(14) Uani 1 1 d . . . . .
C27 C 0.3558(8) 0.3741(7) 0.5304(7) 0.0312(16) Uani 1 1 d . . . . .
H27 H 0.295788 0.410496 0.577556 0.037 Uiso 1 1 calc R U . . .
C13A C 1.015(2) 0.713(2) 0.0959(19) 0.0397(7) Uani 0.7 1 d . . P B 1
C10 C 1.4426(8) 0.3126(8) 0.0491(8) 0.0383(7) Uani 1 1 d . . . . .
C21 C 0.6283(8) 0.2091(7) 0.3344(7) 0.0300(8) Uani 1 1 d . . . . .
C26 C 0.3380(9) 0.3384(8) 0.4538(7) 0.0449(14) Uani 1 1 d . . . . .
C6 C 1.2830(8) 0.0840(8) 0.0417(8) 0.0388(6) Uani 0.6 1 d . . P A 1
C31 C 0.4290(9) 0.5025(8) 0.7519(7) 0.0426(16) Uani 1 1 d . . . . .
H31 H 0.382099 0.555138 0.786157 0.051 Uiso 1 1 calc R U . . .
C2 C 0.9977(8) 0.8244(8) 0.0878(8) 0.0401(8) Uani 1 1 d . . . . .
C11A C 1.1587(17) 0.5797(17) 0.0764(12) 0.0394(7) Uani 0.7 1 d . . P B 1
C30 C 0.4082(9) 0.4678(8) 0.6767(8) 0.0486(17) Uani 1 1 d . . . . .
H30 H 0.345624 0.494039 0.662973 0.058 Uiso 1 1 calc R U . . .
C32 C 0.5773(10) 0.3947(9) 0.7264(8) 0.0591(19) Uani 1 1 d . . . . .
H32 H 0.637862 0.368348 0.742888 0.071 Uiso 1 1 calc R U . . .
O9 O -0.0765(7) 0.3961(10) 0.4040(6) 0.103(4) Uani 1 1 d . . . . .
C34 C 0.2279(9) 0.3543(9) 0.4426(8) 0.0465(15) Uani 1 1 d . . . . .
C12A C 1.1277(12) 0.6861(11) 0.1174(12) 0.0398(7) Uani 0.7 1 d . . P B 1
C39 C 0.2278(9) 0.3736(10) 0.3501(8) 0.057(3) Uani 1 1 d . . . . .
H39 H 0.299672 0.375954 0.293461 0.068 Uiso 1 1 calc R U . . .
C33 C 0.5629(10) 0.3577(9) 0.6505(8) 0.0532(17) Uani 1 1 d . . . . .
H33 H 0.611489 0.305521 0.616957 0.064 Uiso 1 1 calc R U . . .
C19 C 0.8036(14) 0.1195(12) 0.2902(12) 0.031(2) Uani 0.6 1 d . . P C 1
H19 H 0.867622 0.099918 0.304950 0.038 Uiso 0.6 1 calc R U P C 1
C20 C 0.7203(14) 0.1739(12) 0.3548(12) 0.030(2) Uani 0.6 1 d . . P C 1
H20 H 0.724570 0.188078 0.414071 0.036 Uiso 0.6 1 calc R U P C 1
C35 C 0.1234(10) 0.3570(13) 0.5221(9) 0.083(4) Uani 1 1 d . . . . .
H35 H 0.121361 0.350389 0.586059 0.099 Uiso 1 1 calc R U . . .
C122 C 1.2255(13) 0.7528(12) 0.0666(12) 0.0405(9) Uani 0.7 1 d . . P B 1
H12A H 1.206137 0.817304 0.094353 0.061 Uiso 0.7 1 calc R U P B 1
H12B H 1.242137 0.760243 -0.003283 0.061 Uiso 0.7 1 calc R U P B 1
H12C H 1.294193 0.725845 0.074461 0.061 Uiso 0.7 1 calc R U P B 1
C37 C 0.0214(10) 0.3799(13) 0.4209(9) 0.080(4) Uani 1 1 d . . . . .
C23 C 0.7204(13) 0.1305(12) 0.1841(12) 0.0294(19) Uani 0.6 1 d . . P C 1
H23 H 0.721306 0.116906 0.122849 0.035 Uiso 0.6 1 calc R U P C 1
C36 C 0.0181(11) 0.3694(13) 0.5109(9) 0.089(5) Uani 1 1 d . . . . .
H36 H -0.054333 0.370284 0.566862 0.107 Uiso 1 1 calc R U . . .
C22 C 0.6325(13) 0.1902(13) 0.2435(11) 0.032(2) Uani 0.6 1 d . . P C 1
H22 H 0.576083 0.217913 0.222511 0.038 Uiso 0.6 1 calc R U P C 1
C38 C 0.1270(9) 0.3888(11) 0.3398(9) 0.064(3) Uani 1 1 d . . . . .
H38 H 0.128873 0.405632 0.276675 0.077 Uiso 1 1 calc R U . . .
C14A C 1.0375(12) 0.6620(11) 0.0039(11) 0.0407(9) Uani 0.7 1 d . . P B 1
H14A H 0.964535 0.631177 0.010409 0.049 Uiso 0.7 1 calc R U P B 1
H14B H 1.062812 0.710943 -0.053187 0.049 Uiso 0.7 1 calc R U P B 1
C4 C 1.4784(14) 0.1631(13) -0.0530(13) 0.0391(8) Uani 0.6 1 d . . P A 1
H4A H 1.495153 0.215110 -0.106768 0.047 Uiso 0.6 1 calc R U P A 1
H4B H 1.552742 0.131927 -0.058643 0.047 Uiso 0.6 1 calc R U P A 1
C5 C 1.3950(13) 0.0866(14) -0.0562(13) 0.0390(7) Uani 0.6 1 d . . P A 1
H5A H 1.432614 0.020840 -0.065028 0.047 Uiso 0.6 1 calc R U P A 1
H5B H 1.374492 0.103925 -0.112113 0.047 Uiso 0.6 1 calc R U P A 1
C15A C 1.1293(13) 0.5848(13) -0.0126(12) 0.0399(8) Uani 0.7 1 d . . P B 1
H15A H 1.199337 0.602414 -0.073371 0.048 Uiso 0.7 1 calc R U P B 1
H15B H 1.100091 0.520216 -0.018975 0.048 Uiso 0.7 1 calc R U P B 1
C40 C -0.1761(11) 0.3912(17) 0.4773(10) 0.125(8) Uani 1 1 d . . . . .
H40A H -0.237265 0.386206 0.453863 0.187 Uiso 1 1 calc R U . . .
H40B H -0.188740 0.450636 0.513327 0.187 Uiso 1 1 calc R U . . .
H40C H -0.178742 0.332937 0.520747 0.187 Uiso 1 1 calc R U . . .
C121 C 1.0949(12) 0.6796(12) 0.2260(11) 0.0410(10) Uani 0.7 1 d . . P B 1
H12D H 1.162319 0.657329 0.238413 0.062 Uiso 0.7 1 calc R U P B 1
H12E H 1.030773 0.632619 0.259090 0.062 Uiso 0.7 1 calc R U P B 1
H12F H 1.070174 0.744751 0.251325 0.062 Uiso 0.7 1 calc R U P B 1
C7 C 1.2820(14) 0.1890(13) 0.0750(14) 0.0390(6) Uani 0.6 1 d . . P A 1
C16 C 1.207(2) 0.2621(19) 0.072(2) 0.0388(8) Uani 0.4 1 d . . P A 2
H16A H 1.190573 0.255670 0.142093 0.058 Uiso 0.4 1 calc R U P A 2
H16B H 1.138170 0.242329 0.063661 0.058 Uiso 0.4 1 calc R U P A 2
H16C H 1.226386 0.330787 0.046974 0.058 Uiso 0.4 1 calc R U P A 2
C17 C 1.2052(13) 0.2078(13) 0.1749(12) 0.0398(8) Uani 0.6 1 d . . P A 1
H17A H 1.124268 0.208995 0.182442 0.060 Uiso 0.6 1 calc R U P A 1
H17B H 1.224601 0.271564 0.190420 0.060 Uiso 0.6 1 calc R U P A 1
H17C H 1.214491 0.155491 0.219683 0.060 Uiso 0.6 1 calc R U P A 1
C1B C 1.018(6) 0.715(5) 0.110(4) 0.0395(7) Uani 0.3 1 d . . P B 2
C3B C 1.155(4) 0.580(4) 0.102(3) 0.0390(8) Uani 0.3 1 d . . P B 2
C2B C 1.147(3) 0.681(3) 0.046(3) 0.0392(8) Uani 0.3 1 d . . P B 2
C8 C 1.155(3) 0.652(3) -0.054(3) 0.0392(10) Uani 0.3 1 d . . P B 2
H8A H 1.077299 0.636625 -0.048513 0.059 Uiso 0.3 1 calc R U P B 2
H8B H 1.205232 0.593369 -0.073736 0.059 Uiso 0.3 1 calc R U P B 2
H8C H 1.188720 0.706395 -0.103773 0.059 Uiso 0.3 1 calc R U P B 2
C5B C 1.017(3) 0.697(3) 0.227(3) 0.0398(9) Uani 0.3 1 d . . P B 2
H5BA H 1.051844 0.753695 0.243373 0.048 Uiso 0.3 1 calc R U P B 2
H5BB H 0.937348 0.684893 0.278943 0.048 Uiso 0.3 1 calc R U P B 2
C4B C 1.092(3) 0.608(3) 0.212(3) 0.0392(10) Uani 0.3 1 d . . P B 2
H4BA H 1.042591 0.551108 0.251608 0.047 Uiso 0.3 1 calc R U P B 2
H4BB H 1.151223 0.617645 0.237081 0.047 Uiso 0.3 1 calc R U P B 2
C13 C 1.242(3) 0.754(3) 0.013(3) 0.0391(10) Uani 0.3 1 d . . P B 2
H13A H 1.276130 0.763689 -0.058581 0.059 Uiso 0.3 1 calc R U P B 2
H13B H 1.302403 0.729718 0.034379 0.059 Uiso 0.3 1 calc R U P B 2
H13C H 1.211460 0.816845 0.041608 0.059 Uiso 0.3 1 calc R U P B 2
C1A3 C 0.910(2) 0.668(2) 0.188(2) 0.0403(10) Uani 0.35 1 d . . P B 1
H1AA H 0.881233 0.644492 0.144251 0.060 Uiso 0.35 1 d R U P B 1
H1AB H 0.854144 0.711242 0.231631 0.060 Uiso 0.35 1 d R U P B 1
H1AC H 0.924363 0.612952 0.225931 0.060 Uiso 0.35 1 d R U P B 1
C1A1 C 1.078(2) 0.508(2) 0.127(2) 0.0399(8) Uani 0.35 1 d . . P B 1
H1AD H 1.063138 0.504853 0.196245 0.060 Uiso 0.35 1 calc R U P B 1
H1AE H 1.107281 0.444332 0.100063 0.060 Uiso 0.35 1 calc R U P B 1
H1AF H 1.005165 0.523995 0.120143 0.060 Uiso 0.35 1 calc R U P B 1
C21B C 1.4130(8) 0.2068(8) 0.0491(8) 0.0388(6) Uani 0.4 1 d . . P A 2
C23B C 1.2830(8) 0.0840(8) 0.0417(8) 0.0388(6) Uani 0.4 1 d . . P A 2
C25B C 1.366(2) 0.1508(19) 0.1469(19) 0.0386(7) Uani 0.4 1 d . . P A 2
H25A H 1.327163 0.196666 0.199214 0.046 Uiso 0.4 1 calc R U P A 2
H25B H 1.429664 0.116834 0.158364 0.046 Uiso 0.4 1 calc R U P A 2
C24B C 1.274(2) 0.072(2) 0.1491(19) 0.0387(7) Uani 0.4 1 d . . P A 2
H24A H 1.295168 0.004528 0.165067 0.046 Uiso 0.4 1 calc R U P A 2
H24B H 1.194242 0.087411 0.197296 0.046 Uiso 0.4 1 calc R U P A 2
C22B C 1.309(2) 0.196(2) 0.017(2) 0.0387(6) Uani 0.4 1 d . . P A 2
C16A C 1.350(2) 0.2223(19) -0.0978(18) 0.0393(8) Uani 0.4 1 d . . P A 2
H16D H 1.369012 0.292660 -0.112853 0.059 Uiso 0.4 1 calc R U P A 2
H16E H 1.287121 0.207256 -0.116553 0.059 Uiso 0.4 1 calc R U P A 2
H16F H 1.419059 0.183197 -0.134429 0.059 Uiso 0.4 1 calc R U P A 2
C17A C 1.2460(14) 0.2635(13) 0.0110(14) 0.0394(8) Uani 0.6 1 d . . P A 1
H17D H 1.298697 0.257899 -0.058109 0.059 Uiso 0.6 1 calc R U P A 1
H17E H 1.250311 0.330416 0.029234 0.059 Uiso 0.6 1 calc R U P A 1
H17F H 1.166016 0.249814 0.020981 0.059 Uiso 0.6 1 calc R U P A 1
C20A C 0.743(2) 0.2128(19) 0.3223(18) 0.032(2) Uani 0.4 1 d . . P C 2
H20A H 0.761173 0.254069 0.361867 0.038 Uiso 0.4 1 calc R U P C 2
C23A C 0.690(2) 0.075(2) 0.227(2) 0.046(3) Uani 0.4 1 d . . P C 2
H23A H 0.672252 0.025134 0.194361 0.055 Uiso 0.4 1 calc R U P C 2
C22A C 0.601(2) 0.128(2) 0.291(2) 0.040(2) Uani 0.4 1 d . . P C 2
H22A H 0.522011 0.112413 0.306188 0.048 Uiso 0.4 1 calc R U P C 2
C19A C 0.833(2) 0.159(2) 0.254(2) 0.042(2) Uani 0.4 1 d . . P C 2
H19A H 0.911874 0.169807 0.241876 0.051 Uiso 0.4 1 calc R U P C 2
C41 C 1.456(3) 0.145(2) 0.114(3) 0.0388(8) Uani 0.3 1 d . . P A 1
H41A H 1.533264 0.168089 0.103287 0.058 Uiso 0.3 1 calc R U P A 1
H41B H 1.461050 0.076019 0.097873 0.058 Uiso 0.3 1 calc R U P A 1
H41C H 1.401848 0.150562 0.182529 0.058 Uiso 0.3 1 calc R U P A 1
C44 C 1.294(3) 0.016(3) 0.119(3) 0.0391(8) Uani 0.3 1 d . . P A 1
H44A H 1.336702 -0.043331 0.089193 0.059 Uiso 0.3 1 calc R U P A 1
H44B H 1.216015 -0.003152 0.168010 0.059 Uiso 0.3 1 calc R U P A 1
H44C H 1.336002 0.048440 0.149916 0.059 Uiso 0.3 1 calc R U P A 1
C46 C 1.519(4) 0.151(4) -0.024(4) 0.0387(8) Uani 0.2 1 d . . P A 2
H46A H 1.560495 0.116174 0.011811 0.058 Uiso 0.2 1 calc R U P A 2
H46B H 1.572047 0.198066 -0.073993 0.058 Uiso 0.2 1 calc R U P A 2
H46C H 1.492126 0.103029 -0.055132 0.058 Uiso 0.2 1 calc R U P A 2
C45 C 1.379(4) 0.019(4) -0.015(4) 0.0387(8) Uani 0.2 1 d . . P A 2
H45A H 1.449020 0.035443 -0.006979 0.058 Uiso 0.2 1 calc R U P A 2
H45B H 1.393839 0.028165 -0.084487 0.058 Uiso 0.2 1 calc R U P A 2
H45C H 1.357260 -0.049736 0.008608 0.058 Uiso 0.2 1 calc R U P A 2
C13B C 1.079(6) 0.540(5) 0.051(6) 0.0391(9) Uani 0.15 1 d . . P B 2
H13D H 1.049264 0.476149 0.082305 0.059 Uiso 0.15 1 d R U P B 2
H13E H 1.015094 0.583909 0.059375 0.059 Uiso 0.15 1 d R U P B 2
H13F H 1.124984 0.533499 -0.017885 0.059 Uiso 0.15 1 d R U P B 2
C11B C 0.920(6) 0.656(6) 0.139(5) 0.0395(9) Uani 0.15 1 d . . P B 2
H11A H 0.942552 0.591815 0.115190 0.059 Uiso 0.15 1 d R U P B 2
H11B H 0.868222 0.685535 0.111900 0.059 Uiso 0.15 1 d R U P B 2
H11C H 0.880062 0.650655 0.209060 0.059 Uiso 0.15 1 d R U P B 2
loop_
_atom_site_aniso_label
_atom_site_aniso_U_11
_atom_site_aniso_U_22
_atom_site_aniso_U_33
_atom_site_aniso_U_23
_atom_site_aniso_U_13
_atom_site_aniso_U_12
Co1 0.0291(7) 0.0410(8) 0.0206(7) -0.0113(5) -0.0143(5) -0.0049(5)
Co2 0.0175(6) 0.0414(8) 0.0384(7) -0.0193(6) -0.0139(5) 0.0064(5)
O2 0.0301(13) 0.034(3) 0.0453(11) -0.0112(12) -0.0200(8) 0.0013(14)
O1 0.0272(11) 0.049(2) 0.0449(11) -0.0083(13) -0.0188(8) -0.0025(11)
O8 0.0268(13) 0.046(4) 0.0532(12) -0.0165(14) -0.0232(9) 0.0021(15)
N1 0.024(2) 0.030(3) 0.0225(17) -0.0068(18) -0.0066(16) -0.0003(18)
O6 0.0315(19) 0.0460(13) 0.0505(13) -0.0133(9) -0.0224(11) -0.0029(8)
O7 0.0264(7) 0.049(3) 0.0530(12) -0.0159(14) -0.0229(8) 0.0017(9)
O3 0.034(3) 0.0488(16) 0.0511(13) -0.0106(11) -0.0167(12) 0.0075(13)
O4 0.032(3) 0.0460(14) 0.0508(13) -0.0130(11) -0.0180(13) 0.0028(15)
N4 0.0285(8) 0.0397(17) 0.0342(12) -0.0183(13) -0.0165(9) 0.0050(10)
O5 0.042(3) 0.0478(14) 0.0517(13) -0.0128(11) -0.0259(13) -0.0042(14)
N3 0.0291(11) 0.038(3) 0.0285(15) -0.0139(19) -0.0128(11) 0.0043(15)
C29 0.0269(16) 0.037(2) 0.0272(14) -0.0128(16) -0.0106(13) 0.0037(16)
C24 0.0292(9) 0.033(2) 0.0268(13) -0.0108(16) -0.0121(9) 0.0022(13)
C1 0.0297(10) 0.0455(16) 0.0455(11) -0.0124(11) -0.0200(7) 0.0029(9)
C18 0.0265(8) 0.0449(15) 0.0529(12) -0.0160(10) -0.0229(7) 0.0018(8)
C25 0.0324(11) 0.048(4) 0.0335(18) -0.021(3) -0.0168(13) 0.0094(19)
C3 0.0271(10) 0.0457(12) 0.0517(11) -0.0146(8) -0.0226(8) 0.0003(7)
C28 0.0301(11) 0.041(3) 0.0297(14) -0.015(2) -0.0133(10) 0.0059(15)
C27 0.0296(11) 0.037(4) 0.0290(16) -0.014(2) -0.0128(11) 0.0048(17)
C13A 0.0298(11) 0.0459(13) 0.0494(12) -0.0130(10) -0.0211(9) 0.0032(9)
C10 0.0264(13) 0.0456(12) 0.0506(12) -0.0143(8) -0.0218(9) 0.0003(7)
C21 0.0287(8) 0.0355(18) 0.0288(11) -0.0132(13) -0.0133(8) 0.0028(10)
C26 0.0358(9) 0.067(3) 0.0412(13) -0.033(2) -0.0213(9) 0.0172(15)
C6 0.0268(8) 0.0453(12) 0.0529(10) -0.0153(9) -0.0232(7) 0.0011(7)
C31 0.044(2) 0.054(3) 0.040(2) -0.028(2) -0.0255(19) 0.022(2)
C2 0.0287(13) 0.0459(13) 0.0499(13) -0.0126(10) -0.0193(10) 0.0032(9)
C11A 0.0298(10) 0.0461(14) 0.0483(12) -0.0130(11) -0.0208(8) 0.0032(9)
C30 0.050(2) 0.064(3) 0.047(2) -0.036(2) -0.032(2) 0.029(2)
C32 0.063(3) 0.078(3) 0.061(2) -0.050(3) -0.046(2) 0.043(3)
O9 0.0394(11) 0.227(11) 0.051(2) -0.022(4) -0.0257(13) 0.028(3)
C34 0.0363(9) 0.070(4) 0.0431(13) -0.0335(19) -0.0224(8) 0.0179(14)
C12A 0.0299(11) 0.0464(14) 0.0492(12) -0.0135(11) -0.0211(9) 0.0035(9)
C39 0.0382(11) 0.098(8) 0.0436(13) -0.033(2) -0.0231(9) 0.023(2)
C33 0.056(2) 0.070(3) 0.053(2) -0.042(2) -0.038(2) 0.034(2)
C19 0.0295(18) 0.036(4) 0.0335(16) -0.017(2) -0.0165(16) 0.004(3)
C20 0.0299(18) 0.033(4) 0.0314(15) -0.014(2) -0.0154(15) 0.003(3)
C35 0.0370(9) 0.175(13) 0.0439(13) -0.032(2) -0.0221(9) 0.0285(19)
C122 0.0295(14) 0.0455(16) 0.052(2) -0.0129(14) -0.0215(12) 0.0040(12)
C37 0.0383(11) 0.163(11) 0.0474(14) -0.026(3) -0.0243(10) 0.023(2)
C23 0.0244(19) 0.037(4) 0.0298(14) -0.014(2) -0.0122(15) 0.001(3)
C36 0.0374(9) 0.190(14) 0.0468(14) -0.026(3) -0.0232(10) 0.0268(19)
C22 0.028(2) 0.041(4) 0.0295(14) -0.016(2) -0.0136(15) 0.005(3)
C38 0.0389(11) 0.117(9) 0.0461(14) -0.031(3) -0.0243(9) 0.024(2)
C14A 0.0312(16) 0.0474(17) 0.0504(14) -0.0141(13) -0.0224(13) 0.0048(13)
C4 0.0270(9) 0.0466(16) 0.0520(11) -0.0153(10) -0.0229(8) 0.0006(9)
C5 0.0267(8) 0.0460(15) 0.0529(11) -0.0155(10) -0.0232(8) 0.0012(8)
C15A 0.0305(13) 0.0468(17) 0.0489(12) -0.0134(12) -0.0216(10) 0.0041(12)
C40 0.0390(11) 0.29(2) 0.052(2) -0.019(5) -0.0255(16) 0.029(3)
C121 0.0315(17) 0.048(2) 0.0493(12) -0.0145(12) -0.0215(10) 0.006(2)
C7 0.0270(9) 0.0453(13) 0.0528(12) -0.0152(9) -0.0227(7) 0.0006(7)
C16 0.0272(11) 0.0450(15) 0.0520(15) -0.0149(16) -0.0224(13) 0.0007(11)
C17 0.0275(14) 0.046(2) 0.0530(12) -0.0157(11) -0.0222(9) -0.0003(12)
C1B 0.0293(11) 0.0459(13) 0.0488(11) -0.0130(11) -0.0201(9) 0.0031(9)
C3B 0.0295(10) 0.0453(15) 0.0478(11) -0.0131(11) -0.0202(8) 0.0028(9)
C2B 0.0293(11) 0.0453(15) 0.0484(11) -0.0130(11) -0.0201(9) 0.0030(9)
C8 0.030(2) 0.044(2) 0.0483(12) -0.0126(13) -0.0203(12) 0.0028(15)
C5B 0.0295(16) 0.0467(18) 0.0486(11) -0.0137(12) -0.0201(10) 0.0034(12)
C4B 0.0288(16) 0.046(2) 0.0478(11) -0.0134(11) -0.0199(9) 0.0030(14)
C13 0.0292(13) 0.0449(18) 0.048(2) -0.0133(17) -0.0199(14) 0.0033(13)
C1A3 0.0298(12) 0.0456(18) 0.0507(15) -0.0122(15) -0.0207(12) 0.0035(13)
C1A1 0.0296(11) 0.0462(15) 0.0498(17) -0.0123(14) -0.0212(10) 0.0032(11)
C21B 0.0271(10) 0.0457(12) 0.0517(11) -0.0146(8) -0.0226(8) 0.0003(7)
C23B 0.0268(8) 0.0453(12) 0.0529(10) -0.0153(9) -0.0232(7) 0.0011(7)
C25B 0.0268(13) 0.0453(15) 0.0519(11) -0.0144(9) -0.0226(8) 0.0001(9)
C24B 0.0267(13) 0.0449(15) 0.0528(11) -0.0148(9) -0.0230(8) 0.0006(10)
C22B 0.0272(10) 0.0454(13) 0.0519(12) -0.0153(9) -0.0228(8) 0.0009(7)
C16A 0.028(2) 0.047(2) 0.0518(12) -0.0152(12) -0.0228(10) 0.0013(14)
C17A 0.0266(14) 0.0455(15) 0.0537(15) -0.0146(14) -0.0224(12) 0.0009(11)
C20A 0.0292(8) 0.037(4) 0.033(4) -0.016(4) -0.0145(12) 0.0034(13)
C23A 0.0287(9) 0.057(5) 0.058(5) -0.039(5) -0.0190(10) 0.0073(10)
C22A 0.0288(8) 0.047(3) 0.049(4) -0.029(3) -0.0168(9) 0.0056(10)
C19A 0.0289(9) 0.055(4) 0.049(4) -0.033(4) -0.0173(10) 0.0057(11)
C41 0.0274(15) 0.0452(16) 0.0521(13) -0.0145(13) -0.0229(13) -0.0001(11)
C44 0.0271(14) 0.0456(15) 0.0534(13) -0.0148(14) -0.0235(10) 0.0007(10)
C46 0.0271(11) 0.0459(15) 0.0517(13) -0.0149(13) -0.0229(11) 0.0005(10)
C45 0.0264(9) 0.0455(15) 0.0531(14) -0.0154(15) -0.0234(11) 0.0011(9)
C13B 0.0296(14) 0.0453(17) 0.0483(18) -0.0135(17) -0.0205(14) 0.0033(14)
C11B 0.0293(12) 0.0459(15) 0.0486(18) -0.0129(18) -0.0201(15) 0.0031(12)
loop_
_atom_type_symbol
_atom_type_description
_atom_type_scat_dispersion_real
_atom_type_scat_dispersion_imag
_atom_type_scat_source
C C 0.0033 0.0016 'International Tables Vol C Tables 4.2.6.8 and 6.1.1.4'
Co Co 0.3494 0.9721 'International Tables Vol C Tables 4.2.6.8 and 6.1.1.4'
H H 0.0000 0.0000 'International Tables Vol C Tables 4.2.6.8 and 6.1.1.4'
N N 0.0061 0.0033 'International Tables Vol C Tables 4.2.6.8 and 6.1.1.4'
O O 0.0106 0.0060 'International Tables Vol C Tables 4.2.6.8 and 6.1.1.4'
loop_
_geom_angle_atom_site_label_1
_geom_angle_atom_site_label_2
_geom_angle_atom_site_label_3
_geom_angle
_geom_angle_site_symmetry_1
_geom_angle_site_symmetry_3
_geom_angle_publ_flag
O2 Co1 Co1 77.97(19) 2_865 2_865 ?
O2 Co1 N1 93.1(3) 2_865 2_766 ?
O2 Co1 O5 85.8(3) 2_865 2_865 ?
O1 Co1 Co1 87.3(2) . 2_865 ?
O1 Co1 O2 165.1(3) . 2_865 ?
O1 Co1 N1 99.4(3) . 2_766 ?
O1 Co1 O6 93.5(3) . . ?
O1 Co1 O5 86.3(3) . 2_865 ?
N1 Co1 Co1 153.6(2) 2_766 2_865 ?
N1 Co1 O5 89.6(3) 2_766 2_865 ?
O6 Co1 Co1 100.4(2) . 2_865 ?
O6 Co1 O2 91.0(3) . 2_865 ?
O6 Co1 N1 104.7(3) . 2_766 ?
O6 Co1 O5 165.6(3) . 2_865 ?
O5 Co1 Co1 65.22(19) 2_865 2_865 ?
O8 Co2 Co2 75.70(19) 2_755 2_755 ?
O8 Co2 O3 82.9(3) 2_755 2_765 ?
O8 Co2 O4 91.5(3) 2_755 1_545 ?
O8 Co2 N4 92.1(3) 2_755 . ?
O7 Co2 Co2 86.9(2) . 2_755 ?
O7 Co2 O8 162.5(3) . 2_755 ?
O7 Co2 O3 86.3(3) . 2_765 ?
O7 Co2 O4 94.7(3) . 1_545 ?
O7 Co2 N4 101.3(3) . . ?
O3 Co2 Co2 57.47(18) 2_765 2_755 ?
O4 Co2 Co2 104.6(2) 1_545 2_755 ?
O4 Co2 O3 162.0(3) 1_545 2_765 ?
O4 Co2 N4 108.5(3) 1_545 . ?
N4 Co2 Co2 145.0(2) . 2_755 ?
N4 Co2 O3 88.9(3) . 2_765 ?
C1 O2 Co1 130.4(6) . 2_865 ?
C1 O1 Co1 119.9(6) . . ?
C18 O8 Co2 133.1(6) . 2_755 ?
C31 N1 Co1 121.0(6) . 2_766 ?
C31 N1 C32 116.5(8) . . ?
C32 N1 Co1 122.3(6) . 2_766 ?
C10 O6 Co1 106.6(7) . . ?
C18 O7 Co2 121.0(6) . . ?
C2 O3 Co2 155.5(7) . 2_765 ?
C2 O4 Co2 99.8(7) . 1_565 ?
C19 N4 Co2 128.4(8) . . ?
C19 N4 C23 114.6(11) . . ?
C23 N4 Co2 116.4(8) . . ?
C23A N4 Co2 117.8(11) . . ?
C19A N4 Co2 121.8(12) . . ?
C19A N4 C23A 120.4(16) . . ?
C10 O5 Co1 145.5(6) . 2_865 ?
C24 N3 C28 115.6(7) . . ?
C30 C29 C28 121.2(8) . . ?
C30 C29 C33 116.1(8) . . ?
C33 C29 C28 122.6(8) . . ?
N3 C24 C25 123.4(8) . . ?
N3 C24 C21 115.3(7) . . ?
C25 C24 C21 121.2(8) . . ?
O2 C1 O1 124.3(9) . . ?
O2 C1 C11A 113.7(10) . . ?
O2 C1 C3B 127.6(16) . . ?
O1 C1 C11A 121.9(10) . . ?
O1 C1 C3B 108.1(16) . . ?
O8 C18 C6 116.5(9) . . ?
O8 C18 C23B 116.5(9) . . ?
O7 C18 O8 123.3(8) . . ?
O7 C18 C6 120.1(9) . . ?
O7 C18 C23B 120.1(9) . . ?
C24 C25 H25 119.7 . . ?
C24 C25 C26 120.6(8) . . ?
C26 C25 H25 119.7 . . ?
C10 C3 C4 113.3(10) . . ?
C10 C3 C7 113.9(10) . . ?
C7 C3 C4 104.0(10) . . ?
C41 C3 C10 109.0(14) . . ?
C41 C3 C4 103.3(16) . . ?
C41 C3 C7 112.9(16) . . ?
N3 C28 C29 115.3(8) . . ?
C27 C28 N3 123.6(8) . . ?
C27 C28 C29 121.1(8) . . ?
C28 C27 H27 119.5 . . ?
C28 C27 C26 120.9(8) . . ?
C26 C27 H27 119.5 . . ?
C2 C13A C12A 111.7(17) . . ?
C2 C13A C1A3 109(2) . . ?
C14A C13A C2 114.8(19) . . ?
C14A C13A C12A 104.0(18) . . ?
C14A C13A C1A3 113(2) . . ?
C1A3 C13A C12A 104(2) . . ?
O6 C10 O5 122.2(9) . . ?
O6 C10 C3 119.1(10) . . ?
O6 C10 C21B 119.1(10) . . ?
O5 C10 C3 118.6(9) . . ?
O5 C10 C21B 118.6(9) . . ?
C20 C21 C24 123.9(10) . . ?
C20 C21 C22 116.6(11) . . ?
C22 C21 C24 119.3(9) . . ?
C20A C21 C24 124.9(12) . . ?
C20A C21 C22A 115.2(15) . . ?
C22A C21 C24 119.1(12) . . ?
C25 C26 C34 121.9(8) . . ?
C27 C26 C25 115.8(8) . . ?
C27 C26 C34 122.3(8) . . ?
C18 C6 C5 115.0(9) . . ?
C18 C6 C7 114.2(9) . . ?
C7 C6 C5 101.8(11) . . ?
C44 C6 C18 107.1(14) . . ?
C44 C6 C5 112.5(16) . . ?
C44 C6 C7 105.9(16) . . ?
N1 C31 H31 118.2 . . ?
N1 C31 C30 123.6(9) . . ?
C30 C31 H31 118.2 . . ?
O3 C2 O4 122.1(10) . . ?
O3 C2 C13A 118.4(13) . . ?
O3 C2 C1B 125(2) . . ?
O4 C2 C13A 119.5(14) . . ?
O4 C2 C1B 113(2) . . ?
C1 C11A C12A 112.1(13) . . ?
C1 C11A C15A 116.1(13) . . ?
C15A C11A C12A 104.8(15) . . ?
C1A1 C11A C1 113.6(19) . . ?
C1A1 C11A C12A 115.2(18) . . ?
C1A1 C11A C15A 93.6(17) . . ?
C29 C30 C31 120.1(9) . . ?
C29 C30 H30 120.0 . . ?
C31 C30 H30 120.0 . . ?
N1 C32 H32 118.5 . . ?
N1 C32 C33 123.1(9) . . ?
C33 C32 H32 118.5 . . ?
C40 O9 C37 118.6(11) . . ?
C39 C34 C26 121.1(9) . . ?
C35 C34 C26 121.4(10) . . ?
C35 C34 C39 117.4(10) . . ?
C11A C12A C13A 101.0(14) . . ?
C122 C12A C13A 114.2(17) . . ?
C122 C12A C11A 110.4(13) . . ?
C122 C12A C121 110.3(12) . . ?
C121 C12A C13A 110.3(14) . . ?
C121 C12A C11A 110.2(13) . . ?
C34 C39 H39 119.4 . . ?
C38 C39 C34 121.2(11) . . ?
C38 C39 H39 119.4 . . ?
C29 C33 H33 119.8 . . ?
C32 C33 C29 120.5(9) . . ?
C32 C33 H33 119.8 . . ?
N4 C19 H19 117.0 . . ?
N4 C19 C20 126.0(15) . . ?
C20 C19 H19 117.0 . . ?
C21 C20 H20 120.3 . . ?
C19 C20 C21 119.5(14) . . ?
C19 C20 H20 120.3 . . ?
C34 C35 H35 119.4 . . ?
C34 C35 C36 121.1(11) . . ?
C36 C35 H35 119.4 . . ?
C12A C122 H12A 109.5 . . ?
C12A C122 H12B 109.5 . . ?
C12A C122 H12C 109.5 . . ?
H12A C122 H12B 109.5 . . ?
H12A C122 H12C 109.5 . . ?
H12B C122 H12C 109.5 . . ?
O9 C37 C38 116.4(11) . . ?
C36 C37 O9 122.7(11) . . ?
C36 C37 C38 120.3(11) . . ?
N4 C23 H23 118.0 . . ?
N4 C23 C22 124.0(13) . . ?
C22 C23 H23 118.0 . . ?
C35 C36 H36 120.4 . . ?
C37 C36 C35 119.3(12) . . ?
C37 C36 H36 120.4 . . ?
C21 C22 H22 120.6 . . ?
C23 C22 C21 118.8(14) . . ?
C23 C22 H22 120.6 . . ?
C39 C38 C37 120.0(11) . . ?
C39 C38 H38 120.0 . . ?
C37 C38 H38 120.0 . . ?
C13A C14A H14A 109.6 . . ?
C13A C14A H14B 109.6 . . ?
H14A C14A H14B 108.1 . . ?
C15A C14A C13A 110.5(15) . . ?
C15A C14A H14A 109.6 . . ?
C15A C14A H14B 109.6 . . ?
C3 C4 H4A 110.8 . . ?
C3 C4 H4B 110.8 . . ?
H4A C4 H4B 108.9 . . ?
C5 C4 C3 104.6(12) . . ?
C5 C4 H4A 110.8 . . ?
C5 C4 H4B 110.8 . . ?
C6 C5 H5A 109.9 . . ?
C6 C5 H5B 109.9 . . ?
C4 C5 C6 108.9(12) . . ?
C4 C5 H5A 109.9 . . ?
C4 C5 H5B 109.9 . . ?
H5A C5 H5B 108.3 . . ?
C11A C15A H15A 110.4 . . ?
C11A C15A H15B 110.4 . . ?
C14A C15A C11A 106.8(13) . . ?
C14A C15A H15A 110.4 . . ?
C14A C15A H15B 110.4 . . ?
H15A C15A H15B 108.6 . . ?
O9 C40 H40A 109.5 . . ?
O9 C40 H40B 109.5 . . ?
O9 C40 H40C 109.5 . . ?
H40A C40 H40B 109.5 . . ?
H40A C40 H40C 109.5 . . ?
H40B C40 H40C 109.5 . . ?
C12A C121 H12D 109.5 . . ?
C12A C121 H12E 109.5 . . ?
C12A C121 H12F 109.5 . . ?
H12D C121 H12E 109.5 . . ?
H12D C121 H12F 109.5 . . ?
H12E C121 H12F 109.5 . . ?
C6 C7 C3 102.6(11) . . ?
C17 C7 C3 113.7(13) . . ?
C17 C7 C6 117.9(15) . . ?
C17 C7 C17A 105.2(14) . . ?
C17A C7 C3 107.6(14) . . ?
C17A C7 C6 109.4(13) . . ?
H16A C16 H16B 109.5 . . ?
H16A C16 H16C 109.5 . . ?
H16B C16 H16C 109.5 . . ?
C22B C16 H16A 109.5 . . ?
C22B C16 H16B 109.5 . . ?
C22B C16 H16C 109.5 . . ?
C7 C17 H17A 109.5 . . ?
C7 C17 H17B 109.5 . . ?
C7 C17 H17C 109.5 . . ?
H17A C17 H17B 109.5 . . ?
H17A C17 H17C 109.5 . . ?
H17B C17 H17C 109.5 . . ?
C2 C1B C2B 113(5) . . ?
C2 C1B C5B 110(3) . . ?
C2B C1B C5B 100(3) . . ?
C11B C1B C2 114(5) . . ?
C11B C1B C2B 125(6) . . ?
C11B C1B C5B 91(5) . . ?
C1 C3B C2B 107(3) . . ?
C1 C3B C4B 121(3) . . ?
C1 C3B C13B 115(3) . . ?
C2B C3B C4B 101(3) . . ?
C2B C3B C13B 84(4) . . ?
C4B C3B C13B 119(4) . . ?
C1B C2B C3B 102(4) . . ?
C8 C2B C1B 109(3) . . ?
C8 C2B C3B 104(3) . . ?
C13 C2B C1B 119(4) . . ?
C13 C2B C3B 120(3) . . ?
C13 C2B C8 100(3) . . ?
C2B C8 H8A 109.5 . . ?
C2B C8 H8B 109.5 . . ?
C2B C8 H8C 109.5 . . ?
H8A C8 H8B 109.5 . . ?
H8A C8 H8C 109.5 . . ?
H8B C8 H8C 109.5 . . ?
C1B C5B H5BA 112.0 . . ?
C1B C5B H5BB 112.0 . . ?
H5BA C5B H5BB 109.7 . . ?
C4B C5B C1B 99(3) . . ?
C4B C5B H5BA 112.0 . . ?
C4B C5B H5BB 112.0 . . ?
C3B C4B H4BA 108.6 . . ?
C3B C4B H4BB 108.6 . . ?
C5B C4B C3B 115(3) . . ?
C5B C4B H4BA 108.6 . . ?
C5B C4B H4BB 108.6 . . ?
H4BA C4B H4BB 107.6 . . ?
C2B C13 H13A 109.5 . . ?
C2B C13 H13B 109.5 . . ?
C2B C13 H13C 109.5 . . ?
H13A C13 H13B 109.5 . . ?
H13A C13 H13C 109.5 . . ?
H13B C13 H13C 109.5 . . ?
C13A C1A3 H1AA 87.6 . . ?
C13A C1A3 H1AB 119.1 . . ?
C13A C1A3 H1AC 118.9 . . ?
H1AA C1A3 H1AB 109.4 . . ?
H1AA C1A3 H1AC 109.5 . . ?
H1AB C1A3 H1AC 109.5 . . ?
C11A C1A1 H1AD 109.5 . . ?
C11A C1A1 H1AE 109.5 . . ?
C11A C1A1 H1AF 109.5 . . ?
H1AD C1A1 H1AE 109.5 . . ?
H1AD C1A1 H1AF 109.5 . . ?
H1AE C1A1 H1AF 109.5 . . ?
C10 C21B C22B 112.0(12) . . ?
C10 C21B C46 111(2) . . ?
C25B C21B C10 115.6(12) . . ?
C25B C21B C22B 101.2(15) . . ?
C25B C21B C46 110(2) . . ?
C46 C21B C22B 107(2) . . ?
C18 C23B C24B 113.7(12) . . ?
C18 C23B C22B 111.2(11) . . ?
C22B C23B C24B 101.1(15) . . ?
C45 C23B C18 110.1(19) . . ?
C45 C23B C24B 106(2) . . ?
C45 C23B C22B 115(3) . . ?
C21B C25B H25A 109.9 . . ?
C21B C25B H25B 109.9 . . ?
C21B C25B C24B 108.7(18) . . ?
H25A C25B H25B 108.3 . . ?
C24B C25B H25A 109.9 . . ?
C24B C25B H25B 109.9 . . ?
C23B C24B C25B 102.7(19) . . ?
C23B C24B H24A 111.2 . . ?
C23B C24B H24B 111.2 . . ?
C25B C24B H24A 111.2 . . ?
C25B C24B H24B 111.2 . . ?
H24A C24B H24B 109.1 . . ?
C16 C22B C21B 111.3(18) . . ?
C16 C22B C23B 114(2) . . ?
C16 C22B C16A 109(2) . . ?
C23B C22B C21B 100.4(16) . . ?
C23B C22B C16A 110.5(18) . . ?
C16A C22B C21B 111.7(18) . . ?
C22B C16A H16D 109.5 . . ?
C22B C16A H16E 109.5 . . ?
C22B C16A H16F 109.5 . . ?
H16D C16A H16E 109.5 . . ?
H16D C16A H16F 109.5 . . ?
H16E C16A H16F 109.5 . . ?
C7 C17A H17D 109.5 . . ?
C7 C17A H17E 109.5 . . ?
C7 C17A H17F 109.5 . . ?
H17D C17A H17E 109.5 . . ?
H17D C17A H17F 109.5 . . ?
H17E C17A H17F 109.5 . . ?
C21 C20A H20A 118.3 . . ?
C21 C20A C19A 123(2) . . ?
C19A C20A H20A 118.3 . . ?
N4 C23A H23A 118.7 . . ?
C22A C23A N4 123(2) . . ?
C22A C23A H23A 118.7 . . ?
C21 C22A H22A 120.7 . . ?
C23A C22A C21 119(2) . . ?
C23A C22A H22A 120.7 . . ?
N4 C19A C20A 118(2) . . ?
N4 C19A H19A 120.9 . . ?
C20A C19A H19A 120.9 . . ?
C3 C41 H41A 109.5 . . ?
C3 C41 H41B 109.5 . . ?
C3 C41 H41C 109.5 . . ?
H41A C41 H41B 109.5 . . ?
H41A C41 H41C 109.5 . . ?
H41B C41 H41C 109.5 . . ?
C6 C44 H44A 109.5 . . ?
C6 C44 H44B 109.5 . . ?
C6 C44 H44C 109.5 . . ?
H44A C44 H44B 109.5 . . ?
H44A C44 H44C 109.5 . . ?
H44B C44 H44C 109.5 . . ?
C21B C46 H46A 109.5 . . ?
C21B C46 H46B 109.5 . . ?
C21B C46 H46C 109.5 . . ?
H46A C46 H46B 109.5 . . ?
H46A C46 H46C 109.5 . . ?
H46B C46 H46C 109.5 . . ?
C23B C45 H45A 109.5 . . ?
C23B C45 H45B 109.5 . . ?
C23B C45 H45C 109.5 . . ?
H45A C45 H45B 109.5 . . ?
H45A C45 H45C 109.5 . . ?
H45B C45 H45C 109.5 . . ?
C3B C13B H13D 107.8 . . ?
C3B C13B H13E 109.5 . . ?
C3B C13B H13F 111.1 . . ?
H13D C13B H13E 109.5 . . ?
H13D C13B H13F 109.5 . . ?
H13E C13B H13F 109.5 . . ?
C1B C11B H11A 109.4 . . ?
C1B C11B H11B 109.5 . . ?
C1B C11B H11C 109.5 . . ?
H11A C11B H11B 109.5 . . ?
H11A C11B H11C 109.5 . . ?
H11B C11B H11C 109.5 . . ?
loop_
_geom_bond_atom_site_label_1
_geom_bond_atom_site_label_2
_geom_bond_distance
_geom_bond_site_symmetry_2
_geom_bond_publ_flag
Co1 Co1 2.737(2) 2_865 ?
Co1 O2 2.043(6) 2_865 ?
Co1 O1 2.020(6) . ?
Co1 N1 2.064(7) 2_766 ?
Co1 O6 2.026(7) . ?
Co1 O5 2.109(7) 2_865 ?
Co2 Co2 2.838(3) 2_755 ?
Co2 O8 2.038(6) 2_755 ?
Co2 O7 1.999(6) . ?
Co2 O3 2.181(8) 2_765 ?
Co2 O4 2.057(7) 1_545 ?
Co2 N4 2.102(7) . ?
O2 C1 1.248(11) . ?
O1 C1 1.258(11) . ?
O8 C18 1.270(11) . ?
N1 C31 1.318(12) . ?
N1 C32 1.341(12) . ?
O6 C10 1.261(11) . ?
O7 C18 1.261(11) . ?
O3 C2 1.232(12) . ?
O4 C2 1.270(11) . ?
N4 C19 1.326(17) . ?
N4 C23 1.341(17) . ?
N4 C23A 1.37(3) . ?
N4 C19A 1.35(3) . ?
O5 C10 1.272(12) . ?
N3 C24 1.350(11) . ?
N3 C28 1.363(11) . ?
C29 C28 1.503(12) . ?
C29 C30 1.367(13) . ?
C29 C33 1.388(13) . ?
C24 C25 1.374(12) . ?
C24 C21 1.496(12) . ?
C1 C11A 1.52(2) . ?
C1 C3B 1.52(5) . ?
C18 C6 1.506(12) . ?
C18 C23B 1.506(12) . ?
C25 H25 0.9500 . ?
C25 C26 1.395(13) . ?
C3 C10 1.499(14) . ?
C3 C4 1.563(19) . ?
C3 C7 1.556(18) . ?
C3 C41 1.49(3) . ?
C28 C27 1.362(12) . ?
C27 H27 0.9500 . ?
C27 C26 1.389(12) . ?
C13A C2 1.52(3) . ?
C13A C12A 1.61(3) . ?
C13A C14A 1.52(3) . ?
C13A C1A3 1.57(4) . ?
C10 C21B 1.499(14) . ?
C21 C20 1.384(18) . ?
C21 C22 1.391(17) . ?
C21 C20A 1.38(3) . ?
C21 C22A 1.45(2) . ?
C26 C34 1.477(13) . ?
C6 C5 1.557(19) . ?
C6 C7 1.548(19) . ?
C6 C44 1.48(4) . ?
C31 H31 0.9500 . ?
C31 C30 1.383(13) . ?
C2 C1B 1.53(8) . ?
C11A C12A 1.59(2) . ?
C11A C15A 1.53(2) . ?
C11A C1A1 1.37(4) . ?
C30 H30 0.9500 . ?
C32 H32 0.9500 . ?
C32 C33 1.363(13) . ?
O9 C37 1.372(14) . ?
O9 C40 1.279(15) . ?
C34 C39 1.398(15) . ?
C34 C35 1.362(15) . ?
C12A C122 1.45(2) . ?
C12A C121 1.51(2) . ?
C39 H39 0.9500 . ?
C39 C38 1.354(15) . ?
C33 H33 0.9500 . ?
C19 H19 0.9500 . ?
C19 C20 1.34(2) . ?
C20 H20 0.9500 . ?
C35 H35 0.9500 . ?
C35 C36 1.413(16) . ?
C122 H12A 0.9800 . ?
C122 H12B 0.9800 . ?
C122 H12C 0.9800 . ?
C37 C36 1.335(17) . ?
C37 C38 1.382(17) . ?
C23 H23 0.9500 . ?
C23 C22 1.38(2) . ?
C36 H36 0.9500 . ?
C22 H22 0.9500 . ?
C38 H38 0.9500 . ?
C14A H14A 0.9900 . ?
C14A H14B 0.9900 . ?
C14A C15A 1.492(19) . ?
C4 H4A 0.9900 . ?
C4 H4B 0.9900 . ?
C4 C5 1.52(2) . ?
C5 H5A 0.9900 . ?
C5 H5B 0.9900 . ?
C15A H15A 0.9900 . ?
C15A H15B 0.9900 . ?
C40 H40A 0.9800 . ?
C40 H40B 0.9800 . ?
C40 H40C 0.9800 . ?
C121 H12D 0.9800 . ?
C121 H12E 0.9800 . ?
C121 H12F 0.9800 . ?
C7 C17 1.45(2) . ?
C7 C17A 1.53(3) . ?
C16 H16A 0.9800 . ?
C16 H16B 0.9800 . ?
C16 H16C 0.9800 . ?
C16 C22B 1.52(4) . ?
C17 H17A 0.9800 . ?
C17 H17B 0.9800 . ?
C17 H17C 0.9800 . ?
C1B C2B 1.58(7) . ?
C1B C5B 1.76(6) . ?
C1B C11B 1.40(10) . ?
C3B C2B 1.58(6) . ?
C3B C4B 1.58(5) . ?
C3B C13B 1.59(7) . ?
C2B C8 1.55(5) . ?
C2B C13 1.48(5) . ?
C8 H8A 0.9800 . ?
C8 H8B 0.9800 . ?
C8 H8C 0.9800 . ?
C5B H5BA 0.9900 . ?
C5B H5BB 0.9900 . ?
C5B C4B 1.49(5) . ?
C4B H4BA 0.9900 . ?
C4B H4BB 0.9900 . ?
C13 H13A 0.9800 . ?
C13 H13B 0.9800 . ?
C13 H13C 0.9800 . ?
C1A3 H1AA 0.9604 . ?
C1A3 H1AB 0.9599 . ?
C1A3 H1AC 0.9596 . ?
C1A1 H1AD 0.9800 . ?
C1A1 H1AE 0.9800 . ?
C1A1 H1AF 0.9800 . ?
C21B C25B 1.49(3) . ?
C21B C22B 1.60(2) . ?
C21B C46 1.55(5) . ?
C23B C24B 1.57(3) . ?
C23B C22B 1.56(3) . ?
C23B C45 1.47(5) . ?
C25B H25A 0.9900 . ?
C25B H25B 0.9900 . ?
C25B C24B 1.59(3) . ?
C24B H24A 0.9900 . ?
C24B H24B 0.9900 . ?
C22B C16A 1.59(4) . ?
C16A H16D 0.9800 . ?
C16A H16E 0.9800 . ?
C16A H16F 0.9800 . ?
C17A H17D 0.9800 . ?
C17A H17E 0.9800 . ?
C17A H17F 0.9800 . ?
C20A H20A 0.9500 . ?
C20A C19A 1.40(3) . ?
C23A H23A 0.9500 . ?
C23A C22A 1.37(3) . ?
C22A H22A 0.9500 . ?
C19A H19A 0.9500 . ?
C41 H41A 0.9800 . ?
C41 H41B 0.9800 . ?
C41 H41C 0.9800 . ?
C44 H44A 0.9800 . ?
C44 H44B 0.9800 . ?
C44 H44C 0.9800 . ?
C46 H46A 0.9800 . ?
C46 H46B 0.9800 . ?
C46 H46C 0.9800 . ?
C45 H45A 0.9800 . ?
C45 H45B 0.9800 . ?
C45 H45C 0.9800 . ?
C13B H13D 0.9601 . ?
C13B H13E 0.9601 . ?
C13B H13F 0.9599 . ?
C11B H11A 0.9600 . ?
C11B H11B 0.9602 . ?
C11B H11C 0.9600 . ?
loop_
_geom_torsion_atom_site_label_1
_geom_torsion_atom_site_label_2
_geom_torsion_atom_site_label_3
_geom_torsion_atom_site_label_4
_geom_torsion
_geom_torsion_site_symmetry_1
_geom_torsion_site_symmetry_2
_geom_torsion_site_symmetry_3
_geom_torsion_site_symmetry_4
_geom_torsion_publ_flag
Co1 O2 C1 O1 -4.7(15) 2_865 . . . ?
Co1 O2 C1 C11A 177.1(10) 2_865 . . . ?
Co1 O2 C1 C3B 176(3) 2_865 . . . ?
Co1 O1 C1 O2 1.5(14) . . . . ?
Co1 O1 C1 C11A 179.6(11) . . . . ?
Co1 O1 C1 C3B -179(2) . . . . ?
Co1 N1 C31 C30 -172.0(9) 2_766 . . . ?
Co1 N1 C32 C33 172.8(10) 2_766 . . . ?
Co1 O6 C10 O5 3.7(11) . . . . ?
Co1 O6 C10 C3 -178.1(7) . . . . ?
Co1 O6 C10 C21B -178.1(7) . . . . ?
Co1 O5 C10 O6 -5.3(17) 2_865 . . . ?
Co1 O5 C10 C3 176.5(7) 2_865 . . . ?
Co1 O5 C10 C21B 176.5(7) 2_865 . . . ?
Co2 O8 C18 O7 1.0(16) 2_755 . . . ?
Co2 O8 C18 C6 178.5(6) 2_755 . . . ?
Co2 O8 C18 C23B 178.5(6) 2_755 . . . ?
Co2 O7 C18 O8 1.8(14) . . . . ?
Co2 O7 C18 C6 -175.6(7) . . . . ?
Co2 O7 C18 C23B -175.6(7) . . . . ?
Co2 O3 C2 O4 -13(2) 2_765 . . . ?
Co2 O3 C2 C13A 165.1(15) 2_765 . . . ?
Co2 O3 C2 C1B 172(3) 2_765 . . . ?
Co2 O4 C2 O3 4.4(10) 1_565 . . . ?
Co2 O4 C2 C13A -173.9(12) 1_565 . . . ?
Co2 O4 C2 C1B 180(2) 1_565 . . . ?
Co2 N4 C19 C20 179.0(13) . . . . ?
Co2 N4 C23 C22 -177.4(13) . . . . ?
Co2 N4 C23A C22A -177(2) . . . . ?
Co2 N4 C19A C20A 178.4(19) . . . . ?
O2 C1 C11A C12A -113.2(13) . . . . ?
O2 C1 C11A C15A 7(2) . . . . ?
O2 C1 C11A C1A1 114.0(18) . . . . ?
O2 C1 C3B C2B -52(3) . . . . ?
O2 C1 C3B C4B -167(3) . . . . ?
O2 C1 C3B C13B 39(6) . . . . ?
O1 C1 C11A C12A 68.5(18) . . . . ?
O1 C1 C11A C15A -171.1(14) . . . . ?
O1 C1 C11A C1A1 -64(2) . . . . ?
O1 C1 C3B C2B 128(2) . . . . ?
O1 C1 C3B C4B 14(5) . . . . ?
O1 C1 C3B C13B -141(4) . . . . ?
O8 C18 C6 C5 2.4(15) . . . . ?
O8 C18 C6 C7 119.7(12) . . . . ?
O8 C18 C6 C44 -123.4(17) . . . . ?
O8 C18 C23B C24B -159.3(13) . . . . ?
O8 C18 C23B C22B 87.4(15) . . . . ?
O8 C18 C23B C45 -41(3) . . . . ?
N1 C31 C30 C29 -3.5(19) . . . . ?
N1 C32 C33 C29 2(2) . . . . ?
O6 C10 C21B C25B 7.8(15) . . . . ?
O6 C10 C21B C22B 123.0(14) . . . . ?
O6 C10 C21B C46 -118(2) . . . . ?
O7 C18 C6 C5 -180.0(11) . . . . ?
O7 C18 C6 C7 -62.7(15) . . . . ?
O7 C18 C6 C44 54.2(18) . . . . ?
O7 C18 C23B C24B 18.3(17) . . . . ?
O7 C18 C23B C22B -95.0(16) . . . . ?
O7 C18 C23B C45 137(3) . . . . ?
O3 C2 C1B C2B 36(4) . . . . ?
O3 C2 C1B C5B 146(3) . . . . ?
O3 C2 C1B C11B -113(5) . . . . ?
O4 C2 C1B C2B -139(2) . . . . ?
O4 C2 C1B C5B -29(4) . . . . ?
O4 C2 C1B C11B 71(5) . . . . ?
N4 C19 C20 C21 -4(3) . . . . ?
N4 C23 C22 C21 -2(3) . . . . ?
N4 C23A C22A C21 5(4) . . . . ?
O5 C10 C21B C25B -174.0(12) . . . . ?
O5 C10 C21B C22B -58.8(15) . . . . ?
O5 C10 C21B C46 61(2) . . . . ?
N3 C24 C25 C26 -2.5(16) . . . . ?
N3 C24 C21 C20 11.6(16) . . . . ?
N3 C24 C21 C22 -164.0(11) . . . . ?
N3 C24 C21 C20A -22.8(19) . . . . ?
N3 C24 C21 C22A 146.7(16) . . . . ?
N3 C28 C27 C26 -0.3(16) . . . . ?
C29 C28 C27 C26 -179.6(10) . . . . ?
C24 N3 C28 C29 179.3(8) . . . . ?
C24 N3 C28 C27 -0.1(14) . . . . ?
C24 C25 C26 C27 2.0(16) . . . . ?
C24 C25 C26 C34 -178.3(10) . . . . ?
C24 C21 C20 C19 -179.6(13) . . . . ?
C24 C21 C22 C23 -177.9(13) . . . . ?
C24 C21 C20A C19A -176(2) . . . . ?
C24 C21 C22A C23A 177(2) . . . . ?
C1 C11A C12A C13A 162.0(16) . . . . ?
C1 C11A C12A C122 40.8(18) . . . . ?
C1 C11A C12A C121 -81.3(16) . . . . ?
C1 C11A C15A C14A -150.3(15) . . . . ?
C1 C3B C2B C1B -170(3) . . . . ?
C1 C3B C2B C8 76(3) . . . . ?
C1 C3B C2B C13 -35(4) . . . . ?
C1 C3B C4B C5B 136(4) . . . . ?
C18 C6 C5 C4 149.6(13) . . . . ?
C18 C6 C7 C3 -164.9(10) . . . . ?
C18 C6 C7 C17 69.3(17) . . . . ?
C18 C6 C7 C17A -50.8(17) . . . . ?
C18 C23B C24B C25B -152.7(14) . . . . ?
C18 C23B C22B C16 51(2) . . . . ?
C18 C23B C22B C21B 170.4(11) . . . . ?
C18 C23B C22B C16A -71.6(18) . . . . ?
C25 C24 C21 C20 -166.5(12) . . . . ?
C25 C24 C21 C22 18.0(16) . . . . ?
C25 C24 C21 C20A 159.2(16) . . . . ?
C25 C24 C21 C22A -31.4(19) . . . . ?
C25 C26 C34 C39 -37.9(17) . . . . ?
C25 C26 C34 C35 146.2(13) . . . . ?
C3 C4 C5 C6 -0.5(18) . . . . ?
C28 N3 C24 C25 1.5(14) . . . . ?
C28 N3 C24 C21 -176.5(8) . . . . ?
C28 C29 C30 C31 -179.1(10) . . . . ?
C28 C29 C33 C32 179.9(11) . . . . ?
C28 C27 C26 C25 -0.6(16) . . . . ?
C28 C27 C26 C34 179.7(11) . . . . ?
C27 C26 C34 C39 141.7(12) . . . . ?
C27 C26 C34 C35 -34.1(19) . . . . ?
C13A C14A C15A C11A 5(2) . . . . ?
C10 C3 C4 C5 -149.1(12) . . . . ?
C10 C3 C7 C6 164.8(10) . . . . ?
C10 C3 C7 C17 -66.7(17) . . . . ?
C10 C3 C7 C17A 49.4(16) . . . . ?
C10 C21B C25B C24B 146.7(15) . . . . ?
C10 C21B C22B C16 -49(2) . . . . ?
C10 C21B C22B C23B -170.0(11) . . . . ?
C10 C21B C22B C16A 73(2) . . . . ?
C21 C24 C25 C26 175.4(10) . . . . ?
C21 C20A C19A N4 -9(4) . . . . ?
C26 C34 C39 C38 -179.6(12) . . . . ?
C26 C34 C35 C36 -178.1(14) . . . . ?
C31 N1 C32 C33 -1.5(18) . . . . ?
C2 C13A C12A C11A -156.0(16) . . . . ?
C2 C13A C12A C122 -38(2) . . . . ?
C2 C13A C12A C121 87(2) . . . . ?
C2 C13A C14A C15A 139.6(17) . . . . ?
C2 C1B C2B C3B 165(3) . . . . ?
C2 C1B C2B C8 -85(4) . . . . ?
C2 C1B C2B C13 29(5) . . . . ?
C2 C1B C5B C4B -154(4) . . . . ?
C30 C29 C28 N3 163.7(10) . . . . ?
C30 C29 C28 C27 -16.9(15) . . . . ?
C30 C29 C33 C32 -2.7(18) . . . . ?
C32 N1 C31 C30 2.4(17) . . . . ?
O9 C37 C36 C35 -177.5(16) . . . . ?
O9 C37 C38 C39 -179.6(13) . . . . ?
C34 C39 C38 C37 -4(2) . . . . ?
C34 C35 C36 C37 -1(3) . . . . ?
C12A C13A C2 O3 92.1(16) . . . . ?
C12A C13A C2 O4 -89(2) . . . . ?
C12A C13A C14A C15A 17(2) . . . . ?
C12A C11A C15A C14A -26.1(19) . . . . ?
C39 C34 C35 C36 6(2) . . . . ?
C33 C29 C28 N3 -19.0(15) . . . . ?
C33 C29 C28 C27 160.4(11) . . . . ?
C33 C29 C30 C31 3.5(17) . . . . ?
C19 N4 C23 C22 -5(2) . . . . ?
C20 C21 C22 C23 6(2) . . . . ?
C35 C34 C39 C38 -3.6(19) . . . . ?
C23 N4 C19 C20 8(2) . . . . ?
C36 C37 C38 C39 9(2) . . . . ?
C22 C21 C20 C19 -4(2) . . . . ?
C38 C37 C36 C35 -7(3) . . . . ?
C14A C13A C2 O3 -26(2) . . . . ?
C14A C13A C2 O4 152.4(15) . . . . ?
C14A C13A C12A C11A -32(2) . . . . ?
C14A C13A C12A C122 87(2) . . . . ?
C14A C13A C12A C121 -148.3(17) . . . . ?
C4 C3 C10 O6 -150.3(10) . . . . ?
C4 C3 C10 O5 28.0(13) . . . . ?
C4 C3 C7 C6 41.0(15) . . . . ?
C4 C3 C7 C17 169.5(15) . . . . ?
C4 C3 C7 C17A -74.4(15) . . . . ?
C5 C6 C7 C3 -40.2(14) . . . . ?
C5 C6 C7 C17 -166.0(14) . . . . ?
C5 C6 C7 C17A 73.8(14) . . . . ?
C15A C11A C12A C13A 35.3(19) . . . . ?
C15A C11A C12A C122 -85.9(16) . . . . ?
C15A C11A C12A C121 151.9(13) . . . . ?
C40 O9 C37 C36 -7(3) . . . . ?
C40 O9 C37 C38 -178.2(17) . . . . ?
C7 C3 C10 O6 91.1(13) . . . . ?
C7 C3 C10 O5 -90.7(13) . . . . ?
C7 C3 C4 C5 -24.9(16) . . . . ?
C7 C6 C5 C4 25.5(16) . . . . ?
C1B C5B C4B C3B 10(4) . . . . ?
C2B C1B C5B C4B -36(4) . . . . ?
C2B C3B C4B C5B 18(4) . . . . ?
C5B C1B C2B C3B 48(4) . . . . ?
C5B C1B C2B C8 158(3) . . . . ?
C5B C1B C2B C13 -88(5) . . . . ?
C4B C3B C2B C1B -42(4) . . . . ?
C4B C3B C2B C8 -156(3) . . . . ?
C4B C3B C2B C13 93(4) . . . . ?
C1A3 C13A C2 O3 -153.2(15) . . . . ?
C1A3 C13A C2 O4 25(2) . . . . ?
C1A3 C13A C12A C11A 87(2) . . . . ?
C1A3 C13A C12A C122 -154.8(18) . . . . ?
C1A3 C13A C12A C121 -30(2) . . . . ?
C1A3 C13A C14A C15A -95(2) . . . . ?
C1A1 C11A C12A C13A -66(2) . . . . ?
C1A1 C11A C12A C122 172.7(18) . . . . ?
C1A1 C11A C12A C121 51(2) . . . . ?
C1A1 C11A C15A C14A 91.2(19) . . . . ?
C21B C25B C24B C23B 4(2) . . . . ?
C25B C21B C22B C16 75(2) . . . . ?
C25B C21B C22B C23B -46.4(18) . . . . ?
C25B C21B C22B C16A -163.5(19) . . . . ?
C24B C23B C22B C16 -70(2) . . . . ?
C24B C23B C22B C21B 49.3(17) . . . . ?
C24B C23B C22B C16A 167.4(17) . . . . ?
C22B C21B C25B C24B 25(2) . . . . ?
C22B C23B C24B C25B -33.4(19) . . . . ?
C20A C21 C22A C23A -12(3) . . . . ?
C23A N4 C19A C20A 0(4) . . . . ?
C22A C21 C20A C19A 15(3) . . . . ?
C19A N4 C23A C22A 2(4) . . . . ?
C41 C3 C10 O6 -35.9(18) . . . . ?
C41 C3 C10 O5 142.3(16) . . . . ?
C41 C3 C4 C5 93.2(18) . . . . ?
C41 C3 C7 C6 -70.2(19) . . . . ?
C41 C3 C7 C17 58(2) . . . . ?
C41 C3 C7 C17A 174.4(17) . . . . ?
C44 C6 C5 C4 -87(2) . . . . ?
C44 C6 C7 C3 77.5(18) . . . . ?
C44 C6 C7 C17 -48(2) . . . . ?
C44 C6 C7 C17A -168.5(17) . . . . ?
C46 C21B C25B C24B -87(3) . . . . ?
C46 C21B C22B C16 -171(3) . . . . ?
C46 C21B C22B C23B 68(3) . . . . ?
C46 C21B C22B C16A -49(3) . . . . ?
C45 C23B C24B C25B 86(3) . . . . ?
C45 C23B C22B C16 177(3) . . . . ?
C45 C23B C22B C21B -64(3) . . . . ?
C45 C23B C22B C16A 54(3) . . . . ?
C13B C3B C2B C1B 76(4) . . . . ?
C13B C3B C2B C8 -38(4) . . . . ?
C13B C3B C2B C13 -149(4) . . . . ?
C13B C3B C4B C5B -70(6) . . . . ?
C11B C1B C2B C3B -50(6) . . . . ?
C11B C1B C2B C8 60(7) . . . . ?
C11B C1B C2B C13 174(5) . . . . ?
C11B C1B C5B C4B 90(5) . . . . ?
loop_
_smtbx_masks_void_nr
_smtbx_masks_void_average_x
_smtbx_masks_void_average_y
_smtbx_masks_void_average_z
_smtbx_masks_void_volume
_smtbx_masks_void_count_electrons
_smtbx_masks_void_content
1 -0.072 0.000 0.500 737.0 183.6 '8 CH3CN'
