#------------------------------------------------------------------------------
#$Date: 2020-05-05 16:29:02 +0300 (Tue, 05 May 2020) $
#$Revision: 251660 $
#$URL: file:///home/coder/svn-repositories/cod/cif/7/70/38/7703820.cif $
#------------------------------------------------------------------------------
#
# This file is available in the Crystallography Open Database (COD),
# http://www.crystallography.net/
#
# All data on this site have been placed in the public domain by the
# contributors.
#
data_7703820
loop_
_publ_author_name
'Rabe, Timo'
'Pewe, Harm'
'Reinsch, Helge'
'Willhammar, Tom'
'Svensson Grape, Erik'
'Stock, Norbert'
_publ_section_title
;
 Influence of the substitution pattern of four naphthalenedicarboxylic
 acids on the structures and properties of group 13 metal-organic
 frameworks and coordination polymers.
;
_journal_issue                   15
_journal_name_full
'Dalton transactions (Cambridge, England : 2003)'
_journal_page_first              4861
_journal_page_last               4868
_journal_paper_doi               10.1039/d0dt00387e
_journal_volume                  49
_journal_year                    2020
_chemical_formula_moiety         'C24 Ga2 O10, 0.124(O)'
_chemical_formula_sum            'C24 Ga2 O10.12'
_chemical_formula_weight         589.66
_space_group_IT_number           15
_space_group_name_Hall           '-C 2yc'
_space_group_name_H-M_alt        'C 1 2/c 1'
_symmetry_cell_setting           monoclinic
_symmetry_space_group_name_Hall  '-C 2yc'
_symmetry_space_group_name_H-M   'C 1 2/c 1'
_audit_update_record
;
2020-01-31 deposited with the CCDC.	2020-03-18 downloaded from the CCDC.
;
_cell_angle_alpha                90
_cell_angle_beta                 104.225(6)
_cell_angle_gamma                90
_cell_formula_units_Z            2
_cell_length_a                   24.5518(13)
_cell_length_b                   7.1261(5)
_cell_length_c                   6.6983(4)
_cell_measurement_temperature    298
_cell_volume                     1135.99(12)
_diffrn_ambient_temperature      298
_diffrn_measurement_device_type  'Stoe Stadi P Combi'
_diffrn_radiation_probe          x-ray
_diffrn_radiation_type           'Cu K\a'
_diffrn_radiation_wavelength     1.5406
_exptl_crystal_density_diffrn    1.724
_exptl_crystal_description       powder
_pd_char_colour                  white
_pd_proc_ls_prof_R_factor        0.0313
_pd_proc_ls_prof_wR_expected     0.0126
_pd_proc_ls_prof_wR_factor       0.0483
_refine_ls_goodness_of_fit_all   3.83682
_refine_ls_R_I_factor            0.0181
_cod_data_source_file            d0dt00387e2.cif
_cod_data_source_block           Ga26
_cod_depositor_comments
'Adding full bibliography for 7703815--7703820.cif.'
_cod_original_cell_volume        1135.98(12)
_cod_original_sg_symbol_H-M      C2/C
_cod_database_code               7703820
loop_
_symmetry_equiv_pos_as_xyz
'x, y, z '
'-x, y, -z+1/2 '
'x, -y, z+1/2 '
'-x, -y, -z '
'x+1/2, y+1/2, z '
'-x+1/2, y+1/2, -z+1/2 '
'x+1/2, -y+1/2, z+1/2 '
'-x+1/2, -y+1/2, -z '
loop_
_atom_site_label
_atom_site_type_symbol
_atom_site_symmetry_multiplicity
_atom_site_fract_x
_atom_site_fract_y
_atom_site_fract_z
_atom_site_occupancy
_atom_site_B_iso_or_equiv
Ga1 Ga 4 0 0 1 1 1.82(18)
O1 O 4 0 -0.134(4) 1.25 1 0.4(3)
O2 O 8 0.0504(5) 0.192(3) 1.4342(18) 1 0.4(3)
O3 O 8 0.0721(5) 0.128(2) 1.1331(19) 1 0.4(3)
C1 C 8 0.0838 0.17715 1.31958 1 0.8(4)
C2 C 8 0.14407 0.22565 1.41321 1 0.8(4)
C3 C 8 0.2435 0.2069 1.40477 1 0.8(4)
C4 C 8 0.21851 0.31237 1.71446 1 0.8(4)
C5 C 8 0.18603 0.18411 1.30841 1 0.8(4)
C6 C 8 0.16127 0.28889 1.61769 1 0.8(4)
Ow1 O 4 0.5 0.01(7) 0.25 0.062(19) 0.4(3)
loop_
_geom_angle_atom_site_label_1
_geom_angle_atom_site_label_2
_geom_angle_atom_site_label_3
_geom_angle
_geom_angle_site_symmetry_1
_geom_angle_site_symmetry_2
_geom_angle_site_symmetry_3
O1 Ga1 O1 180.000 1_555 1_555 3_554
O2 Ga1 O1 90.9(7) 2_557 1_555 1_555
O2 Ga1 O1 89.1(7) 2_557 1_555 3_554
O2 Ga1 O2 180.0000000(3) 3_554 1_555 2_557
O2 Ga1 O1 89.1(7) 3_554 1_555 1_555
O2 Ga1 O1 90.9(7) 3_554 1_555 3_554
O3 Ga1 O2 97.0(6) 4_557 1_555 3_554
O3 Ga1 O2 83.0(6) 4_557 1_555 2_557
O3 Ga1 O1 88.4(5) 4_557 1_555 1_555
O3 Ga1 O1 91.6(5) 4_557 1_555 3_554
O3 Ga1 O3 180.000 1_555 1_555 4_557
O3 Ga1 O2 83.0(6) 1_555 1_555 3_554
O3 Ga1 O2 97.0(6) 1_555 1_555 2_557
O3 Ga1 O1 91.6(5) 1_555 1_555 1_555
O3 Ga1 O1 88.4(5) 1_555 1_555 3_554
C1 Ga1 O3 158.2(4) 4_557 1_555 1_555
C1 Ga1 O3 21.8(4) 4_557 1_555 4_557
C1 Ga1 O2 84.4(3) 4_557 1_555 3_554
C1 Ga1 O2 95.6(3) 4_557 1_555 2_557
C1 Ga1 O1 106.0(5) 4_557 1_555 1_555
C1 Ga1 O1 74.0(5) 4_557 1_555 3_554
C1 Ga1 C1 180.000 1_555 1_555 4_557
C1 Ga1 O3 21.8(4) 1_555 1_555 1_555
C1 Ga1 O3 158.2(4) 1_555 1_555 4_557
C1 Ga1 O2 95.6(3) 1_555 1_555 3_554
C1 Ga1 O2 84.4(3) 1_555 1_555 2_557
C1 Ga1 O1 74.0(5) 1_555 1_555 1_555
C1 Ga1 O1 106.0(5) 1_555 1_555 3_554
C1 Ga1 C1 87.134 2_557 1_555 1_555
C1 Ga1 C1 92.866 2_557 1_555 4_557
C1 Ga1 O3 104.9(4) 2_557 1_555 1_555
C1 Ga1 O3 75.1(4) 2_557 1_555 4_557
C1 Ga1 O2 160.2(5) 2_557 1_555 3_554
C1 Ga1 O2 19.8(5) 2_557 1_555 2_557
C1 Ga1 O1 72.8(5) 2_557 1_555 1_555
C1 Ga1 O1 107.2(5) 2_557 1_555 3_554
C1 Ga1 C1 180.000 3_554 1_555 2_557
C1 Ga1 C1 92.866 3_554 1_555 1_555
C1 Ga1 C1 87.134 3_554 1_555 4_557
C1 Ga1 O3 75.1(4) 3_554 1_555 1_555
C1 Ga1 O3 104.9(4) 3_554 1_555 4_557
C1 Ga1 O2 19.8(5) 3_554 1_555 3_554
C1 Ga1 O2 160.2(5) 3_554 1_555 2_557
C1 Ga1 O1 107.2(5) 3_554 1_555 1_555
C1 Ga1 O1 72.8(5) 3_554 1_555 3_554
O2 Ga1 C1 65.8(2) 4_557 1_555 3_554
O2 Ga1 C1 114.2(2) 4_557 1_555 2_557
O2 Ga1 C1 156.7(2) 4_557 1_555 1_555
O2 Ga1 C1 23.3(2) 4_557 1_555 4_557
O2 Ga1 O3 135.1(5) 4_557 1_555 1_555
O2 Ga1 O3 44.9(5) 4_557 1_555 4_557
O2 Ga1 O2 67.7(5) 4_557 1_555 3_554
O2 Ga1 O2 112.3(5) 4_557 1_555 2_557
O2 Ga1 O1 119.9(7) 4_557 1_555 1_555
O2 Ga1 O1 60.1(7) 4_557 1_555 3_554
O2 Ga1 O2 180.0000000(2) 1_555 1_555 4_557
O2 Ga1 C1 114.2(2) 1_555 1_555 3_554
O2 Ga1 C1 65.8(2) 1_555 1_555 2_557
O2 Ga1 C1 23.3(2) 1_555 1_555 1_555
O2 Ga1 C1 156.7(2) 1_555 1_555 4_557
O2 Ga1 O3 44.9(5) 1_555 1_555 1_555
O2 Ga1 O3 135.1(5) 1_555 1_555 4_557
O2 Ga1 O2 112.3(5) 1_555 1_555 3_554
O2 Ga1 O2 67.7(5) 1_555 1_555 2_557
O2 Ga1 O1 60.1(7) 1_555 1_555 1_555
O2 Ga1 O1 119.9(7) 1_555 1_555 3_554
Ga1 O1 Ga1 120.5(14) 2_557 1_555 1_555
Ow1 O1 Ga1 119.8(7) 5_446 1_555 2_557
Ow1 O1 Ga1 119.8(7) 5_446 1_555 1_555
O2 O1 Ow1 81.4(7) 4_558 1_555 5_446
O2 O1 Ga1 46.0(4) 4_558 1_555 2_557
O2 O1 Ga1 147.5(8) 4_558 1_555 1_555
O2 O1 O2 162.7(14) 3_554 1_555 4_558
O2 O1 Ow1 81.4(7) 3_554 1_555 5_446
O2 O1 Ga1 147.5(8) 3_554 1_555 2_557
O2 O1 Ga1 46.0(4) 3_554 1_555 1_555
O3 O1 O2 65.7(4) 4_557 1_555 3_554
O3 O1 O2 114.6(4) 4_557 1_555 4_558
O3 O1 Ow1 91.0(7) 4_557 1_555 5_446
O3 O1 Ga1 131.9(8) 4_557 1_555 2_557
O3 O1 Ga1 46.8(3) 4_557 1_555 1_555
O3 O1 O3 177.98(5) 3_555 1_555 4_557
O3 O1 O2 114.6(4) 3_555 1_555 3_554
O3 O1 O2 65.7(4) 3_555 1_555 4_558
O3 O1 Ow1 91.0(7) 3_555 1_555 5_446
O3 O1 Ga1 46.8(3) 3_555 1_555 2_557
O3 O1 Ga1 131.9(8) 3_555 1_555 1_555
O2 O1 O3 121.1(10) 2_557 1_555 3_555
O2 O1 O3 56.9(5) 2_557 1_555 4_557
O2 O1 O2 91.1(6) 2_557 1_555 3_554
O2 O1 O2 103.4(7) 2_557 1_555 4_558
O2 O1 Ow1 146.9(4) 2_557 1_555 5_446
O2 O1 Ga1 82.8(9) 2_557 1_555 2_557
O2 O1 Ga1 45.1(6) 2_557 1_555 1_555
O2 O1 O2 66.3(8) 1_555 1_555 2_557
O2 O1 O3 56.9(5) 1_555 1_555 3_555
O2 O1 O3 121.1(10) 1_555 1_555 4_557
O2 O1 O2 103.4(7) 1_555 1_555 3_554
O2 O1 O2 91.1(6) 1_555 1_555 4_558
O2 O1 Ow1 146.9(4) 1_555 1_555 5_446
O2 O1 Ga1 45.1(6) 1_555 1_555 2_557
O2 O1 Ga1 82.8(9) 1_555 1_555 1_555
O3 O1 O2 64.1(7) 2_557 1_555 1_555
O3 O1 O2 47.6(5) 2_557 1_555 2_557
O3 O1 O3 91.9(5) 2_557 1_555 3_555
O3 O1 O3 86.7(5) 2_557 1_555 4_557
O3 O1 O2 138.7(9) 2_557 1_555 3_554
O3 O1 O2 56.5(5) 2_557 1_555 4_558
O3 O1 Ow1 131.6(5) 2_557 1_555 5_446
O3 O1 Ga1 45.2(4) 2_557 1_555 2_557
O3 O1 Ga1 92.7(9) 2_557 1_555 1_555
O3 O1 O3 96.9(10) 1_555 1_555 2_557
O3 O1 O2 47.6(5) 1_555 1_555 1_555
O3 O1 O2 64.1(7) 1_555 1_555 2_557
O3 O1 O3 86.7(5) 1_555 1_555 3_555
O3 O1 O3 91.9(5) 1_555 1_555 4_557
O3 O1 O2 56.5(5) 1_555 1_555 3_554
O3 O1 O2 138.7(9) 1_555 1_555 4_558
O3 O1 Ow1 131.6(5) 1_555 1_555 5_446
O3 O1 Ga1 92.7(9) 1_555 1_555 2_557
O3 O1 Ga1 45.2(4) 1_555 1_555 1_555
C1 O1 O3 85.4(8) 2_557 1_555 1_555
C1 O1 O3 24.9(3) 2_557 1_555 2_557
C1 O1 O2 70.2(7) 2_557 1_555 1_555
C1 O1 O2 24.9(3) 2_557 1_555 2_557
C1 O1 O3 113.3(7) 2_557 1_555 3_555
C1 O1 O3 65.0(4) 2_557 1_555 4_557
C1 O1 O2 114.6(6) 2_557 1_555 3_554
C1 O1 O2 78.8(4) 2_557 1_555 4_558
C1 O1 Ow1 138.1(4) 2_557 1_555 5_446
C1 O1 Ga1 67.6(6) 2_557 1_555 2_557
C1 O1 Ga1 69.0(6) 2_557 1_555 1_555
C1 O1 C1 83.9(7) 1_555 1_555 2_557
C1 O1 O3 24.9(3) 1_555 1_555 1_555
C1 O1 O3 85.4(8) 1_555 1_555 2_557
C1 O1 O2 24.9(3) 1_555 1_555 1_555
C1 O1 O2 70.2(7) 1_555 1_555 2_557
C1 O1 O3 65.0(4) 1_555 1_555 3_555
C1 O1 O3 113.3(7) 1_555 1_555 4_557
C1 O1 O2 78.8(4) 1_555 1_555 3_554
C1 O1 O2 114.6(6) 1_555 1_555 4_558
C1 O1 Ow1 138.1(4) 1_555 1_555 5_446
C1 O1 Ga1 69.0(6) 1_555 1_555 2_557
C1 O1 Ga1 67.6(6) 1_555 1_555 1_555
Ga1 O2 C1 128.3(12) 2_557 1_555 1_555
O3 O2 Ga1 111.1(8) 1_555 1_555 2_557
O3 O2 C1 26.5(4) 1_555 1_555 1_555
C2 O2 O3 61.2(5) 1_555 1_555 1_555
C2 O2 Ga1 139.8(9) 1_555 1_555 2_557
C2 O2 C1 34.7(4) 1_555 1_555 1_555
O3 O2 C2 92.3(6) 3_555 1_555 1_555
O3 O2 O3 102.4(7) 3_555 1_555 1_555
O3 O2 Ga1 49.0(5) 3_555 1_555 2_557
O3 O2 C1 99.0(10) 3_555 1_555 1_555
Ow1 O2 O3 164(2) 5_456 1_555 3_555
Ow1 O2 C2 103(3) 5_456 1_555 1_555
Ow1 O2 O3 87(3) 5_456 1_555 1_555
Ow1 O2 Ga1 116(4) 5_456 1_555 2_557
Ow1 O2 C1 94.9(8) 5_456 1_555 1_555
O1 O2 Ow1 103.5(8) 3_555 1_555 5_456
O1 O2 O3 63.3(7) 3_555 1_555 3_555
O1 O2 C2 134.3(4) 3_555 1_555 1_555
O1 O2 O3 156.0(10) 3_555 1_555 1_555
O1 O2 Ga1 44.9(5) 3_555 1_555 2_557
O1 O2 C1 161.4(11) 3_555 1_555 1_555
O1 O2 O1 88.9(6) 1_555 1_555 3_555
O1 O2 Ow1 113(6) 1_555 1_555 5_456
O1 O2 O3 60.8(6) 1_555 1_555 3_555
O1 O2 C2 113.3(6) 1_555 1_555 1_555
O1 O2 O3 67.0(6) 1_555 1_555 1_555
O1 O2 Ga1 44.0(3) 1_555 1_555 2_557
O1 O2 C1 86.9(8) 1_555 1_555 1_555
C6 O2 O1 133.2(7) 1_555 1_555 1_555
C6 O2 O1 106.0(4) 1_555 1_555 3_555
C6 O2 Ow1 106(5) 1_555 1_555 5_456
C6 O2 O3 86.4(4) 1_555 1_555 3_555
C6 O2 C2 30.28(15) 1_555 1_555 1_555
C6 O2 O3 91.5(5) 1_555 1_555 1_555
C6 O2 Ga1 132.4(6) 1_555 1_555 2_557
C6 O2 C1 65.0(5) 1_555 1_555 1_555
O3 O2 C6 161.9(6) 2_557 1_555 1_555
O3 O2 O1 58.5(5) 2_557 1_555 1_555
O3 O2 O1 57.2(4) 2_557 1_555 3_555
O3 O2 Ow1 74(4) 2_557 1_555 5_456
O3 O2 O3 90.8(6) 2_557 1_555 3_555
O3 O2 C2 167.8(6) 2_557 1_555 1_555
O3 O2 O3 106.6(6) 2_557 1_555 1_555
O3 O2 Ga1 41.9(4) 2_557 1_555 2_557
O3 O2 C1 133.1(8) 2_557 1_555 1_555
O2 O2 O3 44.1(4) 2_557 1_555 2_557
O2 O2 C6 150.7(7) 2_557 1_555 1_555
O2 O2 O1 56.9(4) 2_557 1_555 1_555
O2 O2 O1 101.2(6) 2_557 1_555 3_555
O2 O2 Ow1 56(6) 2_557 1_555 5_456
O2 O2 O3 115.8(4) 2_557 1_555 3_555
O2 O2 C2 124.5(7) 2_557 1_555 1_555
O2 O2 O3 66.3(5) 2_557 1_555 1_555
O2 O2 Ga1 75.5(4) 2_557 1_555 2_557
O2 O2 C1 91.6(7) 2_557 1_555 1_555
Ga1 O2 O2 36.8(3) 1_555 1_555 2_557
Ga1 O2 O3 69.0(4) 1_555 1_555 2_557
Ga1 O2 C6 129.0(5) 1_555 1_555 1_555
Ga1 O2 O1 37.0(3) 1_555 1_555 1_555
Ga1 O2 O1 119.7(6) 1_555 1_555 3_555
Ga1 O2 Ow1 85(5) 1_555 1_555 5_456
Ga1 O2 O3 94.4(6) 1_555 1_555 3_555
Ga1 O2 C2 99.0(4) 1_555 1_555 1_555
Ga1 O2 O3 38.6(4) 1_555 1_555 1_555
Ga1 O2 Ga1 77.3(4) 1_555 1_555 2_557
Ga1 O2 C1 64.6(5) 1_555 1_555 1_555
Ga1 O3 C1 122.1(9) 1_555 1_555 1_555
O2 O3 Ga1 96.5(6) 1_555 1_555 1_555
O2 O3 C1 26.4(5) 1_555 1_555 1_555
C2 O3 O2 61.4(4) 1_555 1_555 1_555
C2 O3 Ga1 154.8(8) 1_555 1_555 1_555
C2 O3 C1 35.0(3) 1_555 1_555 1_555
O2 O3 C2 133.1(7) 3_554 1_555 1_555
O2 O3 O2 124.6(8) 3_554 1_555 1_555
O2 O3 Ga1 48.0(4) 3_554 1_555 1_555
O2 O3 C1 135.6(10) 3_554 1_555 1_555
O1 O3 O2 62.3(7) 3_554 1_555 3_554
O1 O3 C2 158.7(8) 3_554 1_555 1_555
O1 O3 O2 126.5(6) 3_554 1_555 1_555
O1 O3 Ga1 44.8(4) 3_554 1_555 1_555
O1 O3 C1 149.4(9) 3_554 1_555 1_555
C5 O3 O1 138.1(5) 1_555 1_555 3_554
C5 O3 O2 113.4(6) 1_555 1_555 3_554
C5 O3 C2 30.48(15) 1_555 1_555 1_555
C5 O3 O2 91.5(5) 1_555 1_555 1_555
C5 O3 Ga1 160.7(8) 1_555 1_555 1_555
C5 O3 C1 65.2(5) 1_555 1_555 1_555
O1 O3 C5 127.9(5) 1_555 1_555 1_555
O1 O3 O1 88.1(5) 1_555 1_555 3_554
O1 O3 O2 60.2(6) 1_555 1_555 3_554
O1 O3 C2 112.2(5) 1_555 1_555 1_555
O1 O3 O2 65.4(6) 1_555 1_555 1_555
O1 O3 Ga1 43.3(3) 1_555 1_555 1_555
O1 O3 C1 85.2(8) 1_555 1_555 1_555
O2 O3 O1 57.3(5) 2_557 1_555 1_555
O2 O3 C5 156.7(6) 2_557 1_555 1_555
O2 O3 O1 57.1(3) 2_557 1_555 3_554
O2 O3 O2 89.2(6) 2_557 1_555 3_554
O2 O3 C2 127.7(6) 2_557 1_555 1_555
O2 O3 O2 69.6(5) 2_557 1_555 1_555
O2 O3 Ga1 41.1(4) 2_557 1_555 1_555
O2 O3 C1 94.7(7) 2_557 1_555 1_555
C1 O3 O2 105.4(5) 3_554 1_555 2_557
C1 O3 O1 83.8(5) 3_554 1_555 1_555
C1 O3 C5 97.9(4) 3_554 1_555 1_555
C1 O3 O1 61.4(5) 3_554 1_555 3_554
C1 O3 O2 23.8(3) 3_554 1_555 3_554
C1 O3 C2 125.2(5) 3_554 1_555 1_555
C1 O3 O2 146.5(8) 3_554 1_555 1_555
C1 O3 Ga1 66.1(4) 3_554 1_555 1_555
C1 O3 C1 146.6(9) 3_554 1_555 1_555
O3 C1 O2 127.2(8) 1_555 1_555 1_555
C2 C1 O3 116.1(6) 1_555 1_555 1_555
C2 C1 O2 116.7(5) 1_555 1_555 1_555
C6 C1 C2 28.568 1_555 1_555 1_555
C6 C1 O3 144.6(6) 1_555 1_555 1_555
C6 C1 O2 88.2(5) 1_555 1_555 1_555
C5 C1 C6 57.115 1_555 1_555 1_555
C5 C1 C2 28.737 1_555 1_555 1_555
C5 C1 O3 87.8(6) 1_555 1_555 1_555
C5 C1 O2 144.7(5) 1_555 1_555 1_555
Ga1 C1 C5 121.395 1_555 1_555 1_555
Ga1 C1 C6 172.299 1_555 1_555 1_555
Ga1 C1 C2 150.025 1_555 1_555 1_555
Ga1 C1 O3 36.1(6) 1_555 1_555 1_555
Ga1 C1 O2 92.1(6) 1_555 1_555 1_555
Ga1 C1 Ga1 70.699 2_557 1_555 1_555
Ga1 C1 C5 145.754 2_557 1_555 1_555
Ga1 C1 C6 106.251 2_557 1_555 1_555
Ga1 C1 C2 130.601 2_557 1_555 1_555
Ga1 C1 O3 106.1(6) 2_557 1_555 1_555
Ga1 C1 O2 31.9(8) 2_557 1_555 1_555
O1 C1 Ga1 38.13(13) 1_555 1_555 2_557
O1 C1 Ga1 38.40(12) 1_555 1_555 1_555
O1 C1 C5 131.4(3) 1_555 1_555 1_555
O1 C1 C6 135.62(16) 1_555 1_555 1_555
O1 C1 C2 144.0(3) 1_555 1_555 1_555
O1 C1 O3 69.9(7) 1_555 1_555 1_555
O1 C1 O2 68.3(8) 1_555 1_555 1_555
O3 C1 O1 53.6(3) 3_555 1_555 1_555
O3 C1 Ga1 38.7(2) 3_555 1_555 2_557
O3 C1 Ga1 91.6(2) 3_555 1_555 1_555
O3 C1 C5 107.0(2) 3_555 1_555 1_555
O3 C1 C6 82.0(2) 3_555 1_555 1_555
O3 C1 C2 97.2(2) 3_555 1_555 1_555
O3 C1 O3 116.1(5) 3_555 1_555 1_555
O3 C1 O2 57.2(8) 3_555 1_555 1_555
Ow1 C1 O3 118(3) 5_456 1_555 3_555
Ow1 C1 O1 98(6) 5_456 1_555 1_555
Ow1 C1 Ga1 83(5) 5_456 1_555 2_557
Ow1 C1 Ga1 84(5) 5_456 1_555 1_555
Ow1 C1 C5 128(5) 5_456 1_555 1_555
Ow1 C1 C6 103(4) 5_456 1_555 1_555
Ow1 C1 C2 116(6) 5_456 1_555 1_555
Ow1 C1 O3 95(2) 5_456 1_555 1_555
Ow1 C1 O2 61(3) 5_456 1_555 1_555
C5 C2 C6 118.058 1_555 1_555 1_555
C1 C2 C5 120.605 1_555 1_555 1_555
C1 C2 C6 120.753 1_555 1_555 1_555
O3 C2 C1 28.9(3) 1_555 1_555 1_555
O3 C2 C5 92.2(3) 1_555 1_555 1_555
O3 C2 C6 149.6(4) 1_555 1_555 1_555
O2 C2 O3 57.4(5) 1_555 1_555 1_555
O2 C2 C1 28.5(3) 1_555 1_555 1_555
O2 C2 C5 148.4(3) 1_555 1_555 1_555
O2 C2 C6 92.2(3) 1_555 1_555 1_555
C4 C2 O2 121.4(3) 1_555 1_555 1_555
C4 C2 O3 177.0(3) 1_555 1_555 1_555
C4 C2 C1 149.803 1_555 1_555 1_555
C4 C2 C5 88.544 1_555 1_555 1_555
C4 C2 C6 29.517 1_555 1_555 1_555
C3 C2 C4 59.199 1_555 1_555 1_555
C3 C2 O2 170.8(5) 1_555 1_555 1_555
C3 C2 O3 121.5(3) 1_555 1_555 1_555
C3 C2 C1 149.472 1_555 1_555 1_555
C3 C2 C5 29.345 1_555 1_555 1_555
C3 C2 C6 88.714 1_555 1_555 1_555
C3 C2 C3 29.852 8_558 1_555 1_555
C3 C2 C4 29.745 8_558 1_555 1_555
C3 C2 O2 151.0(3) 8_558 1_555 1_555
C3 C2 O3 151.2(3) 8_558 1_555 1_555
C3 C2 C1 176.508 8_558 1_555 1_555
C3 C2 C5 59.075 8_558 1_555 1_555
C3 C2 C6 59.149 8_558 1_555 1_555
C3 C3 C4 123.023 8_558 1_555 8_558
C5 C3 C3 116.904 1_555 1_555 8_558
C5 C3 C4 117.899 1_555 1_555 8_558
C5 C3 C5 148.812 8_558 1_555 1_555
C5 C3 C3 31.908 8_558 1_555 8_558
C5 C3 C4 92.243 8_558 1_555 8_558
C6 C3 C5 61.042 8_558 1_555 8_558
C6 C3 C5 149.444 8_558 1_555 1_555
C6 C3 C3 92.588 8_558 1_555 8_558
C6 C3 C4 31.545 8_558 1_555 8_558
C4 C3 C6 120.642 1_555 1_555 8_558
C4 C3 C5 59.600 1_555 1_555 8_558
C4 C3 C5 89.553 1_555 1_555 1_555
C4 C3 C3 28.432 1_555 1_555 8_558
C4 C3 C4 151.455 1_555 1_555 8_558
C2 C3 C4 60.120 1_555 1_555 1_555
C2 C3 C6 175.560 1_555 1_555 8_558
C2 C3 C5 119.536 1_555 1_555 8_558
C2 C3 C5 29.432 1_555 1_555 1_555
C2 C3 C3 87.707 1_555 1_555 8_558
C2 C3 C4 146.841 1_555 1_555 8_558
C2 C3 C2 150.148 8_558 1_555 1_555
C2 C3 C4 90.226 8_558 1_555 1_555
C2 C3 C6 30.448 8_558 1_555 8_558
C2 C3 C5 30.653 8_558 1_555 8_558
C2 C3 C5 176.518 8_558 1_555 1_555
C2 C3 C3 62.442 8_558 1_555 8_558
C2 C3 C4 61.882 8_558 1_555 8_558
C6 C3 C2 120.244 1_555 1_555 8_558
C6 C3 C2 30.047 1_555 1_555 1_555
C6 C3 C4 30.074 1_555 1_555 1_555
C6 C3 C6 150.540 1_555 1_555 8_558
C6 C3 C5 89.592 1_555 1_555 8_558
C6 C3 C5 59.478 1_555 1_555 1_555
C6 C3 C3 57.952 1_555 1_555 8_558
C6 C3 C4 172.474 1_555 1_555 8_558
C6 C4 C3 117.651 1_555 1_555 8_558
C5 C4 C6 149.118 8_558 1_555 1_555
C5 C4 C3 31.467 8_558 1_555 8_558
C3 C4 C5 59.263 1_555 1_555 8_558
C3 C4 C6 90.177 1_555 1_555 1_555
C3 C4 C3 28.545 1_555 1_555 8_558
C2 C4 C3 60.681 1_555 1_555 1_555
C2 C4 C5 119.759 1_555 1_555 8_558
C2 C4 C6 29.497 1_555 1_555 1_555
C2 C4 C3 88.373 1_555 1_555 8_558
C5 C4 C2 30.381 1_555 1_555 1_555
C5 C4 C3 30.300 1_555 1_555 1_555
C5 C4 C5 89.475 1_555 1_555 8_558
C5 C4 C6 59.877 1_555 1_555 1_555
C5 C4 C3 58.276 1_555 1_555 8_558
C2 C5 C3 121.223 1_555 1_555 1_555
C3 C5 C2 90.272 8_558 1_555 1_555
C3 C5 C3 31.188 8_558 1_555 1_555
C4 C5 C3 61.136 8_558 1_555 8_558
C4 C5 C2 151.296 8_558 1_555 1_555
C4 C5 C3 30.634 8_558 1_555 1_555
C6 C5 C4 120.653 1_555 1_555 8_558
C6 C5 C3 59.517 1_555 1_555 8_558
C6 C5 C2 30.867 1_555 1_555 1_555
C6 C5 C3 90.357 1_555 1_555 1_555
C1 C5 C6 61.329 1_555 1_555 1_555
C1 C5 C4 178.006 1_555 1_555 8_558
C1 C5 C3 120.845 1_555 1_555 8_558
C1 C5 C2 30.658 1_555 1_555 1_555
C1 C5 C3 151.356 1_555 1_555 1_555
O3 C5 C1 26.9(3) 1_555 1_555 1_555
O3 C5 C6 88.2(3) 1_555 1_555 1_555
O3 C5 C4 151.1(3) 1_555 1_555 8_558
O3 C5 C3 147.6(3) 1_555 1_555 8_558
O3 C5 C2 57.3(3) 1_555 1_555 1_555
O3 C5 C3 177.3(2) 1_555 1_555 1_555
C4 C5 O3 118.4(3) 1_555 1_555 1_555
C4 C5 C1 91.464 1_555 1_555 1_555
C4 C5 C6 30.209 1_555 1_555 1_555
C4 C5 C4 90.525 1_555 1_555 8_558
C4 C5 C3 29.481 1_555 1_555 8_558
C4 C5 C2 61.076 1_555 1_555 1_555
C4 C5 C3 60.148 1_555 1_555 1_555
C4 C6 C2 120.986 1_555 1_555 1_555
C3 C6 C4 30.804 8_558 1_555 1_555
C3 C6 C2 90.403 8_558 1_555 1_555
C5 C6 C3 59.441 1_555 1_555 8_558
C5 C6 C4 89.913 1_555 1_555 1_555
C5 C6 C2 31.075 1_555 1_555 1_555
C1 C6 C5 61.556 1_555 1_555 1_555
C1 C6 C3 120.996 1_555 1_555 8_558
C1 C6 C4 151.162 1_555 1_555 1_555
C1 C6 C2 30.679 1_555 1_555 1_555
O2 C6 C1 26.8(3) 1_555 1_555 1_555
O2 C6 C5 88.2(3) 1_555 1_555 1_555
O2 C6 C3 147.6(3) 1_555 1_555 8_558
O2 C6 C4 172.4(4) 1_555 1_555 1_555
O2 C6 C2 57.5(3) 1_555 1_555 1_555
C3 C6 O2 118.1(3) 1_555 1_555 1_555
C3 C6 C1 91.642 1_555 1_555 1_555
C3 C6 C5 30.165 1_555 1_555 1_555
C3 C6 C3 29.460 1_555 1_555 8_558
C3 C6 C4 59.749 1_555 1_555 1_555
C3 C6 C2 61.239 1_555 1_555 1_555
O2 Ow1 O1 146(6) 5_544 1_555 5_554
O2 Ow1 O2 68(11) 6_546 1_555 5_544
O2 Ow1 O1 146(6) 6_546 1_555 5_554
C1 Ow1 O2 69(10) 5_544 1_555 6_546
C1 Ow1 O2 24(3) 5_544 1_555 5_544
C1 Ow1 O1 140(6) 5_544 1_555 5_554
C1 Ow1 C1 80(12) 6_546 1_555 5_544
C1 Ow1 O2 24(3) 6_546 1_555 6_546
C1 Ow1 O2 69(10) 6_546 1_555 5_544
C1 Ow1 O1 140(6) 6_546 1_555 5_554
loop_
_geom_bond_atom_site_label_1
_geom_bond_atom_site_label_2
_geom_bond_distance
_geom_bond_site_symmetry_1
_geom_bond_site_symmetry_2
Ga1 O1 1.929(13) 1_555 3_554
Ga1 O1 1.929(13) 1_555 1_555
Ga1 O2 1.966(16) 1_555 2_557
Ga1 O2 1.966(16) 1_555 3_554
Ga1 O3 1.995(13) 1_555 4_557
Ga1 O3 1.995(13) 1_555 1_555
Ga1 C1 2.87133 1_555 4_557
Ga1 C1 2.87133 1_555 1_555
Ga1 C1 2.91704 1_555 2_557
Ga1 C1 2.91704 1_555 3_554
Ga1 O2 3.176(13) 1_555 4_557
Ga1 O2 3.176(13) 1_555 1_555
O1 Ga1 1.929(13) 1_555 1_555
O1 Ga1 1.929(13) 1_555 2_557
O1 Ow1 2.5(5) 1_555 5_446
O1 O2 2.732(14) 1_555 4_558
O1 O2 2.732(14) 1_555 3_554
O1 O3 2.737(11) 1_555 4_557
O1 O3 2.737(11) 1_555 3_555
O1 O2 2.78(3) 1_555 2_557
O1 O2 2.78(3) 1_555 1_555
O1 O3 2.81(2) 1_555 2_557
O1 O3 2.81(2) 1_555 1_555
O1 C1 2.98(2) 1_555 2_557
O1 C1 2.98(2) 1_555 1_555
O2 C1 1.257(14) 1_555 1_555
O2 Ga1 1.966(16) 1_555 2_557
O2 O3 2.255(19) 1_555 1_555
O2 C2 2.350(13) 1_555 1_555
O2 O3 2.62(2) 1_555 3_555
O2 Ow1 2.7(4) 1_555 5_456
O2 O1 2.732(14) 1_555 3_555
O2 O1 2.78(3) 1_555 1_555
O2 C6 2.784(12) 1_555 1_555
O2 O3 2.966(18) 1_555 2_557
O2 O2 3.04(2) 1_555 2_557
O2 Ga1 3.176(13) 1_555 1_555
O3 C1 1.261(12) 1_555 1_555
O3 Ga1 1.995(13) 1_555 1_555
O3 O2 2.255(19) 1_555 1_555
O3 C2 2.345(11) 1_555 1_555
O3 O2 2.62(2) 1_555 3_554
O3 O1 2.737(11) 1_555 3_554
O3 C5 2.784(12) 1_555 1_555
O3 O1 2.81(2) 1_555 1_555
O3 O2 2.966(18) 1_555 2_557
O3 C1 3.083(15) 1_555 3_554
C1 O2 1.257(14) 1_555 1_555
C1 O3 1.261(12) 1_555 1_555
C1 C2 1.49877 1_555 1_555
C1 C6 2.52438 1_555 1_555
C1 C5 2.52984 1_555 1_555
C1 Ga1 2.87133 1_555 1_555
C1 Ga1 2.91704 1_555 2_557
C1 O1 2.98(2) 1_555 1_555
C1 O3 3.083(15) 1_555 3_555
C1 Ow1 3.1(4) 1_555 5_456
C2 C6 1.40468 1_555 1_555
C2 C5 1.41319 1_555 1_555
C2 C1 1.49877 1_555 1_555
C2 O3 2.345(11) 1_555 1_555
C2 O2 2.350(13) 1_555 1_555
C2 C4 2.44570 1_555 1_555
C2 C3 2.45932 1_555 1_555
C2 C3 2.77185 1_555 8_558
C3 C4 1.37576 1_555 8_558
C3 C3 1.38081 1_555 8_558
C3 C5 1.40936 1_555 1_555
C3 C5 2.37784 1_555 8_558
C3 C6 2.37970 1_555 8_558
C3 C4 2.42278 1_555 1_555
C3 C2 2.45932 1_555 1_555
C3 C2 2.77185 1_555 8_558
C3 C6 2.80471 1_555 1_555
C4 C3 1.37576 1_555 8_558
C4 C6 1.40551 1_555 1_555
C4 C5 2.38611 1_555 8_558
C4 C3 2.42278 1_555 1_555
C4 C2 2.44570 1_555 1_555
C4 C5 2.79336 1_555 1_555
C5 C3 1.40936 1_555 1_555
C5 C2 1.41319 1_555 1_555
C5 C3 2.37784 1_555 8_558
C5 C4 2.38611 1_555 8_558
C5 C6 2.41612 1_555 1_555
C5 C1 2.52984 1_555 1_555
C5 O3 2.784(12) 1_555 1_555
C5 C4 2.79336 1_555 1_555
C6 C2 1.40468 1_555 1_555
C6 C4 1.40551 1_555 1_555
C6 C3 2.37970 1_555 8_558
C6 C5 2.41612 1_555 1_555
C6 C1 2.52438 1_555 1_555
C6 O2 2.784(12) 1_555 1_555
C6 C3 2.80471 1_555 1_555
Ow1 O1 2.5(5) 1_555 5_554
Ow1 O2 2.7(4) 1_555 5_544
Ow1 O2 2.7(4) 1_555 6_546
Ow1 C1 3.1(4) 1_555 5_544
Ow1 C1 3.1(4) 1_555 6_546
loop_
_pd_proc_point_id
_pd_meas_2theta_scan
_pd_proc_intensity_total
_pd_calc_intensity_total
_pd_proc_ls_weight
1 4.99500 22223.51460 21388.00000 0.00005
2 5.01000 22082.97366 21725.00000 0.00005
3 5.02500 21944.52155 21360.00000 0.00005
4 5.04000 21808.13156 21329.00000 0.00005
5 5.05500 21673.77721 21471.00000 0.00005
6 5.07000 21541.43234 21272.00000 0.00005
7 5.08500 21411.07104 20918.00000 0.00005
8 5.10000 21282.66767 21369.00000 0.00005
9 5.11500 21156.19685 21170.00000 0.00005
10 5.13000 21031.63349 20726.00000 0.00005
11 5.14500 20908.95276 21125.00000 0.00005
12 5.16000 20788.13006 20651.00000 0.00005
13 5.17500 20669.14108 20161.00000 0.00005
14 5.19000 20551.96177 20470.00000 0.00005
15 5.20500 20436.56833 20150.00000 0.00005
16 5.22000 20322.93719 20352.00000 0.00005
17 5.23500 20211.04507 20935.00000 0.00005
18 5.25000 20100.86891 19945.00000 0.00005
19 5.26500 19992.38593 20011.00000 0.00005
20 5.28000 19885.57356 19494.00000 0.00005
21 5.29500 19780.40950 19927.00000 0.00005
22 5.31000 19676.87169 19323.00000 0.00005
23 5.32500 19574.93830 19953.00000 0.00005
24 5.34000 19474.58775 19151.00000 0.00005
25 5.35500 19375.79869 19451.00000 0.00005
26 5.37000 19278.55002 19100.00000 0.00005
27 5.38500 19182.82085 18811.00000 0.00005
28 5.40000 19088.59054 19007.00000 0.00005
29 5.41500 18995.83869 18867.00000 0.00005
30 5.43000 18904.54510 18712.00000 0.00005
31 5.44500 18814.68982 19112.00000 0.00005
32 5.46000 18726.25313 18761.00000 0.00005
33 5.47500 18639.21552 18662.00000 0.00005
34 5.49000 18553.55771 18834.00000 0.00005
35 5.50500 18469.26065 18614.00000 0.00005
36 5.52000 18386.30548 18327.00000 0.00005
37 5.53500 18304.67361 18574.00000 0.00005
38 5.55000 18224.34663 18151.00000 0.00006
39 5.56500 18145.30635 18321.00000 0.00005
40 5.58000 18067.53480 18318.00000 0.00005
41 5.59500 17991.01425 18055.00000 0.00006
42 5.61000 17915.72714 18041.00000 0.00006
43 5.62500 17841.65615 17499.00000 0.00006
44 5.64000 17768.78416 18013.00000 0.00006
45 5.65500 17697.09428 17701.00000 0.00006
46 5.67000 17626.56980 18103.00000 0.00006
47 5.68500 17557.19424 17718.00000 0.00006
48 5.70000 17488.95132 17725.00000 0.00006
49 5.71500 17421.82498 17235.00000 0.00006
50 5.73000 17355.79935 17131.00000 0.00006
51 5.74500 17290.85878 16990.00000 0.00006
52 5.76000 17226.98781 17292.00000 0.00006
53 5.77500 17164.17121 17132.00000 0.00006
54 5.79000 17102.39394 17623.00000 0.00006
55 5.80500 17041.64116 17532.00000 0.00006
56 5.82000 16981.89826 16933.00000 0.00006
57 5.83500 16923.15082 17237.00000 0.00006
58 5.85000 16865.38462 17166.00000 0.00006
59 5.86500 16808.58567 16915.00000 0.00006
60 5.88000 16752.74018 16934.00000 0.00006
61 5.89500 16697.83456 16478.00000 0.00006
62 5.91000 16643.85543 16365.00000 0.00006
63 5.92500 16590.78965 17093.00000 0.00006
64 5.94000 16538.62426 16626.00000 0.00006
65 5.95500 16487.34653 16717.00000 0.00006
66 5.97000 16436.94396 16413.00000 0.00006
67 5.98500 16387.40426 16453.00000 0.00006
68 6.00000 16338.71536 16580.00000 0.00006
69 6.01500 16290.86543 16493.00000 0.00006
70 6.03000 16243.84287 16282.00000 0.00006
71 6.04500 16197.63631 16620.00000 0.00006
72 6.06000 16152.23463 16297.00000 0.00006
73 6.07500 16107.62695 16385.00000 0.00006
74 6.09000 16063.80266 16297.00000 0.00006
75 6.10500 16020.75138 16245.00000 0.00006
76 6.12000 15978.46304 15956.00000 0.00006
77 6.13500 15936.92782 16325.00000 0.00006
78 6.15000 15896.13620 16465.00000 0.00006
79 6.16500 15856.07897 15985.00000 0.00006
80 6.18000 15816.74721 16176.00000 0.00006
81 6.19500 15778.13236 16037.00000 0.00006
82 6.21000 15740.22617 15732.00000 0.00006
83 6.22500 15703.02078 15937.00000 0.00006
84 6.24000 15666.50872 15813.00000 0.00006
85 6.25500 15630.68290 15607.00000 0.00006
86 6.27000 15595.53668 16003.00000 0.00006
87 6.28500 15561.06390 15471.00000 0.00006
88 6.30000 15527.25887 15690.00000 0.00006
89 6.31500 15494.11646 15516.00000 0.00006
90 6.33000 15461.63211 15730.00000 0.00006
91 6.34500 15429.80191 15367.00000 0.00007
92 6.36000 15398.62262 15718.00000 0.00006
93 6.37500 15368.09178 15085.00000 0.00007
94 6.39000 15338.20775 15490.00000 0.00006
95 6.40500 15308.96982 15395.00000 0.00006
96 6.42000 15280.37832 15424.00000 0.00006
97 6.43500 15252.43471 15164.00000 0.00007
98 6.45000 15225.14178 15502.00000 0.00006
99 6.46500 15198.50374 15242.00000 0.00007
100 6.48000 15172.52650 15439.00000 0.00006
101 6.49500 15147.21784 15194.00000 0.00007
102 6.51000 15122.58773 15072.00000 0.00007
103 6.52500 15098.64870 15469.00000 0.00006
104 6.54000 15075.41620 15346.00000 0.00007
105 6.55500 15052.90914 15084.00000 0.00007
106 6.57000 15031.15056 15184.00000 0.00007
107 6.58500 15010.16838 14920.00000 0.00007
108 6.60000 14989.99644 14858.00000 0.00007
109 6.61500 14970.67580 15568.00000 0.00006
110 6.63000 14952.25640 15276.00000 0.00007
111 6.64500 14934.79929 15032.00000 0.00007
112 6.66000 14918.37959 14826.00000 0.00007
113 6.67500 14903.09061 15480.00000 0.00006
114 6.69000 14889.04947 15149.00000 0.00007
115 6.70500 14876.40548 15406.00000 0.00006
116 6.72000 14865.35337 15189.00000 0.00007
117 6.73500 14856.16023 15232.00000 0.00007
118 6.75000 14849.23862 15200.00000 0.00007
119 6.76500 14845.36759 15360.00000 0.00007
120 6.78000 14846.28284 15509.00000 0.00006
121 6.79500 14855.88228 15393.00000 0.00006
122 6.81000 14881.86189 15424.00000 0.00006
123 6.82500 14936.57688 15701.00000 0.00006
124 6.84000 15035.14840 15908.00000 0.00006
125 6.85500 15189.66636 15826.00000 0.00006
126 6.87000 15402.44927 15986.00000 0.00006
127 6.88500 15665.84354 16357.00000 0.00006
128 6.90000 15968.57114 16115.00000 0.00006
129 6.91500 16301.36231 16599.00000 0.00006
130 6.93000 16658.98454 16476.00000 0.00006
131 6.94500 17039.65065 17031.00000 0.00006
132 6.96000 17443.63850 17410.00000 0.00006
133 6.97500 17872.26430 17497.00000 0.00006
134 6.99000 18327.40227 17877.00000 0.00006
135 7.00500 18811.33798 17888.00000 0.00006
136 7.02000 19326.76128 18693.00000 0.00005
137 7.03500 19876.81175 19275.00000 0.00005
138 7.05000 20465.15189 19869.00000 0.00005
139 7.06500 21096.06569 20352.00000 0.00005
140 7.08000 21774.58736 20847.00000 0.00005
141 7.09500 22506.66904 21440.00000 0.00005
142 7.11000 23299.40056 22361.00000 0.00004
143 7.12500 24161.30046 23214.00000 0.00004
144 7.14000 25102.70692 24034.00000 0.00004
145 7.15500 26136.31213 24938.00000 0.00004
146 7.17000 27277.90813 26075.00000 0.00004
147 7.18500 28547.45453 27873.00000 0.00004
148 7.20000 29970.65608 29113.00000 0.00003
149 7.21500 31581.39161 30983.00000 0.00003
150 7.23000 33425.68056 32658.00000 0.00003
151 7.24500 35568.73629 34440.00000 0.00003
152 7.26000 38108.84013 37213.00000 0.00003
153 7.27500 41205.90153 40344.00000 0.00002
154 7.29000 45132.89846 44356.00000 0.00002
155 7.30500 50326.43636 51348.00000 0.00002
156 7.32000 57302.49806 57281.00000 0.00002
157 7.33500 66175.67283 68699.00000 0.00001
158 7.35000 75712.49457 81206.00000 0.00001
159 7.36500 82599.30104 84646.00000 0.00001
160 7.38000 82196.86065 74312.00000 0.00001
161 7.39500 71887.69940 70037.00000 0.00001
162 7.41000 55271.21940 61676.00000 0.00002
163 7.42500 39210.46760 43966.00000 0.00002
164 7.44000 27715.93209 24296.00000 0.00004
165 7.45500 21143.47306 17773.00000 0.00006
166 7.47000 17973.40536 16182.00000 0.00006
167 7.48500 16556.46164 15631.00000 0.00006
168 7.50000 15872.15715 14862.00000 0.00007
169 7.51500 15469.26903 14999.00000 0.00007
170 7.53000 15187.38910 14666.00000 0.00007
171 7.54500 14972.20320 14683.00000 0.00007
172 7.56000 14801.36731 14623.00000 0.00007
173 7.57500 14662.55768 14630.00000 0.00007
174 7.59000 14547.70758 14067.00000 0.00007
175 7.60500 14451.18534 14275.00000 0.00007
176 7.62000 14368.95271 14081.00000 0.00007
177 7.63500 14298.17737 14005.00000 0.00007
178 7.65000 14236.17607 14256.00000 0.00007
179 7.66500 14181.37719 13947.00000 0.00007
180 7.68000 14132.57742 14170.00000 0.00007
181 7.69500 14088.74802 13889.00000 0.00007
182 7.71000 14049.07437 14099.00000 0.00007
183 7.72500 14012.90442 13826.00000 0.00007
184 7.74000 13979.71099 14316.00000 0.00007
185 7.75500 13949.06399 13974.00000 0.00007
186 7.77000 13920.60955 13829.00000 0.00007
187 7.78500 13894.05424 13842.00000 0.00007
188 7.80000 13869.15299 13822.00000 0.00007
189 7.81500 13845.69975 13650.00000 0.00007
190 7.83000 13823.52018 13959.00000 0.00007
191 7.84500 13802.46589 13767.00000 0.00007
192 7.86000 13782.40991 13834.00000 0.00007
193 7.87500 13763.24300 14210.00000 0.00007
194 7.89000 13744.87075 13815.00000 0.00007
195 7.90500 13727.21116 14012.00000 0.00007
196 7.92000 13710.19274 14033.00000 0.00007
197 7.93500 13693.75284 13714.00000 0.00007
198 7.95000 13677.83642 13911.00000 0.00007
199 7.96500 13662.39487 13543.00000 0.00007
200 7.98000 13647.38517 13748.00000 0.00007
201 7.99500 13632.76908 13979.00000 0.00007
202 8.01000 13618.51250 13512.00000 0.00007
203 8.02500 13604.58495 13591.00000 0.00007
204 8.04000 13590.95909 13468.00000 0.00007
205 8.05500 13577.61034 13531.00000 0.00007
206 8.07000 13564.51652 13636.00000 0.00007
207 8.08500 13551.65758 13835.00000 0.00007
208 8.10000 13539.01535 13688.00000 0.00007
209 8.11500 13526.57332 13635.00000 0.00007
210 8.13000 13514.31646 13805.00000 0.00007
211 8.14500 13502.23104 13517.00000 0.00007
212 8.16000 13490.30452 13471.00000 0.00007
213 8.17500 13478.52539 13543.00000 0.00007
214 8.19000 13466.88311 13387.00000 0.00007
215 8.20500 13455.36796 13703.00000 0.00007
216 8.22000 13443.97099 13301.00000 0.00008
217 8.23500 13432.68395 13439.00000 0.00007
218 8.25000 13421.49920 13646.00000 0.00007
219 8.26500 13410.40966 13503.00000 0.00007
220 8.28000 13399.40878 13208.00000 0.00008
221 8.29500 13388.49047 13454.00000 0.00007
222 8.31000 13377.64907 13449.00000 0.00007
223 8.32500 13366.87930 13319.00000 0.00008
224 8.34000 13356.17625 13858.00000 0.00007
225 8.35500 13345.53533 13343.00000 0.00007
226 8.37000 13334.95226 13243.00000 0.00008
227 8.38500 13324.42302 13080.00000 0.00008
228 8.40000 13313.94385 13552.00000 0.00007
229 8.41500 13303.51125 13174.00000 0.00008
230 8.43000 13293.12191 13635.00000 0.00007
231 8.44500 13282.77272 13342.00000 0.00007
232 8.46000 13272.46079 13273.00000 0.00008
233 8.47500 13262.18337 13155.00000 0.00008
234 8.49000 13251.93790 13252.00000 0.00008
235 8.50500 13241.72194 13080.00000 0.00008
236 8.52000 13231.53323 13306.00000 0.00008
237 8.53500 13221.36960 13284.00000 0.00008
238 8.55000 13211.22903 13326.00000 0.00008
239 8.56500 13201.10963 13428.00000 0.00007
240 8.58000 13191.00957 13268.00000 0.00008
241 8.59500 13180.92717 13513.00000 0.00007
242 8.61000 13170.86082 13079.00000 0.00008
243 8.62500 13160.80901 13159.00000 0.00008
244 8.64000 13150.77032 13161.00000 0.00008
245 8.65500 13140.74339 13049.00000 0.00008
246 8.67000 13130.72696 13093.00000 0.00008
247 8.68500 13120.71983 13256.00000 0.00008
248 8.70000 13110.72087 13264.00000 0.00008
249 8.71500 13100.72901 13205.00000 0.00008
250 8.73000 13090.74325 12945.00000 0.00008
251 8.74500 13080.76265 13178.00000 0.00008
252 8.76000 13070.78632 13296.00000 0.00008
253 8.77500 13060.81422 13161.00000 0.00008
254 8.79000 13050.84650 13181.00000 0.00008
255 8.80500 13040.88259 13157.00000 0.00008
256 8.82000 13030.92203 12996.00000 0.00008
257 8.83500 13020.96440 13000.00000 0.00008
258 8.85000 13011.00939 13009.00000 0.00008
259 8.86500 13001.05678 13026.00000 0.00008
260 8.88000 12991.10649 12856.00000 0.00008
261 8.89500 12981.15858 12928.00000 0.00008
262 8.91000 12971.21330 12971.00000 0.00008
263 8.92500 12961.27118 12791.00000 0.00008
264 8.94000 12951.33314 13179.00000 0.00008
265 8.95500 12941.40072 12899.00000 0.00008
266 8.97000 12931.47657 12856.00000 0.00008
267 8.98500 12921.56550 13057.00000 0.00008
268 9.00000 12911.67776 12795.00000 0.00008
269 9.01500 12901.84398 12850.00000 0.00008
270 9.03000 12892.22501 13031.00000 0.00008
271 9.04500 12882.22404 12759.00000 0.00008
272 9.06000 12872.21810 12750.00000 0.00008
273 9.07500 12862.20705 12835.00000 0.00008
274 9.09000 12852.19076 12889.00000 0.00008
275 9.10500 12842.16913 12586.00000 0.00008
276 9.12000 12832.14207 12996.00000 0.00008
277 9.13500 12822.10952 13043.00000 0.00008
278 9.15000 12812.07142 12686.00000 0.00008
279 9.16500 12802.02776 12722.00000 0.00008
280 9.18000 12791.97852 12706.00000 0.00008
281 9.19500 12781.92372 12718.00000 0.00008
282 9.21000 12771.86336 12841.00000 0.00008
283 9.22500 12761.79751 12682.00000 0.00008
284 9.24000 12751.72621 12751.00000 0.00008
285 9.25500 12741.64953 12821.00000 0.00008
286 9.27000 12731.56757 12788.00000 0.00008
287 9.28500 12721.48042 12873.00000 0.00008
288 9.30000 12711.38820 13033.00000 0.00008
289 9.31500 12701.29103 12672.00000 0.00008
290 9.33000 12691.18906 12544.00000 0.00008
291 9.34500 12681.08244 12477.00000 0.00008
292 9.36000 12670.97133 12638.00000 0.00008
293 9.37500 12660.85591 12983.00000 0.00008
294 9.39000 12650.73638 12670.00000 0.00008
295 9.40500 12640.61292 12574.00000 0.00008
296 9.42000 12630.48575 12323.00000 0.00008
297 9.43500 12620.35508 12341.00000 0.00008
298 9.45000 12610.22116 12476.00000 0.00008
299 9.46500 12600.08421 12714.00000 0.00008
300 9.48000 12589.94449 12610.00000 0.00008
301 9.49500 12579.80226 12599.00000 0.00008
302 9.51000 12569.65777 12578.00000 0.00008
303 9.52500 12559.51131 12660.00000 0.00008
304 9.54000 12549.36316 12436.00000 0.00008
305 9.55500 12539.21360 12798.00000 0.00008
306 9.57000 12529.06294 12450.00000 0.00008
307 9.58500 12518.91149 12698.00000 0.00008
308 9.60000 12508.75955 12537.00000 0.00008
309 9.61500 12498.60745 12359.00000 0.00008
310 9.63000 12488.45550 12373.00000 0.00008
311 9.64500 12478.30405 12598.00000 0.00008
312 9.66000 12468.15343 12386.00000 0.00008
313 9.67500 12458.00399 12268.00000 0.00008
314 9.69000 12447.85608 12515.00000 0.00008
315 9.70500 12437.71004 12383.00000 0.00008
316 9.72000 12427.56625 12557.00000 0.00008
317 9.73500 12417.42507 12411.00000 0.00008
318 9.75000 12407.28687 12498.00000 0.00008
319 9.76500 12397.15203 12236.00000 0.00008
320 9.78000 12387.02092 12171.00000 0.00008
321 9.79500 12376.89393 12667.00000 0.00008
322 9.81000 12366.77145 12483.00000 0.00008
323 9.82500 12356.65387 12188.00000 0.00008
324 9.84000 12346.54158 12227.00000 0.00008
325 9.85500 12336.43500 12387.00000 0.00008
326 9.87000 12326.33451 12310.00000 0.00008
327 9.88500 12316.24054 12287.00000 0.00008
328 9.90000 12306.15347 12214.00000 0.00008
329 9.91500 12296.07374 12138.00000 0.00008
330 9.93000 12286.00176 12257.00000 0.00008
331 9.94500 12275.93794 12270.00000 0.00008
332 9.96000 12265.88271 12386.00000 0.00008
333 9.97500 12255.83648 12537.00000 0.00008
334 9.99000 12245.79969 12205.00000 0.00008
335 10.00500 12235.77276 11980.00000 0.00008
336 10.02000 12225.75613 12367.00000 0.00008
337 10.03500 12215.75022 11925.00000 0.00008
338 10.05000 12205.75547 12162.00000 0.00008
339 10.06500 12195.77231 12280.00000 0.00008
340 10.08000 12185.80079 11996.00000 0.00008
341 10.09500 12175.84003 12101.00000 0.00008
342 10.11000 12165.89028 11786.00000 0.00008
343 10.12500 12155.95192 12094.00000 0.00008
344 10.14000 12146.02531 12305.00000 0.00008
345 10.15500 12136.11082 12432.00000 0.00008
346 10.17000 12126.20880 12164.00000 0.00008
347 10.18500 12116.31991 12237.00000 0.00008
348 10.20000 12106.44521 12118.00000 0.00008
349 10.21500 12096.58518 12132.00000 0.00008
350 10.23000 12086.74028 11986.00000 0.00008
351 10.24500 12076.91100 12017.00000 0.00008
352 10.26000 12067.09782 11854.00000 0.00008
353 10.27500 12057.30131 12083.00000 0.00008
354 10.29000 12047.52204 12000.00000 0.00008
355 10.30500 12037.76071 11872.00000 0.00008
356 10.32000 12028.01815 11927.00000 0.00008
357 10.33500 12018.29544 11964.00000 0.00008
358 10.35000 12008.59408 11689.00000 0.00009
359 10.36500 11998.91654 12136.00000 0.00008
360 10.38000 11989.26753 11611.00000 0.00009
361 10.39500 11979.65964 12015.00000 0.00008
362 10.41000 11970.18328 12051.00000 0.00008
363 10.42500 11960.55504 12031.00000 0.00008
364 10.44000 11950.92053 11751.00000 0.00009
365 10.45500 11941.30012 11712.00000 0.00009
366 10.47000 11931.69288 11767.00000 0.00008
367 10.48500 11922.09752 11711.00000 0.00009
368 10.50000 11912.51221 12147.00000 0.00008
369 10.51500 11902.93433 11889.00000 0.00008
370 10.53000 11893.35999 11901.00000 0.00008
371 10.54500 11883.78321 11980.00000 0.00008
372 10.56000 11874.19417 11869.00000 0.00008
373 10.57500 11864.57490 11651.00000 0.00009
374 10.59000 11854.88599 11905.00000 0.00008
375 10.60500 11844.99209 11597.00000 0.00009
376 10.62000 11834.67079 12089.00000 0.00008
377 10.63500 11825.50079 11632.00000 0.00009
378 10.65000 11816.35922 11645.00000 0.00009
379 10.66500 11807.24653 12160.00000 0.00008
380 10.68000 11798.16316 11953.00000 0.00008
381 10.69500 11789.10956 11507.00000 0.00009
382 10.71000 11780.08618 11984.00000 0.00008
383 10.72500 11771.09346 11710.00000 0.00009
384 10.74000 11762.13185 11909.00000 0.00008
385 10.75500 11753.20179 11779.00000 0.00008
386 10.77000 11744.30372 11596.00000 0.00009
387 10.78500 11735.43808 11659.00000 0.00009
388 10.80000 11726.60532 11507.00000 0.00009
389 10.81500 11717.80588 11771.00000 0.00008
390 10.83000 11709.04020 11603.00000 0.00009
391 10.84500 11700.30871 11836.00000 0.00008
392 10.86000 11691.61186 11418.00000 0.00009
393 10.87500 11682.95009 11661.00000 0.00009
394 10.89000 11674.32384 11496.00000 0.00009
395 10.90500 11665.73354 11410.00000 0.00009
396 10.92000 11657.17964 11569.00000 0.00009
397 10.93500 11648.66258 11780.00000 0.00008
398 10.95000 11640.18279 11379.00000 0.00009
399 10.96500 11631.74073 11498.00000 0.00009
400 10.98000 11623.33682 11672.00000 0.00009
401 10.99500 11614.97151 11486.00000 0.00009
402 11.01000 11606.64524 11802.00000 0.00008
403 11.02500 11598.35846 11566.00000 0.00009
404 11.04000 11590.11162 11278.00000 0.00009
405 11.05500 11581.90515 11511.00000 0.00009
406 11.07000 11573.73952 11718.00000 0.00009
407 11.08500 11565.61516 11504.00000 0.00009
408 11.10000 11557.53254 11638.00000 0.00009
409 11.11500 11549.49211 11390.00000 0.00009
410 11.13000 11541.49433 11432.00000 0.00009
411 11.14500 11533.53966 11271.00000 0.00009
412 11.16000 11525.62856 11388.00000 0.00009
413 11.17500 11517.76151 11238.00000 0.00009
414 11.19000 11509.93898 11416.00000 0.00009
415 11.20500 11502.16144 11367.00000 0.00009
416 11.22000 11494.42939 11557.00000 0.00009
417 11.23500 11486.74330 11386.00000 0.00009
418 11.25000 11479.10368 11479.00000 0.00009
419 11.26500 11471.51103 11420.00000 0.00009
420 11.28000 11463.96585 11680.00000 0.00009
421 11.29500 11456.46867 11474.00000 0.00009
422 11.31000 11449.02001 11434.00000 0.00009
423 11.32500 11441.62043 11738.00000 0.00009
424 11.34000 11434.27157 11373.00000 0.00009
425 11.35500 11426.97479 11653.00000 0.00009
426 11.37000 11419.73090 11266.00000 0.00009
427 11.38500 11412.54079 11340.00000 0.00009
428 11.40000 11405.40543 11306.00000 0.00009
429 11.41500 11398.32592 11215.00000 0.00009
430 11.43000 11391.30352 11379.00000 0.00009
431 11.44500 11384.33974 11594.00000 0.00009
432 11.46000 11377.43646 11296.00000 0.00009
433 11.47500 11370.59623 11528.00000 0.00009
434 11.49000 11363.82277 11180.00000 0.00009
435 11.50500 11357.12249 11249.00000 0.00009
436 11.52000 11350.50975 11199.00000 0.00009
437 11.53500 11344.05782 11779.00000 0.00008
438 11.55000 11337.62555 11427.00000 0.00009
439 11.56500 11331.09822 11173.00000 0.00009
440 11.58000 11324.63152 11282.00000 0.00009
441 11.59500 11318.22636 11285.00000 0.00009
442 11.61000 11311.88368 11335.00000 0.00009
443 11.62500 11305.60449 11374.00000 0.00009
444 11.64000 11299.38982 10999.00000 0.00009
445 11.65500 11293.24077 11172.00000 0.00009
446 11.67000 11287.15849 11466.00000 0.00009
447 11.68500 11281.14417 11145.00000 0.00009
448 11.70000 11275.19910 11371.00000 0.00009
449 11.71500 11269.32462 11308.00000 0.00009
450 11.73000 11263.52213 11018.00000 0.00009
451 11.74500 11257.79314 11323.00000 0.00009
452 11.76000 11252.13923 11118.00000 0.00009
453 11.77500 11246.56211 11111.00000 0.00009
454 11.79000 11241.06354 11359.00000 0.00009
455 11.80500 11235.64545 11168.00000 0.00009
456 11.82000 11230.30986 11368.00000 0.00009
457 11.83500 11225.05894 11002.00000 0.00009
458 11.85000 11219.89503 11160.00000 0.00009
459 11.86500 11214.82059 11205.00000 0.00009
460 11.88000 11209.83831 11265.00000 0.00009
461 11.89500 11204.95104 11101.00000 0.00009
462 11.91000 11200.16187 11192.00000 0.00009
463 11.92500 11195.47412 10965.00000 0.00009
464 11.94000 11190.89138 11226.00000 0.00009
465 11.95500 11186.41752 11111.00000 0.00009
466 11.97000 11182.05676 11239.00000 0.00009
467 11.98500 11177.81363 10995.00000 0.00009
468 12.00000 11173.69311 11266.00000 0.00009
469 12.01500 11169.70057 11247.00000 0.00009
470 12.03000 11165.84191 11067.00000 0.00009
471 12.04500 11162.12356 11344.00000 0.00009
472 12.06000 11158.55255 11202.00000 0.00009
473 12.07500 11155.13660 11052.00000 0.00009
474 12.09000 11151.88421 11183.00000 0.00009
475 12.10500 11148.80474 10967.00000 0.00009
476 12.12000 11145.90850 11099.00000 0.00009
477 12.13500 11143.20694 11234.00000 0.00009
478 12.15000 11140.71274 11278.00000 0.00009
479 12.16500 11138.43999 11094.00000 0.00009
480 12.18000 11136.40443 10837.00000 0.00009
481 12.19500 11134.62364 10886.00000 0.00009
482 12.21000 11133.11734 10999.00000 0.00009
483 12.22500 11131.90769 11290.00000 0.00009
484 12.24000 11131.01974 11090.00000 0.00009
485 12.25500 11130.48180 11075.00000 0.00009
486 12.27000 11130.32606 11258.00000 0.00009
487 12.28500 11130.58924 11067.00000 0.00009
488 12.30000 11131.31339 10992.00000 0.00009
489 12.31500 11132.54685 11443.00000 0.00009
490 12.33000 11134.34553 11224.00000 0.00009
491 12.34500 11136.77434 11238.00000 0.00009
492 12.36000 11139.90911 11433.00000 0.00009
493 12.37500 11143.83897 11374.00000 0.00009
494 12.39000 11148.66956 11236.00000 0.00009
495 12.40500 11154.52749 11230.00000 0.00009
496 12.42000 11161.56749 11110.00000 0.00009
497 12.43500 11169.98440 11227.00000 0.00009
498 12.45000 11180.03659 10981.00000 0.00009
499 12.46500 11192.09118 11561.00000 0.00009
500 12.48000 11206.70889 11562.00000 0.00009
501 12.49500 11224.79135 11716.00000 0.00009
502 12.51000 11247.81141 11711.00000 0.00009
503 12.52500 11278.12706 11561.00000 0.00009
504 12.54000 11319.33919 11997.00000 0.00008
505 12.55500 11376.59861 11826.00000 0.00008
506 12.57000 11456.72457 12287.00000 0.00008
507 12.58500 11567.98941 12316.00000 0.00008
508 12.60000 11719.46504 12369.00000 0.00008
509 12.61500 11919.84233 12885.00000 0.00008
510 12.63000 12176.22698 12816.00000 0.00008
511 12.64500 12493.25066 13363.00000 0.00007
512 12.66000 12873.47542 14007.00000 0.00007
513 12.67500 13318.75132 14486.00000 0.00007
514 12.69000 13831.88710 15070.00000 0.00007
515 12.70500 14418.30173 16113.00000 0.00006
516 12.72000 15087.70689 16573.00000 0.00006
517 12.73500 15856.01663 17828.00000 0.00006
518 12.75000 16747.58455 19184.00000 0.00005
519 12.76500 17797.35410 19716.00000 0.00005
520 12.78000 19051.36523 21444.00000 0.00005
521 12.79500 20562.44464 22748.00000 0.00004
522 12.81000 22376.75779 24174.00000 0.00004
523 12.82500 24508.03708 26131.00000 0.00004
524 12.84000 26901.39759 27558.00000 0.00004
525 12.85500 29397.03609 29054.00000 0.00003
526 12.87000 31711.05432 29331.00000 0.00003
527 12.88500 33450.45218 30710.00000 0.00003
528 12.90000 34175.55971 30512.00000 0.00003
529 12.91500 33531.13862 30442.00000 0.00003
530 12.93000 31451.89656 28676.00000 0.00003
531 12.94500 28295.61181 27694.00000 0.00004
532 12.96000 24685.15805 25948.00000 0.00004
533 12.97500 21201.32098 23961.00000 0.00004
534 12.99000 18220.19658 22123.00000 0.00005
535 13.00500 15903.74352 20622.00000 0.00005
536 13.02000 14247.50690 18420.00000 0.00005
537 13.03500 13144.97868 17003.00000 0.00006
538 13.05000 12450.75073 15904.00000 0.00006
539 13.06500 12027.22247 14497.00000 0.00007
540 13.08000 11768.18977 14075.00000 0.00007
541 13.09500 11602.96067 13525.00000 0.00007
542 13.11000 11489.66620 12454.00000 0.00008
543 13.12500 11405.63226 12375.00000 0.00008
544 13.14000 11339.24132 11894.00000 0.00008
545 13.15500 11284.57655 11748.00000 0.00009
546 13.17000 11238.44782 11809.00000 0.00008
547 13.18500 11198.93793 11627.00000 0.00009
548 13.20000 11164.75248 11386.00000 0.00009
549 13.21500 11134.93969 11216.00000 0.00009
550 13.23000 11108.76451 11159.00000 0.00009
551 13.24500 11085.64437 11067.00000 0.00009
552 13.26000 11065.11074 11357.00000 0.00009
553 13.27500 11046.78277 10971.00000 0.00009
554 13.29000 11030.34842 11098.00000 0.00009
555 13.30500 11015.55003 11025.00000 0.00009
556 13.32000 11002.17342 10782.00000 0.00009
557 13.33500 10990.03936 11074.00000 0.00009
558 13.35000 10978.99702 10910.00000 0.00009
559 13.36500 10968.91873 10797.00000 0.00009
560 13.38000 10959.69588 10808.00000 0.00009
561 13.39500 10951.23559 10952.00000 0.00009
562 13.41000 10943.45812 10679.00000 0.00009
563 13.42500 10936.29467 10964.00000 0.00009
564 13.44000 10929.68569 11014.00000 0.00009
565 13.45500 10923.57939 10816.00000 0.00009
566 13.47000 10917.93063 10853.00000 0.00009
567 13.48500 10912.69990 10656.00000 0.00009
568 13.50000 10907.85254 10870.00000 0.00009
569 13.51500 10903.35805 11112.00000 0.00009
570 13.53000 10899.18952 10990.00000 0.00009
571 13.54500 10895.32320 10764.00000 0.00009
572 13.56000 10891.73801 10835.00000 0.00009
573 13.57500 10888.41530 10748.00000 0.00009
574 13.59000 10885.33847 10787.00000 0.00009
575 13.60500 10882.49280 11078.00000 0.00009
576 13.62000 10879.86519 10735.00000 0.00009
577 13.63500 10877.44397 10863.00000 0.00009
578 13.65000 10875.21880 10808.00000 0.00009
579 13.66500 10873.18050 10779.00000 0.00009
580 13.68000 10871.32091 10615.00000 0.00009
581 13.69500 10869.63287 10723.00000 0.00009
582 13.71000 10868.11004 10788.00000 0.00009
583 13.72500 10866.74692 10670.00000 0.00009
584 13.74000 10865.53873 10817.00000 0.00009
585 13.75500 10864.48135 10742.00000 0.00009
586 13.77000 10863.57134 11196.00000 0.00009
587 13.78500 10862.80585 10894.00000 0.00009
588 13.80000 10862.18261 10665.00000 0.00009
589 13.81500 10861.69990 10818.00000 0.00009
590 13.83000 10861.35657 10499.00000 0.00010
591 13.84500 10861.15196 10733.00000 0.00009
592 13.86000 10861.08597 10881.00000 0.00009
593 13.87500 10861.15902 10882.00000 0.00009
594 13.89000 10861.37208 10467.00000 0.00010
595 13.90500 10861.72664 10557.00000 0.00009
596 13.92000 10862.22478 10708.00000 0.00009
597 13.93500 10862.86918 10673.00000 0.00009
598 13.95000 10863.66313 10820.00000 0.00009
599 13.96500 10864.61060 10685.00000 0.00009
600 13.98000 10865.71627 10717.00000 0.00009
601 13.99500 10866.98557 10565.00000 0.00009
602 14.01000 10868.42480 10611.00000 0.00009
603 14.02500 10870.04116 10488.00000 0.00010
604 14.04000 10871.84286 10765.00000 0.00009
605 14.05500 10873.83922 10532.00000 0.00009
606 14.07000 10876.04080 10825.00000 0.00009
607 14.08500 10878.45959 10809.00000 0.00009
608 14.10000 10881.10908 10605.00000 0.00009
609 14.11500 10884.00456 10678.00000 0.00009
610 14.13000 10887.16332 10644.00000 0.00009
611 14.14500 10890.60490 10482.00000 0.00010
612 14.16000 10894.35147 10568.00000 0.00009
613 14.17500 10898.42818 10485.00000 0.00010
614 14.19000 10902.86361 10554.00000 0.00009
615 14.20500 10907.69037 10806.00000 0.00009
616 14.22000 10912.94569 10674.00000 0.00009
617 14.23500 10918.67226 10708.00000 0.00009
618 14.25000 10924.91917 10383.00000 0.00010
619 14.26500 10931.74308 10574.00000 0.00009
620 14.28000 10939.20965 10462.00000 0.00010
621 14.29500 10947.39529 10960.00000 0.00009
622 14.31000 10956.38943 10771.00000 0.00009
623 14.32500 10966.29737 10957.00000 0.00009
624 14.34000 10977.24420 10484.00000 0.00010
625 14.35500 10989.38047 10695.00000 0.00009
626 14.37000 11002.89136 10759.00000 0.00009
627 14.38500 11018.01245 10663.00000 0.00009
628 14.40000 11035.05848 10698.00000 0.00009
629 14.41500 11054.47516 10701.00000 0.00009
630 14.43000 11076.92921 10736.00000 0.00009
631 14.44500 11103.45428 10765.00000 0.00009
632 14.46000 11135.66699 10969.00000 0.00009
633 14.47500 11176.05324 10857.00000 0.00009
634 14.49000 11228.29754 10651.00000 0.00009
635 14.50500 11297.59346 10944.00000 0.00009
636 14.52000 11390.84355 11008.00000 0.00009
637 14.53500 11516.64795 10929.00000 0.00009
638 14.55000 11684.99554 11304.00000 0.00009
639 14.56500 11906.61337 11281.00000 0.00009
640 14.58000 12192.04711 11568.00000 0.00009
641 14.59500 12550.84266 11572.00000 0.00009
642 14.61000 12991.50437 11954.00000 0.00008
643 14.62500 13522.65955 12434.00000 0.00008
644 14.64000 14155.17209 12925.00000 0.00008
645 14.65500 14904.60177 13271.00000 0.00008
646 14.67000 15793.33373 14005.00000 0.00007
647 14.68500 16851.34775 14797.00000 0.00007
648 14.70000 18113.95496 15956.00000 0.00006
649 14.71500 19614.39038 17044.00000 0.00006
650 14.73000 21369.64970 18734.00000 0.00005
651 14.74500 23360.05330 20478.00000 0.00005
652 14.76000 25506.60666 23205.00000 0.00004
653 14.77500 27653.79039 26980.00000 0.00004
654 14.79000 29566.53449 31548.00000 0.00003
655 14.80500 30948.31327 38223.00000 0.00003
656 14.82000 31487.99461 40797.00000 0.00002
657 14.83500 30950.67984 37895.00000 0.00003
658 14.85000 29308.85015 36093.00000 0.00003
659 14.86500 26816.52199 32507.00000 0.00003
660 14.88000 23908.33344 25326.00000 0.00004
661 14.89500 21007.91054 17986.00000 0.00006
662 14.91000 18414.70896 13474.00000 0.00007
663 14.92500 16287.02090 12350.00000 0.00008
664 14.94000 14665.09140 11078.00000 0.00009
665 14.95500 13506.13298 11105.00000 0.00009
666 14.97000 12722.12247 11073.00000 0.00009
667 14.98500 12213.10710 11200.00000 0.00009
668 15.00000 11889.45992 10874.00000 0.00009
669 15.01500 11682.50046 10977.00000 0.00009
670 15.03000 11545.43975 10712.00000 0.00009
671 15.04500 11449.29418 10752.00000 0.00009
672 15.06000 11377.40254 10850.00000 0.00009
673 15.07500 11320.64098 10915.00000 0.00009
674 15.09000 11274.07496 10732.00000 0.00009
675 15.10500 11234.94284 10967.00000 0.00009
676 15.12000 11201.57251 10916.00000 0.00009
677 15.13500 11172.84699 10747.00000 0.00009
678 15.15000 11147.95378 10954.00000 0.00009
679 15.16500 11126.26727 10930.00000 0.00009
680 15.18000 11107.28968 10515.00000 0.00010
681 15.19500 11090.61760 10734.00000 0.00009
682 15.21000 11075.92037 10751.00000 0.00009
683 15.22500 11062.92454 10464.00000 0.00010
684 15.24000 11051.40251 10935.00000 0.00009
685 15.25500 11041.16358 10619.00000 0.00009
686 15.27000 11032.04704 10904.00000 0.00009
687 15.28500 11023.91671 10603.00000 0.00009
688 15.30000 11016.65660 10829.00000 0.00009
689 15.31500 11010.16745 10724.00000 0.00009
690 15.33000 11004.36392 10903.00000 0.00009
691 15.34500 10999.17233 10713.00000 0.00009
692 15.36000 10994.52884 10707.00000 0.00009
693 15.37500 10990.37786 10834.00000 0.00009
694 15.39000 10986.67091 10711.00000 0.00009
695 15.40500 10983.36550 10754.00000 0.00009
696 15.42000 10980.42429 10731.00000 0.00009
697 15.43500 10977.81441 10577.00000 0.00009
698 15.45000 10975.50681 10678.00000 0.00009
699 15.46500 10973.47576 11026.00000 0.00009
700 15.48000 10971.69847 10970.00000 0.00009
701 15.49500 10970.15465 10823.00000 0.00009
702 15.51000 10968.82624 11064.00000 0.00009
703 15.52500 10967.69716 10583.00000 0.00009
704 15.54000 10966.75306 10776.00000 0.00009
705 15.55500 10965.98112 10647.00000 0.00009
706 15.57000 10965.36992 10797.00000 0.00009
707 15.58500 10964.90925 11067.00000 0.00009
708 15.60000 10964.59002 10841.00000 0.00009
709 15.61500 10964.40414 10768.00000 0.00009
710 15.63000 10964.34444 10635.00000 0.00009
711 15.64500 10964.40457 10990.00000 0.00009
712 15.66000 10964.57897 10768.00000 0.00009
713 15.67500 10964.86279 10947.00000 0.00009
714 15.69000 10965.25187 10802.00000 0.00009
715 15.70500 10965.74272 10995.00000 0.00009
716 15.72000 10966.33279 10928.00000 0.00009
717 15.73500 10967.01800 10869.00000 0.00009
718 15.75000 10967.79756 10793.00000 0.00009
719 15.76500 10968.67015 10861.00000 0.00009
720 15.78000 10969.63499 10799.00000 0.00009
721 15.79500 10970.69183 11083.00000 0.00009
722 15.81000 10971.84098 11035.00000 0.00009
723 15.82500 10973.08328 10667.00000 0.00009
724 15.84000 10974.42017 10939.00000 0.00009
725 15.85500 10975.85366 11112.00000 0.00009
726 15.87000 10977.38644 10927.00000 0.00009
727 15.88500 10979.02185 10730.00000 0.00009
728 15.90000 10980.76396 11017.00000 0.00009
729 15.91500 10982.61766 10883.00000 0.00009
730 15.93000 10984.58871 11203.00000 0.00009
731 15.94500 10986.68380 10872.00000 0.00009
732 15.96000 10988.91079 10943.00000 0.00009
733 15.97500 10991.27894 10613.00000 0.00009
734 15.99000 10993.79871 10852.00000 0.00009
735 16.00500 10996.48208 10924.00000 0.00009
736 16.02000 10999.34277 11031.00000 0.00009
737 16.03500 11002.39659 10936.00000 0.00009
738 16.05000 11005.66171 10992.00000 0.00009
739 16.06500 11009.15912 10911.00000 0.00009
740 16.08000 11012.91327 10999.00000 0.00009
741 16.09500 11016.95325 11053.00000 0.00009
742 16.11000 11021.31984 11063.00000 0.00009
743 16.12500 11026.03339 10912.00000 0.00009
744 16.14000 11031.11883 11251.00000 0.00009
745 16.15500 11036.64694 11177.00000 0.00009
746 16.17000 11042.67634 11114.00000 0.00009
747 16.18500 11049.27650 11229.00000 0.00009
748 16.20000 11056.53070 11014.00000 0.00009
749 16.21500 11064.54062 10931.00000 0.00009
750 16.23000 11073.43393 10937.00000 0.00009
751 16.24500 11083.37747 11258.00000 0.00009
752 16.26000 11094.60001 10957.00000 0.00009
753 16.27500 11107.43097 11395.00000 0.00009
754 16.29000 11122.36250 11194.00000 0.00009
755 16.30500 11140.14293 11136.00000 0.00009
756 16.32000 11161.90574 10956.00000 0.00009
757 16.33500 11189.33096 11546.00000 0.00009
758 16.35000 11224.82362 11242.00000 0.00009
759 16.36500 11271.68185 11727.00000 0.00009
760 16.38000 11334.21882 11771.00000 0.00008
761 16.39500 11417.80378 11936.00000 0.00008
762 16.41000 11528.79762 11812.00000 0.00008
763 16.42500 11674.37674 11900.00000 0.00008
764 16.44000 11862.28543 12417.00000 0.00008
765 16.45500 12100.66507 12894.00000 0.00008
766 16.47000 12398.20698 12930.00000 0.00008
767 16.48500 12764.71890 13510.00000 0.00007
768 16.50000 13211.75395 13929.00000 0.00007
769 16.51500 13752.58099 14402.00000 0.00007
770 16.53000 14400.67558 15329.00000 0.00007
771 16.54500 15166.04612 15816.00000 0.00006
772 16.56000 16049.17201 16447.00000 0.00006
773 16.57500 17033.21989 17422.00000 0.00006
774 16.59000 18076.32872 17954.00000 0.00006
775 16.60500 19106.56407 18822.00000 0.00005
776 16.62000 20022.08976 20011.00000 0.00005
777 16.63500 20698.55030 19859.00000 0.00005
778 16.65000 21006.62699 20246.00000 0.00005
779 16.66500 20845.75982 19925.00000 0.00005
780 16.68000 20193.33728 19582.00000 0.00005
781 16.69500 19137.22631 18741.00000 0.00005
782 16.71000 17847.36235 18382.00000 0.00005
783 16.72500 16504.87837 17245.00000 0.00006
784 16.74000 15250.45911 16214.00000 0.00006
785 16.75500 14170.32053 15099.00000 0.00007
786 16.77000 13301.59533 14477.00000 0.00007
787 16.78500 12643.55632 13858.00000 0.00007
788 16.80000 12170.63934 13328.00000 0.00008
789 16.81500 11845.24226 12826.00000 0.00008
790 16.83000 11628.15402 12553.00000 0.00008
791 16.84500 11485.23309 12500.00000 0.00008
792 16.86000 11390.29015 12079.00000 0.00008
793 16.87500 11325.14650 12020.00000 0.00008
794 16.89000 11278.17182 11841.00000 0.00008
795 16.90500 11242.38817 11390.00000 0.00009
796 16.92000 11213.78619 11537.00000 0.00009
797 16.93500 11190.09615 11089.00000 0.00009
798 16.95000 11170.00489 11415.00000 0.00009
799 16.96500 11152.70643 11472.00000 0.00009
800 16.98000 11137.66390 11310.00000 0.00009
801 16.99500 11124.49004 11194.00000 0.00009
802 17.01000 11112.88842 10957.00000 0.00009
803 17.02500 11102.62353 11193.00000 0.00009
804 17.04000 11093.50416 11155.00000 0.00009
805 17.05500 11085.37315 11433.00000 0.00009
806 17.07000 11078.10034 11023.00000 0.00009
807 17.08500 11071.57763 10943.00000 0.00009
808 17.10000 11065.71812 11049.00000 0.00009
809 17.11500 11060.43557 11238.00000 0.00009
810 17.13000 11055.66072 11007.00000 0.00009
811 17.14500 11051.34604 11093.00000 0.00009
812 17.16000 11047.44478 11078.00000 0.00009
813 17.17500 11043.91723 11156.00000 0.00009
814 17.19000 11040.72963 11047.00000 0.00009
815 17.20500 11037.85336 11041.00000 0.00009
816 17.22000 11035.26421 11217.00000 0.00009
817 17.23500 11032.94183 11069.00000 0.00009
818 17.25000 11030.86924 10864.00000 0.00009
819 17.26500 11029.03252 10949.00000 0.00009
820 17.28000 11027.42044 10867.00000 0.00009
821 17.29500 11026.02425 10826.00000 0.00009
822 17.31000 11024.83749 11180.00000 0.00009
823 17.32500 11023.85587 10910.00000 0.00009
824 17.34000 11023.07714 11205.00000 0.00009
825 17.35500 11022.50104 10697.00000 0.00009
826 17.37000 11022.12929 11017.00000 0.00009
827 17.38500 11021.96560 10882.00000 0.00009
828 17.40000 11022.01571 11276.00000 0.00009
829 17.41500 11022.28747 11079.00000 0.00009
830 17.43000 11022.79098 11097.00000 0.00009
831 17.44500 11023.53874 11228.00000 0.00009
832 17.46000 11024.54589 11158.00000 0.00009
833 17.47500 11025.83044 10855.00000 0.00009
834 17.49000 11027.41361 11221.00000 0.00009
835 17.50500 11029.32027 11044.00000 0.00009
836 17.52000 11031.57937 10965.00000 0.00009
837 17.53500 11034.22460 11408.00000 0.00009
838 17.55000 11037.29504 11063.00000 0.00009
839 17.56500 11040.83612 11278.00000 0.00009
840 17.58000 11044.90062 11088.00000 0.00009
841 17.59500 11049.55005 10857.00000 0.00009
842 17.61000 11054.85623 11003.00000 0.00009
843 17.62500 11060.90340 11217.00000 0.00009
844 17.64000 11067.79091 11014.00000 0.00009
845 17.65500 11075.63692 11580.00000 0.00009
846 17.67000 11084.58377 11011.00000 0.00009
847 17.68500 11094.80646 11131.00000 0.00009
848 17.70000 11106.52655 11069.00000 0.00009
849 17.71500 11120.03569 11470.00000 0.00009
850 17.73000 11135.73543 11134.00000 0.00009
851 17.74500 11154.20219 11697.00000 0.00009
852 17.76000 11176.28869 11329.00000 0.00009
853 17.77500 11203.27273 11531.00000 0.00009
854 17.79000 11237.05976 11595.00000 0.00009
855 17.80500 11280.43650 11645.00000 0.00009
856 17.82000 11337.35978 11866.00000 0.00008
857 17.83500 11413.25075 12144.00000 0.00008
858 17.85000 11515.25757 12347.00000 0.00008
859 17.86500 11652.45113 12641.00000 0.00008
860 17.88000 11835.92634 13043.00000 0.00008
861 17.89500 12078.78592 13106.00000 0.00008
862 17.91000 12395.99065 13717.00000 0.00007
863 17.92500 12804.10752 14154.00000 0.00007
864 17.94000 13321.05096 14586.00000 0.00007
865 17.95500 13965.74854 15358.00000 0.00007
866 17.97000 14757.14892 15891.00000 0.00006
867 17.98500 15711.56573 16793.00000 0.00006
868 18.00000 16837.53895 18388.00000 0.00005
869 18.01500 18128.19073 19274.00000 0.00005
870 18.03000 19552.18593 20355.00000 0.00005
871 18.04500 21045.51935 20944.00000 0.00005
872 18.06000 22506.88985 22430.00000 0.00004
873 18.07500 23799.10659 22803.00000 0.00004
874 18.09000 24758.93459 23841.00000 0.00004
875 18.10500 25218.85387 23238.00000 0.00004
876 18.12000 25048.77201 22692.00000 0.00004
877 18.13500 24215.84772 22260.00000 0.00004
878 18.15000 22824.82684 20967.00000 0.00005
879 18.16500 21087.63301 19707.00000 0.00005
880 18.18000 19239.27138 18964.00000 0.00005
881 18.19500 17470.74708 17556.00000 0.00006
882 18.21000 15906.85948 16744.00000 0.00006
883 18.22500 14610.49024 15911.00000 0.00006
884 18.24000 13594.89961 14770.00000 0.00007
885 18.25500 12837.62160 14457.00000 0.00007
886 18.27000 12296.28831 13869.00000 0.00007
887 18.28500 11921.61837 13190.00000 0.00008
888 18.30000 11667.07723 13040.00000 0.00008
889 18.31500 11494.26214 12608.00000 0.00008
890 18.33000 11374.57120 11974.00000 0.00008
891 18.34500 11288.40757 12364.00000 0.00008
892 18.36000 11223.23034 12192.00000 0.00008
893 18.37500 11171.42440 11769.00000 0.00008
894 18.39000 11128.51277 11488.00000 0.00009
895 18.40500 11091.87856 11630.00000 0.00009
896 18.42000 11059.95067 11414.00000 0.00009
897 18.43500 11031.72996 11411.00000 0.00009
898 18.45000 11006.53219 11073.00000 0.00009
899 18.46500 10983.85517 11096.00000 0.00009
900 18.48000 10963.31211 11010.00000 0.00009
901 18.49500 10944.61384 10867.00000 0.00009
902 18.51000 10927.44478 11036.00000 0.00009
903 18.52500 10911.58704 10970.00000 0.00009
904 18.54000 10896.89225 10838.00000 0.00009
905 18.55500 10883.21002 11008.00000 0.00009
906 18.57000 10870.41298 11016.00000 0.00009
907 18.58500 10858.39268 10718.00000 0.00009
908 18.60000 10847.05639 11030.00000 0.00009
909 18.61500 10836.32447 10916.00000 0.00009
910 18.63000 10826.12822 10717.00000 0.00009
911 18.64500 10816.40824 10620.00000 0.00009
912 18.66000 10807.11293 10633.00000 0.00009
913 18.67500 10798.19737 10632.00000 0.00009
914 18.69000 10789.62234 10778.00000 0.00009
915 18.70500 10781.35353 10673.00000 0.00009
916 18.72000 10773.36085 10542.00000 0.00009
917 18.73500 10765.61793 10368.00000 0.00010
918 18.75000 10758.10158 10505.00000 0.00010
919 18.76500 10750.79145 10517.00000 0.00010
920 18.78000 10743.66967 10742.00000 0.00009
921 18.79500 10736.72063 10485.00000 0.00010
922 18.81000 10729.93067 10528.00000 0.00009
923 18.82500 10723.28798 10588.00000 0.00009
924 18.84000 10716.78240 10528.00000 0.00009
925 18.85500 10710.40529 10732.00000 0.00009
926 18.87000 10704.14950 10591.00000 0.00009
927 18.88500 10698.00924 10489.00000 0.00010
928 18.90000 10691.98008 10589.00000 0.00009
929 18.91500 10686.05894 10471.00000 0.00010
930 18.93000 10680.24412 10435.00000 0.00010
931 18.94500 10674.53533 10757.00000 0.00009
932 18.96000 10668.93382 10533.00000 0.00009
933 18.97500 10663.44251 10507.00000 0.00010
934 18.99000 10658.06621 10585.00000 0.00009
935 19.00500 10652.81193 10189.00000 0.00010
936 19.02000 10647.68943 10363.00000 0.00010
937 19.03500 10642.71198 10679.00000 0.00009
938 19.05000 10637.89776 10548.00000 0.00009
939 19.06500 10633.27217 10422.00000 0.00010
940 19.08000 10628.87159 10429.00000 0.00010
941 19.09500 10624.74951 10510.00000 0.00010
942 19.11000 10620.98606 10244.00000 0.00010
943 19.12500 10617.70141 10564.00000 0.00009
944 19.14000 10615.07420 10360.00000 0.00010
945 19.15500 10613.36501 10483.00000 0.00010
946 19.17000 10612.94405 10504.00000 0.00010
947 19.18500 10614.32121 10275.00000 0.00010
948 19.20000 10618.17646 10398.00000 0.00010
949 19.21500 10625.38806 10502.00000 0.00010
950 19.23000 10637.06104 10424.00000 0.00010
951 19.24500 10654.49529 10732.00000 0.00009
952 19.26000 10679.23893 10951.00000 0.00009
953 19.27500 10713.00640 10667.00000 0.00009
954 19.29000 10757.57997 11003.00000 0.00009
955 19.30500 10814.66212 11029.00000 0.00009
956 19.32000 10885.63213 10836.00000 0.00009
957 19.33500 10971.16775 11035.00000 0.00009
958 19.35000 11070.71773 11190.00000 0.00009
959 19.36500 11181.88641 11484.00000 0.00009
960 19.38000 11299.86891 11777.00000 0.00008
961 19.39500 11417.11312 12034.00000 0.00008
962 19.41000 11523.36729 12270.00000 0.00008
963 19.42500 11606.25136 12026.00000 0.00008
964 19.44000 11652.60715 12390.00000 0.00008
965 19.45500 11651.16039 12279.00000 0.00008
966 19.47000 11596.71401 12444.00000 0.00008
967 19.48500 11493.95394 12050.00000 0.00008
968 19.50000 11356.98404 11473.00000 0.00009
969 19.51500 11203.93638 11438.00000 0.00009
970 19.53000 11051.15086 11348.00000 0.00009
971 19.54500 10910.39723 10986.00000 0.00009
972 19.56000 10788.62564 11026.00000 0.00009
973 19.57500 10688.69035 10731.00000 0.00009
974 19.59000 10610.32952 10840.00000 0.00009
975 19.60500 10551.14129 10727.00000 0.00009
976 19.62000 10507.72017 10460.00000 0.00010
977 19.63500 10476.37794 10800.00000 0.00009
978 19.65000 10453.73196 10544.00000 0.00009
979 19.66500 10436.98470 10313.00000 0.00010
980 19.68000 10423.98106 10437.00000 0.00010
981 19.69500 10413.13152 10257.00000 0.00010
982 19.71000 10403.28494 10336.00000 0.00010
983 19.72500 10393.61444 10533.00000 0.00009
984 19.74000 10383.55786 10309.00000 0.00010
985 19.75500 10372.82366 10418.00000 0.00010
986 19.77000 10361.41190 10086.00000 0.00010
987 19.78500 10349.56060 10324.00000 0.00010
988 19.80000 10337.60701 10254.00000 0.00010
989 19.81500 10325.85699 10415.00000 0.00010
990 19.83000 10314.52559 10238.00000 0.00010
991 19.84500 10303.73127 10129.00000 0.00010
992 19.86000 10293.51035 10102.00000 0.00010
993 19.87500 10283.83690 10025.00000 0.00010
994 19.89000 10274.64429 10032.00000 0.00010
995 19.90500 10265.84595 10241.00000 0.00010
996 19.92000 10257.35264 10039.00000 0.00010
997 19.93500 10249.08410 10184.00000 0.00010
998 19.95000 10240.97494 10260.00000 0.00010
999 19.96500 10232.97577 9920.00000 0.00010
1000 19.98000 10225.05141 10081.00000 0.00010
1001 19.99500 10217.17775 9977.00000 0.00010
1002 20.01000 10209.33858 9678.00000 0.00010
1003 20.02500 10201.52296 10092.00000 0.00010
1004 20.04000 10193.72322 10034.00000 0.00010
1005 20.05500 10185.93378 10005.00000 0.00010
1006 20.07000 10178.15046 10180.00000 0.00010
1007 20.08500 10170.37021 9861.00000 0.00010
1008 20.10000 10162.59029 10052.00000 0.00010
1009 20.11500 10154.80839 9697.00000 0.00010
1010 20.13000 10147.02267 9928.00000 0.00010
1011 20.14500 10139.23175 9888.00000 0.00010
1012 20.16000 10131.43498 10037.00000 0.00010
1013 20.17500 10123.63351 9839.00000 0.00010
1014 20.19000 10115.84416 9927.00000 0.00010
1015 20.20500 10108.01558 10005.00000 0.00010
1016 20.22000 10100.16641 10168.00000 0.00010
1017 20.23500 10092.30417 9805.00000 0.00010
1018 20.25000 10084.42859 9911.00000 0.00010
1019 20.26500 10076.54014 9925.00000 0.00010
1020 20.28000 10068.63956 9966.00000 0.00010
1021 20.29500 10060.73372 10135.00000 0.00010
1022 20.31000 10052.81157 9721.00000 0.00010
1023 20.32500 10044.84677 10067.00000 0.00010
1024 20.34000 10036.86374 10024.00000 0.00010
1025 20.35500 10028.86215 9651.00000 0.00010
1026 20.37000 10020.84170 9933.00000 0.00010
1027 20.38500 10012.80213 9734.00000 0.00010
1028 20.40000 10004.74317 9870.00000 0.00010
1029 20.41500 9996.66357 9963.00000 0.00010
1030 20.43000 9988.56250 9872.00000 0.00010
1031 20.44500 9980.43967 9790.00000 0.00010
1032 20.46000 9972.29478 9666.00000 0.00010
1033 20.47500 9964.12748 9656.00000 0.00010
1034 20.49000 9955.93744 9597.00000 0.00010
1035 20.50500 9947.72426 10058.00000 0.00010
1036 20.52000 9939.48747 9886.00000 0.00010
1037 20.53500 9931.22662 9833.00000 0.00010
1038 20.55000 9922.94128 9806.00000 0.00010
1039 20.56500 9914.63061 9720.00000 0.00010
1040 20.58000 9906.29342 9762.00000 0.00010
1041 20.59500 9897.92797 9917.00000 0.00010
1042 20.61000 9889.53150 9539.00000 0.00010
1043 20.62500 9881.09916 9909.00000 0.00010
1044 20.64000 9872.62118 9835.00000 0.00010
1045 20.65500 9864.06470 9720.00000 0.00010
1046 20.67000 9855.32489 9821.00000 0.00010
1047 20.68500 9846.89250 9683.00000 0.00010
1048 20.70000 9838.44133 9490.00000 0.00011
1049 20.71500 9829.97192 9591.00000 0.00010
1050 20.73000 9821.48529 9771.00000 0.00010
1051 20.74500 9812.98406 9630.00000 0.00010
1052 20.76000 9804.47837 9918.00000 0.00010
1053 20.77500 9795.92952 9803.00000 0.00010
1054 20.79000 9787.36231 9675.00000 0.00010
1055 20.80500 9778.77719 9498.00000 0.00011
1056 20.82000 9770.17543 9722.00000 0.00010
1057 20.83500 9761.55804 9615.00000 0.00010
1058 20.85000 9752.91643 9738.00000 0.00010
1059 20.86500 9744.25702 9677.00000 0.00010
1060 20.88000 9735.58003 9778.00000 0.00010
1061 20.89500 9726.88569 9859.00000 0.00010
1062 20.91000 9718.17425 9599.00000 0.00010
1063 20.92500 9709.44595 9666.00000 0.00010
1064 20.94000 9700.70105 9685.00000 0.00010
1065 20.95500 9691.93984 9432.00000 0.00011
1066 20.97000 9683.16260 9478.00000 0.00011
1067 20.98500 9674.36961 9894.00000 0.00010
1068 21.00000 9665.56134 9526.00000 0.00010
1069 21.01500 9656.73835 9721.00000 0.00010
1070 21.03000 9647.90105 9630.00000 0.00010
1071 21.04500 9639.04995 9348.00000 0.00011
1072 21.06000 9630.18563 9485.00000 0.00011
1073 21.07500 9621.30890 9436.00000 0.00011
1074 21.09000 9612.42109 9445.00000 0.00011
1075 21.10500 9603.52642 9683.00000 0.00010
1076 21.12000 9594.62414 9482.00000 0.00011
1077 21.13500 9585.69331 9600.00000 0.00010
1078 21.15000 9576.75097 9443.00000 0.00011
1079 21.16500 9567.79786 9486.00000 0.00011
1080 21.18000 9558.83563 9300.00000 0.00011
1081 21.19500 9549.86533 9608.00000 0.00010
1082 21.21000 9540.88807 9422.00000 0.00011
1083 21.22500 9531.90527 9385.00000 0.00011
1084 21.24000 9522.91902 9421.00000 0.00011
1085 21.25500 9513.93297 9412.00000 0.00011
1086 21.27000 9504.95707 9373.00000 0.00011
1087 21.28500 9496.02889 9463.00000 0.00011
1088 21.30000 9487.00448 9310.00000 0.00011
1089 21.31500 9477.97578 9554.00000 0.00010
1090 21.33000 9468.94371 9496.00000 0.00011
1091 21.34500 9459.90921 9353.00000 0.00011
1092 21.36000 9450.87333 9470.00000 0.00011
1093 21.37500 9441.83720 9490.00000 0.00011
1094 21.39000 9432.80204 9225.00000 0.00011
1095 21.40500 9423.76912 9349.00000 0.00011
1096 21.42000 9414.73981 9226.00000 0.00011
1097 21.43500 9405.71564 9205.00000 0.00011
1098 21.45000 9396.69828 9538.00000 0.00010
1099 21.46500 9387.68982 9424.00000 0.00011
1100 21.48000 9378.69527 9400.00000 0.00011
1101 21.49500 9369.70652 9500.00000 0.00011
1102 21.51000 9360.73150 9312.00000 0.00011
1103 21.52500 9351.77259 9267.00000 0.00011
1104 21.54000 9342.83223 9363.00000 0.00011
1105 21.55500 9333.91308 9417.00000 0.00011
1106 21.57000 9325.01867 9349.00000 0.00011
1107 21.58500 9316.15328 9272.00000 0.00011
1108 21.60000 9307.32083 9347.00000 0.00011
1109 21.61500 9298.52582 9028.00000 0.00011
1110 21.63000 9289.77354 9006.00000 0.00011
1111 21.64500 9281.07070 9235.00000 0.00011
1112 21.66000 9272.42745 9252.00000 0.00011
1113 21.67500 9263.87761 9287.00000 0.00011
1114 21.69000 9255.37205 9245.00000 0.00011
1115 21.70500 9246.88249 9303.00000 0.00011
1116 21.72000 9238.46797 9138.00000 0.00011
1117 21.73500 9230.13716 9062.00000 0.00011
1118 21.75000 9221.89976 9185.00000 0.00011
1119 21.76500 9213.76671 9016.00000 0.00011
1120 21.78000 9205.75037 9114.00000 0.00011
1121 21.79500 9197.86482 9249.00000 0.00011
1122 21.81000 9190.12665 9112.00000 0.00011
1123 21.82500 9182.55246 9279.00000 0.00011
1124 21.84000 9175.16119 9137.00000 0.00011
1125 21.85500 9167.97829 9023.00000 0.00011
1126 21.87000 9161.03100 9093.00000 0.00011
1127 21.88500 9154.35092 9383.00000 0.00011
1128 21.90000 9147.97493 9076.00000 0.00011
1129 21.91500 9141.94659 9108.00000 0.00011
1130 21.93000 9136.31796 8921.00000 0.00011
1131 21.94500 9131.15248 9231.00000 0.00011
1132 21.96000 9126.52945 9153.00000 0.00011
1133 21.97500 9122.55118 9137.00000 0.00011
1134 21.99000 9119.35426 8859.00000 0.00011
1135 22.00500 9117.12724 9026.00000 0.00011
1136 22.02000 9116.13753 9375.00000 0.00011
1137 22.03500 9116.77090 8947.00000 0.00011
1138 22.05000 9119.58713 9069.00000 0.00011
1139 22.06500 9125.39528 9097.00000 0.00011
1140 22.08000 9135.35111 9119.00000 0.00011
1141 22.09500 9151.07109 9049.00000 0.00011
1142 22.11000 9174.77421 8966.00000 0.00011
1143 22.12500 9209.41686 9178.00000 0.00011
1144 22.14000 9258.81624 9209.00000 0.00011
1145 22.15500 9327.71676 9258.00000 0.00011
1146 22.17000 9421.74245 9213.00000 0.00011
1147 22.18500 9547.16392 9128.00000 0.00011
1148 22.20000 9710.41395 9423.00000 0.00011
1149 22.21500 9917.31532 9711.00000 0.00010
1150 22.23000 10172.02164 9967.00000 0.00010
1151 22.24500 10475.71366 10289.00000 0.00010
1152 22.26000 10825.16373 10595.00000 0.00009
1153 22.27500 11211.37246 11406.00000 0.00009
1154 22.29000 11618.52199 12060.00000 0.00008
1155 22.30500 12023.50554 12961.00000 0.00008
1156 22.32000 12396.42155 14384.00000 0.00007
1157 22.33500 12702.76078 15123.00000 0.00007
1158 22.35000 12908.20075 15562.00000 0.00006
1159 22.36500 12985.66027 15621.00000 0.00006
1160 22.38000 12921.77648 14788.00000 0.00007
1161 22.39500 12718.99038 14325.00000 0.00007
1162 22.41000 12394.79646 12927.00000 0.00008
1163 22.42500 11980.43073 11415.00000 0.00009
1164 22.44000 11516.57045 10635.00000 0.00009
1165 22.45500 11044.54590 10093.00000 0.00010
1166 22.47000 10597.90641 9928.00000 0.00010
1167 22.48500 10198.78700 9759.00000 0.00010
1168 22.50000 9858.45162 9656.00000 0.00010
1169 22.51500 9579.54318 9412.00000 0.00011
1170 22.53000 9358.60082 8986.00000 0.00011
1171 22.54500 9188.39320 9094.00000 0.00011
1172 22.56000 9059.92438 9015.00000 0.00011
1173 22.57500 8964.00226 9150.00000 0.00011
1174 22.59000 8892.29896 8989.00000 0.00011
1175 22.60500 8837.91492 8926.00000 0.00011
1176 22.62000 8795.53894 8612.00000 0.00012
1177 22.63500 8761.34186 8736.00000 0.00011
1178 22.65000 8732.55401 8885.00000 0.00011
1179 22.66500 8707.49405 8662.00000 0.00012
1180 22.68000 8685.03561 8619.00000 0.00012
1181 22.69500 8664.46465 8668.00000 0.00012
1182 22.71000 8645.32524 8865.00000 0.00011
1183 22.72500 8627.31737 8450.00000 0.00012
1184 22.74000 8610.23456 8673.00000 0.00012
1185 22.75500 8593.92721 8584.00000 0.00012
1186 22.77000 8578.28116 8309.00000 0.00012
1187 22.78500 8563.20575 8617.00000 0.00012
1188 22.80000 8548.62693 8367.00000 0.00012
1189 22.81500 8534.48323 8328.00000 0.00012
1190 22.83000 8520.72292 8498.00000 0.00012
1191 22.84500 8507.30221 8439.00000 0.00012
1192 22.86000 8494.18376 8328.00000 0.00012
1193 22.87500 8481.33556 8241.00000 0.00012
1194 22.89000 8468.72984 8365.00000 0.00012
1195 22.90500 8456.34195 8427.00000 0.00012
1196 22.92000 8444.14817 8459.00000 0.00012
1197 22.93500 8432.11648 8367.00000 0.00012
1198 22.95000 8420.17274 8341.00000 0.00012
1199 22.96500 8408.59004 8348.00000 0.00012
1200 22.98000 8397.18529 8258.00000 0.00012
1201 22.99500 8385.96430 8232.00000 0.00012
1202 23.01000 8374.94072 8276.00000 0.00012
1203 23.02500 8364.13857 8337.00000 0.00012
1204 23.04000 8353.59268 8387.00000 0.00012
1205 23.05500 8343.35038 8462.00000 0.00012
1206 23.07000 8333.47224 8171.00000 0.00012
1207 23.08500 8324.03114 8388.00000 0.00012
1208 23.10000 8315.10908 8245.00000 0.00012
1209 23.11500 8306.79964 8325.00000 0.00012
1210 23.13000 8299.14487 8470.00000 0.00012
1211 23.14500 8292.12626 8140.00000 0.00012
1212 23.16000 8285.77161 8336.00000 0.00012
1213 23.17500 8279.99490 8252.00000 0.00012
1214 23.19000 8274.62939 8383.00000 0.00012
1215 23.20500 8269.42087 8209.00000 0.00012
1216 23.22000 8264.02999 8192.00000 0.00012
1217 23.23500 8258.04696 8451.00000 0.00012
1218 23.25000 8251.02618 8370.00000 0.00012
1219 23.26500 8242.55660 8659.00000 0.00012
1220 23.28000 8232.38004 8425.00000 0.00012
1221 23.29500 8220.52253 8488.00000 0.00012
1222 23.31000 8207.33858 8320.00000 0.00012
1223 23.32500 8193.40241 8372.00000 0.00012
1224 23.34000 8179.32348 8250.00000 0.00012
1225 23.35500 8165.61521 8262.00000 0.00012
1226 23.37000 8152.65452 8062.00000 0.00012
1227 23.38500 8140.69529 8354.00000 0.00012
1228 23.40000 8129.90095 8221.00000 0.00012
1229 23.41500 8120.38444 8114.00000 0.00012
1230 23.43000 8112.25464 8128.00000 0.00012
1231 23.44500 8105.66941 8172.00000 0.00012
1232 23.46000 8100.89425 7954.00000 0.00013
1233 23.47500 8098.36536 8225.00000 0.00012
1234 23.49000 8098.75535 8061.00000 0.00012
1235 23.50500 8103.03918 8059.00000 0.00012
1236 23.52000 8112.55403 8312.00000 0.00012
1237 23.53500 8129.04148 8310.00000 0.00012
1238 23.55000 8154.65155 8456.00000 0.00012
1239 23.56500 8191.87848 8262.00000 0.00012
1240 23.58000 8243.39044 8573.00000 0.00012
1241 23.59500 8311.71777 8524.00000 0.00012
1242 23.61000 8398.78883 8691.00000 0.00012
1243 23.62500 8505.34962 8770.00000 0.00011
1244 23.64000 8630.35004 8867.00000 0.00011
1245 23.65500 8770.39687 8942.00000 0.00011
1246 23.67000 8919.36351 9033.00000 0.00011
1247 23.68500 9068.23330 9187.00000 0.00011
1248 23.70000 9205.24772 9295.00000 0.00011
1249 23.71500 9316.47531 9063.00000 0.00011
1250 23.73000 9387.10031 9387.00000 0.00011
1251 23.74500 9403.98082 9427.00000 0.00011
1252 23.76000 9359.69058 9263.00000 0.00011
1253 23.77500 9256.48506 9324.00000 0.00011
1254 23.79000 9106.84892 9316.00000 0.00011
1255 23.80500 8929.25089 8848.00000 0.00011
1256 23.82000 8742.23277 8836.00000 0.00011
1257 23.83500 8560.62241 8485.00000 0.00012
1258 23.85000 8394.49763 8358.00000 0.00012
1259 23.86500 8249.58674 8485.00000 0.00012
1260 23.88000 8128.07309 8278.00000 0.00012
1261 23.89500 8029.46390 7962.00000 0.00013
1262 23.91000 7951.46059 7922.00000 0.00013
1263 23.92500 7890.77803 7935.00000 0.00013
1264 23.94000 7843.83610 7910.00000 0.00013
1265 23.95500 7807.26159 7886.00000 0.00013
1266 23.97000 7778.18255 7920.00000 0.00013
1267 23.98500 7754.34047 7806.00000 0.00013
1268 24.00000 7734.07204 7788.00000 0.00013
1269 24.01500 7716.21761 7718.00000 0.00013
1270 24.03000 7700.00363 7572.00000 0.00013
1271 24.04500 7684.93045 7640.00000 0.00013
1272 24.06000 7670.68072 7609.00000 0.00013
1273 24.07500 7657.05257 7565.00000 0.00013
1274 24.09000 7643.91457 7768.00000 0.00013
1275 24.10500 7631.17754 7547.00000 0.00013
1276 24.12000 7618.77774 7611.00000 0.00013
1277 24.13500 7606.66719 7584.00000 0.00013
1278 24.15000 7594.80823 7407.00000 0.00014
1279 24.16500 7583.17041 7496.00000 0.00013
1280 24.18000 7571.72862 7346.00000 0.00014
1281 24.19500 7560.46191 7358.00000 0.00014
1282 24.21000 7549.35270 7626.00000 0.00013
1283 24.22500 7538.38618 7566.00000 0.00013
1284 24.24000 7527.54984 7504.00000 0.00013
1285 24.25500 7516.83315 7076.00000 0.00014
1286 24.27000 7506.22728 7395.00000 0.00014
1287 24.28500 7495.72483 7291.00000 0.00014
1288 24.30000 7485.31969 7586.00000 0.00013
1289 24.31500 7475.00690 7384.00000 0.00014
1290 24.33000 7464.78252 7420.00000 0.00013
1291 24.34500 7454.64355 7425.00000 0.00013
1292 24.36000 7444.58787 7315.00000 0.00014
1293 24.37500 7434.61424 7433.00000 0.00013
1294 24.39000 7424.72221 7412.00000 0.00013
1295 24.40500 7414.91222 7171.00000 0.00014
1296 24.42000 7405.18556 7354.00000 0.00014
1297 24.43500 7395.54444 7592.00000 0.00013
1298 24.45000 7385.99211 7181.00000 0.00014
1299 24.46500 7376.53296 7427.00000 0.00013
1300 24.48000 7367.17271 7321.00000 0.00014
1301 24.49500 7357.91874 7048.00000 0.00014
1302 24.51000 7348.78047 7250.00000 0.00014
1303 24.52500 7339.76946 7239.00000 0.00014
1304 24.54000 7330.90076 7311.00000 0.00014
1305 24.55500 7322.19611 7387.00000 0.00014
1306 24.57000 7313.68600 7395.00000 0.00014
1307 24.58500 7305.41418 7406.00000 0.00014
1308 24.60000 7297.44455 7206.00000 0.00014
1309 24.61500 7289.87101 7225.00000 0.00014
1310 24.63000 7282.83121 7372.00000 0.00014
1311 24.64500 7276.52434 7529.00000 0.00013
1312 24.66000 7271.23298 7468.00000 0.00013
1313 24.67500 7267.34766 7539.00000 0.00013
1314 24.69000 7265.39062 7317.00000 0.00014
1315 24.70500 7266.03179 7359.00000 0.00014
1316 24.72000 7270.07259 7586.00000 0.00013
1317 24.73500 7278.46801 7539.00000 0.00013
1318 24.75000 7292.59740 7352.00000 0.00014
1319 24.76500 7313.25441 7598.00000 0.00013
1320 24.78000 7341.26114 7831.00000 0.00013
1321 24.79500 7377.01004 7629.00000 0.00013
1322 24.81000 7420.21777 7581.00000 0.00013
1323 24.82500 7469.70368 7535.00000 0.00013
1324 24.84000 7523.23263 7300.00000 0.00014
1325 24.85500 7577.44909 7468.00000 0.00013
1326 24.87000 7627.92270 7611.00000 0.00013
1327 24.88500 7669.33611 7461.00000 0.00013
1328 24.90000 7695.88761 7682.00000 0.00013
1329 24.91500 7702.27313 7602.00000 0.00013
1330 24.93000 7685.08205 7554.00000 0.00013
1331 24.94500 7644.40638 7487.00000 0.00013
1332 24.96000 7584.34837 7415.00000 0.00013
1333 24.97500 7511.70485 7493.00000 0.00013
1334 24.99000 7433.73237 7792.00000 0.00013
1335 25.00500 7356.49524 7492.00000 0.00013
1336 25.02000 7284.29269 7489.00000 0.00013
1337 25.03500 7219.73288 7384.00000 0.00014
1338 25.05000 7164.01636 7294.00000 0.00014
1339 25.06500 7117.25527 7416.00000 0.00013
1340 25.08000 7078.79085 7600.00000 0.00013
1341 25.09500 7047.49806 7156.00000 0.00014
1342 25.11000 7022.05423 7190.00000 0.00014
1343 25.12500 7001.14751 7256.00000 0.00014
1344 25.14000 6983.61288 7129.00000 0.00014
1345 25.15500 6968.49883 7038.00000 0.00014
1346 25.17000 6955.07956 7100.00000 0.00014
1347 25.18500 6942.83232 7031.00000 0.00014
1348 25.20000 6931.39811 7135.00000 0.00014
1349 25.21500 6920.53949 6984.00000 0.00014
1350 25.23000 6910.10342 7321.00000 0.00014
1351 25.24500 6899.99234 7321.00000 0.00014
1352 25.26000 6890.14368 7272.00000 0.00014
1353 25.27500 6880.51640 7313.00000 0.00014
1354 25.29000 6871.08260 7131.00000 0.00014
1355 25.30500 6861.82267 7130.00000 0.00014
1356 25.32000 6852.72241 7145.00000 0.00014
1357 25.33500 6843.77128 6987.00000 0.00014
1358 25.35000 6834.96157 7029.00000 0.00014
1359 25.36500 6826.28796 7041.00000 0.00014
1360 25.38000 6817.74731 6828.00000 0.00015
1361 25.39500 6809.34115 6804.00000 0.00015
1362 25.41000 6801.05982 6853.00000 0.00015
1363 25.42500 6792.90663 6619.00000 0.00015
1364 25.44000 6784.88646 6687.00000 0.00015
1365 25.45500 6777.00321 6641.00000 0.00015
1366 25.47000 6769.26228 6554.00000 0.00015
1367 25.48500 6761.67094 6578.00000 0.00015
1368 25.50000 6754.23812 6606.00000 0.00015
1369 25.51500 6746.97454 6630.00000 0.00015
1370 25.53000 6739.89315 6610.00000 0.00015
1371 25.54500 6733.00972 6665.00000 0.00015
1372 25.56000 6726.34449 6521.00000 0.00015
1373 25.57500 6719.92823 6600.00000 0.00015
1374 25.59000 6713.74857 6744.00000 0.00015
1375 25.60500 6707.85918 6832.00000 0.00015
1376 25.62000 6702.29661 6671.00000 0.00015
1377 25.63500 6697.10621 6560.00000 0.00015
1378 25.65000 6692.34619 6754.00000 0.00015
1379 25.66500 6688.09945 6605.00000 0.00015
1380 25.68000 6684.44715 6774.00000 0.00015
1381 25.69500 6681.52846 6797.00000 0.00015
1382 25.71000 6679.55574 6605.00000 0.00015
1383 25.72500 6678.82329 6765.00000 0.00015
1384 25.74000 6679.76069 6688.00000 0.00015
1385 25.75500 6682.99066 6904.00000 0.00014
1386 25.77000 6689.40159 6801.00000 0.00015
1387 25.78500 6700.23183 7067.00000 0.00014
1388 25.80000 6717.15683 6982.00000 0.00014
1389 25.81500 6742.36275 7210.00000 0.00014
1390 25.83000 6778.58041 7160.00000 0.00014
1391 25.84500 6829.04308 7269.00000 0.00014
1392 25.86000 6897.32384 7376.00000 0.00014
1393 25.87500 6987.00706 7326.00000 0.00014
1394 25.89000 7101.16310 7409.00000 0.00013
1395 25.90500 7241.63224 7398.00000 0.00014
1396 25.92000 7408.19607 7556.00000 0.00013
1397 25.93500 7597.77843 7443.00000 0.00013
1398 25.95000 7803.83650 7520.00000 0.00013
1399 25.96500 8016.05739 7667.00000 0.00013
1400 25.98000 8220.39323 7644.00000 0.00013
1401 25.99500 8399.49698 7704.00000 0.00013
1402 26.01000 8534.05908 7573.00000 0.00013
1403 26.02500 8605.19311 7753.00000 0.00013
1404 26.04000 8598.90339 7674.00000 0.00013
1405 26.05500 8511.56556 7575.00000 0.00013
1406 26.07000 8353.02152 7586.00000 0.00013
1407 26.08500 8143.93382 7486.00000 0.00013
1408 26.10000 7908.79355 7565.00000 0.00013
1409 26.11500 7669.53778 7647.00000 0.00013
1410 26.13000 7442.59582 7323.00000 0.00014
1411 26.14500 7238.63411 7384.00000 0.00014
1412 26.16000 7063.37463 7393.00000 0.00014
1413 26.17500 6918.62522 7055.00000 0.00014
1414 26.19000 6803.31054 7178.00000 0.00014
1415 26.20500 6714.47562 7075.00000 0.00014
1416 26.22000 6648.21540 6853.00000 0.00015
1417 26.23500 6600.45902 6687.00000 0.00015
1418 26.25000 6567.55648 6684.00000 0.00015
1419 26.26500 6546.65841 6550.00000 0.00015
1420 26.28000 6535.92042 6816.00000 0.00015
1421 26.29500 6534.58553 6540.00000 0.00015
1422 26.31000 6542.99731 6522.00000 0.00015
1423 26.32500 6562.57870 6411.00000 0.00016
1424 26.34000 6595.78281 6382.00000 0.00016
1425 26.35500 6645.99742 6512.00000 0.00015
1426 26.37000 6717.39437 6638.00000 0.00015
1427 26.38500 6814.49632 6520.00000 0.00015
1428 26.40000 6941.69659 6546.00000 0.00015
1429 26.41500 7102.43902 6609.00000 0.00015
1430 26.43000 7298.20633 6704.00000 0.00015
1431 26.44500 7527.42459 6781.00000 0.00015
1432 26.46000 7784.45450 7088.00000 0.00014
1433 26.47500 8058.92741 7443.00000 0.00013
1434 26.49000 8335.54697 8155.00000 0.00012
1435 26.50500 8594.24193 8805.00000 0.00011
1436 26.52000 8811.15161 8990.00000 0.00011
1437 26.53500 8960.66738 10332.00000 0.00010
1438 26.55000 9019.57462 10554.00000 0.00009
1439 26.56500 8973.63286 10431.00000 0.00010
1440 26.58000 8824.20667 10181.00000 0.00010
1441 26.59500 8589.84131 9629.00000 0.00010
1442 26.61000 8300.21343 8933.00000 0.00011
1443 26.62500 7986.63789 8330.00000 0.00012
1444 26.64000 7675.25721 7368.00000 0.00014
1445 26.65500 7384.70032 7006.00000 0.00014
1446 26.67000 7126.44369 6386.00000 0.00016
1447 26.68500 6906.02896 6311.00000 0.00016
1448 26.70000 6724.38592 6214.00000 0.00016
1449 26.71500 6579.12282 6189.00000 0.00016
1450 26.73000 6465.75798 6140.00000 0.00016
1451 26.74500 6378.82162 6312.00000 0.00016
1452 26.76000 6312.73603 6089.00000 0.00016
1453 26.77500 6262.41989 5988.00000 0.00017
1454 26.79000 6223.61656 6019.00000 0.00017
1455 26.80500 6192.99402 6097.00000 0.00016
1456 26.82000 6168.08789 5939.00000 0.00017
1457 26.83500 6147.15999 6039.00000 0.00017
1458 26.85000 6129.03027 6095.00000 0.00016
1459 26.86500 6112.91923 6050.00000 0.00017
1460 26.88000 6098.31946 6082.00000 0.00016
1461 26.89500 6084.90036 5985.00000 0.00017
1462 26.91000 6072.44294 5851.00000 0.00017
1463 26.92500 6060.79769 6050.00000 0.00017
1464 26.94000 6049.85888 5888.00000 0.00017
1465 26.95500 6039.54930 5776.00000 0.00017
1466 26.97000 6029.81163 5964.00000 0.00017
1467 26.98500 6020.60362 5975.00000 0.00017
1468 27.00000 6011.89565 5911.00000 0.00017
1469 27.01500 6003.66992 5881.00000 0.00017
1470 27.03000 5995.92121 5914.00000 0.00017
1471 27.04500 5988.65902 5739.00000 0.00017
1472 27.06000 5981.91132 5850.00000 0.00017
1473 27.07500 5975.73192 5686.00000 0.00018
1474 27.09000 5970.21141 5938.00000 0.00017
1475 27.10500 5965.49442 5780.00000 0.00017
1476 27.12000 5961.80026 5773.00000 0.00017
1477 27.13500 5959.41004 5955.00000 0.00017
1478 27.15000 5958.78852 5948.00000 0.00017
1479 27.16500 5960.54143 5733.00000 0.00017
1480 27.18000 5965.46415 5793.00000 0.00017
1481 27.19500 5974.55435 5887.00000 0.00017
1482 27.21000 5988.99717 5740.00000 0.00017
1483 27.22500 6010.10742 5914.00000 0.00017
1484 27.24000 6039.21359 5667.00000 0.00018
1485 27.25500 6077.47294 5676.00000 0.00018
1486 27.27000 6125.61816 5799.00000 0.00017
1487 27.28500 6183.65700 5795.00000 0.00017
1488 27.30000 6250.57122 5821.00000 0.00017
1489 27.31500 6324.07544 6053.00000 0.00017
1490 27.33000 6400.48524 5922.00000 0.00017
1491 27.34500 6474.71826 5850.00000 0.00017
1492 27.36000 6540.45346 5956.00000 0.00017
1493 27.37500 6590.54307 6273.00000 0.00016
1494 27.39000 6617.89678 6098.00000 0.00016
1495 27.40500 6617.05934 6118.00000 0.00016
1496 27.42000 6586.21487 6122.00000 0.00016
1497 27.43500 6528.44430 6146.00000 0.00016
1498 27.45000 6450.98168 6145.00000 0.00016
1499 27.46500 6362.78854 5974.00000 0.00017
1500 27.48000 6272.16125 5917.00000 0.00017
1501 27.49500 6185.52224 5883.00000 0.00017
1502 27.51000 6107.25597 5845.00000 0.00017
1503 27.52500 6040.00434 5687.00000 0.00018
1504 27.54000 5985.06581 5723.00000 0.00017
1505 27.55500 5942.79683 5599.00000 0.00018
1506 27.57000 5913.00204 5693.00000 0.00018
1507 27.58500 5895.29681 5734.00000 0.00017
1508 27.60000 5889.40937 5604.00000 0.00018
1509 27.61500 5895.38504 5603.00000 0.00018
1510 27.63000 5913.66411 5525.00000 0.00018
1511 27.64500 5945.01901 5626.00000 0.00018
1512 27.66000 5990.34805 5762.00000 0.00017
1513 27.67500 6050.34115 5745.00000 0.00017
1514 27.69000 6125.03692 5838.00000 0.00017
1515 27.70500 6213.33199 5733.00000 0.00017
1516 27.72000 6312.63615 5810.00000 0.00017
1517 27.73500 6418.51778 5892.00000 0.00017
1518 27.75000 6524.62095 6237.00000 0.00016
1519 27.76500 6622.77059 6197.00000 0.00016
1520 27.78000 6703.36450 6461.00000 0.00015
1521 27.79500 6756.28561 6606.00000 0.00015
1522 27.81000 6772.68694 6664.00000 0.00015
1523 27.82500 6747.64645 6547.00000 0.00015
1524 27.84000 6682.55909 6649.00000 0.00015
1525 27.85500 6585.31775 6417.00000 0.00016
1526 27.87000 6467.67734 6335.00000 0.00016
1527 27.88500 6341.64841 6301.00000 0.00016
1528 27.90000 6217.09268 5949.00000 0.00017
1529 27.91500 6100.97889 5890.00000 0.00017
1530 27.93000 5997.58211 5775.00000 0.00017
1531 27.94500 5908.96296 5706.00000 0.00018
1532 27.96000 5835.46783 5617.00000 0.00018
1533 27.97500 5776.20792 5794.00000 0.00017
1534 27.99000 5729.51188 5525.00000 0.00018
1535 28.00500 5693.32986 5592.00000 0.00018
1536 28.02000 5665.55895 5639.00000 0.00018
1537 28.03500 5644.27028 5729.00000 0.00017
1538 28.05000 5627.83683 5559.00000 0.00018
1539 28.06500 5614.97771 5640.00000 0.00018
1540 28.08000 5604.74358 5617.00000 0.00018
1541 28.09500 5596.46929 5794.00000 0.00017
1542 28.11000 5589.71497 5545.00000 0.00018
1543 28.12500 5584.21036 5647.00000 0.00018
1544 28.14000 5579.81037 5587.00000 0.00018
1545 28.15500 5576.46520 5740.00000 0.00017
1546 28.17000 5574.20554 5709.00000 0.00018
1547 28.18500 5573.14210 5808.00000 0.00017
1548 28.20000 5573.47921 5841.00000 0.00017
1549 28.21500 5575.54175 5894.00000 0.00017
1550 28.23000 5579.81413 5945.00000 0.00017
1551 28.24500 5586.99134 5873.00000 0.00017
1552 28.26000 5598.03643 6132.00000 0.00016
1553 28.27500 5614.23876 6069.00000 0.00016
1554 28.29000 5637.24794 6160.00000 0.00016
1555 28.30500 5669.06491 6344.00000 0.00016
1556 28.32000 5712.05392 6306.00000 0.00016
1557 28.33500 5768.76121 6433.00000 0.00016
1558 28.35000 5841.70638 6647.00000 0.00015
1559 28.36500 5933.05114 6520.00000 0.00015
1560 28.38000 6044.17641 6528.00000 0.00015
1561 28.39500 6175.21515 6599.00000 0.00015
1562 28.41000 6324.62141 6815.00000 0.00015
1563 28.42500 6488.86146 6791.00000 0.00015
1564 28.44000 6662.27672 7005.00000 0.00014
1565 28.45500 6837.13376 6927.00000 0.00014
1566 28.47000 7003.93326 7108.00000 0.00014
1567 28.48500 7152.23903 7023.00000 0.00014
1568 28.50000 7272.46025 7112.00000 0.00014
1569 28.51500 7358.63193 7260.00000 0.00014
1570 28.53000 7410.92618 7324.00000 0.00014
1571 28.54500 7435.60328 7539.00000 0.00013
1572 28.56000 7441.60506 7791.00000 0.00013
1573 28.57500 7435.99227 7903.00000 0.00013
1574 28.59000 7420.95133 7929.00000 0.00013
1575 28.60500 7393.31952 8331.00000 0.00012
1576 28.62000 7346.00161 8379.00000 0.00012
1577 28.63500 7270.58818 8221.00000 0.00012
1578 28.65000 7161.09417 8155.00000 0.00012
1579 28.66500 7017.49960 8037.00000 0.00012
1580 28.68000 6847.04464 7617.00000 0.00013
1581 28.69500 6661.79807 7628.00000 0.00013
1582 28.71000 6474.66986 6997.00000 0.00014
1583 28.72500 6296.41471 6909.00000 0.00014
1584 28.74000 6134.60426 6576.00000 0.00015
1585 28.75500 5993.84922 6425.00000 0.00016
1586 28.77000 5876.41006 6254.00000 0.00016
1587 28.78500 5782.81798 6222.00000 0.00016
1588 28.80000 5712.44284 6078.00000 0.00016
1589 28.81500 5664.01469 5961.00000 0.00017
1590 28.83000 5636.07936 6010.00000 0.00017
1591 28.84500 5627.34551 5911.00000 0.00017
1592 28.86000 5636.87889 5845.00000 0.00017
1593 28.87500 5664.13124 5882.00000 0.00017
1594 28.89000 5708.79819 5920.00000 0.00017
1595 28.90500 5770.54600 6113.00000 0.00016
1596 28.92000 5848.65896 6151.00000 0.00016
1597 28.93500 5941.67803 6123.00000 0.00016
1598 28.95000 6047.09896 6321.00000 0.00016
1599 28.96500 6161.17076 6478.00000 0.00015
1600 28.98000 6278.81305 6578.00000 0.00015
1601 28.99500 6393.71064 6662.00000 0.00015
1602 29.01000 6498.77246 6624.00000 0.00015
1603 29.02500 6587.24007 6729.00000 0.00015
1604 29.04000 6654.45133 7038.00000 0.00014
1605 29.05500 6699.40445 6704.00000 0.00015
1606 29.07000 6724.67787 6814.00000 0.00015
1607 29.08500 6734.30045 6748.00000 0.00015
1608 29.10000 6731.02941 6529.00000 0.00015
1609 29.11500 6714.82205 6523.00000 0.00015
1610 29.13000 6683.13127 6783.00000 0.00015
1611 29.14500 6632.71734 6560.00000 0.00015
1612 29.16000 6562.12759 6487.00000 0.00015
1613 29.17500 6473.36900 6347.00000 0.00016
1614 29.19000 6371.48394 6433.00000 0.00016
1615 29.20500 6262.45647 6272.00000 0.00016
1616 29.22000 6151.29179 6453.00000 0.00015
1617 29.23500 6041.49755 6335.00000 0.00016
1618 29.25000 5935.71118 6339.00000 0.00016
1619 29.26500 5836.47936 6188.00000 0.00016
1620 29.28000 5746.44705 6167.00000 0.00016
1621 29.29500 5667.98748 6133.00000 0.00016
1622 29.31000 5602.80800 5959.00000 0.00017
1623 29.32500 5551.88095 5901.00000 0.00017
1624 29.34000 5515.64226 5954.00000 0.00017
1625 29.35500 5494.25502 5709.00000 0.00018
1626 29.37000 5487.80598 5922.00000 0.00017
1627 29.38500 5496.39337 5889.00000 0.00017
1628 29.40000 5520.10815 5866.00000 0.00017
1629 29.41500 5558.92483 5916.00000 0.00017
1630 29.43000 5612.52562 5729.00000 0.00017
1631 29.44500 5680.09692 5999.00000 0.00017
1632 29.46000 5760.15238 6049.00000 0.00017
1633 29.47500 5850.44105 6269.00000 0.00016
1634 29.49000 5947.98487 6326.00000 0.00016
1635 29.50500 6049.21251 6588.00000 0.00015
1636 29.52000 6150.41224 6551.00000 0.00015
1637 29.53500 6248.37200 6633.00000 0.00015
1638 29.55000 6341.61775 6962.00000 0.00014
1639 29.56500 6432.02566 6818.00000 0.00015
1640 29.58000 6525.92780 6946.00000 0.00014
1641 29.59500 6633.41085 7234.00000 0.00014
1642 29.61000 6765.55903 7255.00000 0.00014
1643 29.62500 6930.98359 7104.00000 0.00014
1644 29.64000 7133.12836 7376.00000 0.00014
1645 29.65500 7368.78334 7543.00000 0.00013
1646 29.67000 7627.54064 7618.00000 0.00013
1647 29.68500 7891.92110 7899.00000 0.00013
1648 29.70000 8138.13790 8084.00000 0.00012
1649 29.71500 8337.81607 8335.00000 0.00012
1650 29.73000 8461.47514 8629.00000 0.00012
1651 29.74500 8484.64395 8297.00000 0.00012
1652 29.76000 8395.83421 8188.00000 0.00012
1653 29.77500 8202.28274 7832.00000 0.00013
1654 29.79000 7928.52236 7909.00000 0.00013
1655 29.80500 7607.84863 7292.00000 0.00014
1656 29.82000 7272.61503 7253.00000 0.00014
1657 29.83500 6948.63692 6849.00000 0.00015
1658 29.85000 6653.81413 6573.00000 0.00015
1659 29.86500 6398.83989 6429.00000 0.00016
1660 29.88000 6188.49350 6259.00000 0.00016
1661 29.89500 6023.07354 6077.00000 0.00016
1662 29.91000 5899.69027 5949.00000 0.00017
1663 29.92500 5813.56785 5997.00000 0.00017
1664 29.94000 5759.30531 6087.00000 0.00016
1665 29.95500 5732.06953 6131.00000 0.00016
1666 29.97000 5728.68312 5946.00000 0.00017
1667 29.98500 5748.45472 6091.00000 0.00016
1668 30.00000 5793.44171 5866.00000 0.00017
1669 30.01500 5867.88569 5602.00000 0.00018
1670 30.03000 5977.08240 5589.00000 0.00018
1671 30.04500 6125.94660 5645.00000 0.00018
1672 30.06000 6317.61308 5742.00000 0.00017
1673 30.07500 6552.26557 5967.00000 0.00017
1674 30.09000 6825.83161 6258.00000 0.00016
1675 30.10500 7129.01077 6476.00000 0.00015
1676 30.12000 7446.67370 6702.00000 0.00015
1677 30.13500 7757.80833 7499.00000 0.00013
1678 30.15000 8036.18322 7769.00000 0.00013
1679 30.16500 8252.18659 8449.00000 0.00012
1680 30.18000 8376.76065 8731.00000 0.00011
1681 30.19500 8388.11266 8515.00000 0.00012
1682 30.21000 8279.56325 8465.00000 0.00012
1683 30.22500 8063.98848 8320.00000 0.00012
1684 30.24000 7770.05283 7733.00000 0.00013
1685 30.25500 7432.56839 7198.00000 0.00014
1686 30.27000 7083.33212 6447.00000 0.00016
1687 30.28500 6746.53672 6367.00000 0.00016
1688 30.30000 6438.13249 5868.00000 0.00017
1689 30.31500 6166.93261 5528.00000 0.00018
1690 30.33000 5936.07476 5398.00000 0.00019
1691 30.34500 5744.49145 5261.00000 0.00019
1692 30.36000 5588.33660 4973.00000 0.00020
1693 30.37500 5462.40640 5036.00000 0.00020
1694 30.39000 5361.30593 4948.00000 0.00020
1695 30.40500 5280.17991 5022.00000 0.00020
1696 30.42000 5214.96888 5040.00000 0.00020
1697 30.43500 5162.39509 4904.00000 0.00020
1698 30.45000 5119.87771 4783.00000 0.00021
1699 30.46500 5085.44192 4892.00000 0.00020
1700 30.48000 5057.61345 4948.00000 0.00020
1701 30.49500 5035.29704 4723.00000 0.00021
1702 30.51000 5017.65503 4923.00000 0.00020
1703 30.52500 5004.00348 4788.00000 0.00021
1704 30.54000 4993.73435 4926.00000 0.00020
1705 30.55500 4986.26452 4706.00000 0.00021
1706 30.57000 4981.00797 4858.00000 0.00021
1707 30.58500 4977.36706 4796.00000 0.00021
1708 30.60000 4974.74130 4782.00000 0.00021
1709 30.61500 4972.55906 4753.00000 0.00021
1710 30.63000 4970.34642 4786.00000 0.00021
1711 30.64500 4967.84645 4674.00000 0.00021
1712 30.66000 4965.16283 4787.00000 0.00021
1713 30.67500 4962.85933 4725.00000 0.00021
1714 30.69000 4961.86042 4748.00000 0.00021
1715 30.70500 4963.45719 4829.00000 0.00021
1716 30.72000 4969.09241 4673.00000 0.00021
1717 30.73500 4980.32115 4808.00000 0.00021
1718 30.75000 4998.77282 4821.00000 0.00021
1719 30.76500 5026.09114 4922.00000 0.00020
1720 30.78000 5063.81788 4730.00000 0.00021
1721 30.79500 5113.20715 4800.00000 0.00021
1722 30.81000 5174.97276 4758.00000 0.00021
1723 30.82500 5248.98539 4936.00000 0.00020
1724 30.84000 5333.95480 4920.00000 0.00020
1725 30.85500 5427.15154 5187.00000 0.00019
1726 30.87000 5524.22808 5067.00000 0.00020
1727 30.88500 5619.19238 5154.00000 0.00019
1728 30.90000 5704.59250 5431.00000 0.00018
1729 30.91500 5772.07163 5217.00000 0.00019
1730 30.93000 5813.55240 5360.00000 0.00019
1731 30.94500 5823.19728 5585.00000 0.00018
1732 30.96000 5799.83073 5476.00000 0.00018
1733 30.97500 5748.06200 5432.00000 0.00018
1734 30.99000 5677.23806 5403.00000 0.00019
1735 31.00500 5598.76682 5377.00000 0.00019
1736 31.02000 5523.62356 5387.00000 0.00019
1737 31.03500 5461.18598 5309.00000 0.00019
1738 31.05000 5419.10467 5217.00000 0.00019
1739 31.06500 5403.58194 5190.00000 0.00019
1740 31.08000 5419.64434 5204.00000 0.00019
1741 31.09500 5471.16787 5279.00000 0.00019
1742 31.11000 5560.74456 5517.00000 0.00018
1743 31.12500 5689.33415 5448.00000 0.00018
1744 31.14000 5855.73351 5772.00000 0.00017
1745 31.15500 6055.92329 5865.00000 0.00017
1746 31.17000 6282.40844 6112.00000 0.00016
1747 31.18500 6523.71147 6410.00000 0.00016
1748 31.20000 6764.17357 7009.00000 0.00014
1749 31.21500 6984.22933 7306.00000 0.00014
1750 31.23000 7161.48898 7619.00000 0.00013
1751 31.24500 7273.29485 7775.00000 0.00013
1752 31.26000 7301.38351 7938.00000 0.00013
1753 31.27500 7237.89427 7801.00000 0.00013
1754 31.29000 7089.45253 7704.00000 0.00013
1755 31.30500 6875.66140 7262.00000 0.00014
1756 31.32000 6622.41503 6952.00000 0.00014
1757 31.33500 6354.62574 6603.00000 0.00015
1758 31.35000 6092.06495 6126.00000 0.00016
1759 31.36500 5848.43392 6001.00000 0.00017
1760 31.38000 5632.04521 5710.00000 0.00018
1761 31.39500 5446.88966 5412.00000 0.00018
1762 31.41000 5293.65447 5530.00000 0.00018
1763 31.42500 5170.65536 5290.00000 0.00019
1764 31.44000 5074.74050 5105.00000 0.00020
1765 31.45500 5001.92965 5136.00000 0.00019
1766 31.47000 4948.15109 5068.00000 0.00020
1767 31.48500 4909.67940 5084.00000 0.00020
1768 31.50000 4883.43917 4909.00000 0.00020
1769 31.51500 4867.16794 5012.00000 0.00020
1770 31.53000 4859.47866 4957.00000 0.00020
1771 31.54500 4859.86362 5067.00000 0.00020
1772 31.56000 4868.67203 5050.00000 0.00020
1773 31.57500 4887.07524 5122.00000 0.00020
1774 31.59000 4917.01566 5087.00000 0.00020
1775 31.60500 4961.11716 5182.00000 0.00019
1776 31.62000 5022.52558 5255.00000 0.00019
1777 31.63500 5104.63165 5292.00000 0.00019
1778 31.65000 5210.68223 5433.00000 0.00018
1779 31.66500 5343.22099 5690.00000 0.00018
1780 31.68000 5503.40029 5901.00000 0.00017
1781 31.69500 5690.20211 5959.00000 0.00017
1782 31.71000 5899.65234 6210.00000 0.00016
1783 31.72500 6124.15708 6241.00000 0.00016
1784 31.74000 6352.10349 6456.00000 0.00015
1785 31.75500 6567.86342 6777.00000 0.00015
1786 31.77000 6752.41535 6759.00000 0.00015
1787 31.78500 6885.05145 6723.00000 0.00015
1788 31.80000 6946.86126 7030.00000 0.00014
1789 31.81500 6925.97975 6668.00000 0.00015
1790 31.83000 6822.56742 6623.00000 0.00015
1791 31.84500 6649.91891 6501.00000 0.00015
1792 31.86000 6430.06231 6354.00000 0.00016
1793 31.87500 6186.79685 6390.00000 0.00016
1794 31.89000 5940.47359 6126.00000 0.00016
1795 31.90500 5706.00403 5871.00000 0.00017
1796 31.92000 5493.02156 5792.00000 0.00017
1797 31.93500 5306.79076 5672.00000 0.00018
1798 31.95000 5149.17468 5359.00000 0.00019
1799 31.96500 5019.50831 5349.00000 0.00019
1800 31.98000 4915.39205 5290.00000 0.00019
1801 31.99500 4833.40858 5020.00000 0.00020
1802 32.01000 4769.73445 4959.00000 0.00020
1803 32.02500 4720.61136 4965.00000 0.00020
1804 32.04000 4682.66015 4951.00000 0.00020
1805 32.05500 4653.04555 4910.00000 0.00020
1806 32.07000 4629.52028 4816.00000 0.00021
1807 32.08500 4610.38619 4674.00000 0.00021
1808 32.10000 4594.41010 4725.00000 0.00021
1809 32.11500 4580.72415 4579.00000 0.00022
1810 32.13000 4568.73071 4666.00000 0.00021
1811 32.14500 4558.02253 4676.00000 0.00021
1812 32.16000 4548.32119 4470.00000 0.00022
1813 32.17500 4539.43313 4540.00000 0.00022
1814 32.19000 4531.21975 4380.00000 0.00023
1815 32.20500 4523.57808 4497.00000 0.00022
1816 32.22000 4516.42861 4471.00000 0.00022
1817 32.23500 4509.70782 4610.00000 0.00022
1818 32.25000 4503.36353 4541.00000 0.00022
1819 32.26500 4497.35210 4563.00000 0.00022
1820 32.28000 4491.63642 4450.00000 0.00022
1821 32.29500 4486.18469 4393.00000 0.00023
1822 32.31000 4480.96947 4415.00000 0.00023
1823 32.32500 4475.96692 4497.00000 0.00022
1824 32.34000 4471.15627 4405.00000 0.00023
1825 32.35500 4466.51933 4320.00000 0.00023
1826 32.37000 4462.04012 4423.00000 0.00023
1827 32.38500 4457.70460 4439.00000 0.00023
1828 32.40000 4453.50031 4626.00000 0.00022
1829 32.41500 4449.41625 4441.00000 0.00023
1830 32.43000 4445.44263 4397.00000 0.00023
1831 32.44500 4441.57073 4307.00000 0.00023
1832 32.46000 4437.79276 4371.00000 0.00023
1833 32.47500 4434.10211 4428.00000 0.00023
1834 32.49000 4430.49450 4378.00000 0.00023
1835 32.50500 4426.96571 4453.00000 0.00022
1836 32.52000 4423.51306 4363.00000 0.00023
1837 32.53500 4420.13915 4222.00000 0.00024
1838 32.55000 4416.87413 4381.00000 0.00023
1839 32.56500 4413.59401 4407.00000 0.00023
1840 32.58000 4410.36820 4450.00000 0.00022
1841 32.59500 4407.19368 4374.00000 0.00023
1842 32.61000 4404.06768 4442.00000 0.00023
1843 32.62500 4400.98771 4327.00000 0.00023
1844 32.64000 4397.95138 4283.00000 0.00023
1845 32.65500 4394.95658 4265.00000 0.00023
1846 32.67000 4392.00141 4285.00000 0.00023
1847 32.68500 4389.08414 4209.00000 0.00024
1848 32.70000 4386.20319 4321.00000 0.00023
1849 32.71500 4383.35709 4339.00000 0.00023
1850 32.73000 4380.54442 4404.00000 0.00023
1851 32.74500 4377.76371 4337.00000 0.00023
1852 32.76000 4375.01295 4335.00000 0.00023
1853 32.77500 4372.28861 4268.00000 0.00023
1854 32.79000 4369.59870 4310.00000 0.00023
1855 32.80500 4366.94496 4236.00000 0.00024
1856 32.82000 4364.32051 4149.00000 0.00024
1857 32.83500 4361.72496 4304.00000 0.00023
1858 32.85000 4359.15796 4279.00000 0.00023
1859 32.86500 4356.61930 4284.00000 0.00023
1860 32.88000 4354.10885 4203.00000 0.00024
1861 32.89500 4351.62657 4238.00000 0.00024
1862 32.91000 4349.17254 4357.00000 0.00023
1863 32.92500 4346.74693 4410.00000 0.00023
1864 32.94000 4344.35003 4287.00000 0.00023
1865 32.95500 4341.98221 4210.00000 0.00024
1866 32.97000 4339.64400 4204.00000 0.00024
1867 32.98500 4337.33603 4346.00000 0.00023
1868 33.00000 4335.05907 4307.00000 0.00023
1869 33.01500 4332.81406 4344.00000 0.00023
1870 33.03000 4330.60270 4198.00000 0.00024
1871 33.04500 4328.42685 4460.00000 0.00022
1872 33.06000 4326.28869 4321.00000 0.00023
1873 33.07500 4324.19183 4261.00000 0.00023
1874 33.09000 4322.15242 4512.00000 0.00022
1875 33.10500 4320.13255 4311.00000 0.00023
1876 33.12000 4318.15310 4196.00000 0.00024
1877 33.13500 4316.22124 4290.00000 0.00023
1878 33.15000 4314.34089 4210.00000 0.00024
1879 33.16500 4312.51865 4237.00000 0.00024
1880 33.18000 4310.75931 4309.00000 0.00023
1881 33.19500 4309.04835 4262.00000 0.00023
1882 33.21000 4307.40502 4268.00000 0.00023
1883 33.22500 4305.83594 4230.00000 0.00024
1884 33.24000 4304.34843 4297.00000 0.00023
1885 33.25500 4302.94618 4296.00000 0.00023
1886 33.27000 4301.64137 4210.00000 0.00024
1887 33.28500 4300.44467 4269.00000 0.00023
1888 33.30000 4299.36861 4329.00000 0.00023
1889 33.31500 4298.42795 4332.00000 0.00023
1890 33.33000 4297.64044 4354.00000 0.00023
1891 33.34500 4297.02773 4302.00000 0.00023
1892 33.36000 4296.61704 4329.00000 0.00023
1893 33.37500 4296.44348 4237.00000 0.00024
1894 33.39000 4296.55391 4365.00000 0.00023
1895 33.40500 4297.01264 4462.00000 0.00022
1896 33.42000 4297.90994 4270.00000 0.00023
1897 33.43500 4299.37417 4404.00000 0.00023
1898 33.45000 4301.58818 4398.00000 0.00023
1899 33.46500 4304.81027 4237.00000 0.00024
1900 33.48000 4309.39900 4451.00000 0.00022
1901 33.49500 4315.83941 4366.00000 0.00023
1902 33.51000 4324.76648 4459.00000 0.00022
1903 33.52500 4336.97893 4599.00000 0.00022
1904 33.54000 4353.43458 4477.00000 0.00022
1905 33.55500 4375.21722 4553.00000 0.00022
1906 33.57000 4403.46593 4369.00000 0.00023
1907 33.58500 4439.26060 4561.00000 0.00022
1908 33.60000 4483.45818 4612.00000 0.00022
1909 33.61500 4536.49265 4841.00000 0.00021
1910 33.63000 4598.14024 4626.00000 0.00022
1911 33.64500 4667.27015 4676.00000 0.00021
1912 33.66000 4741.61766 4658.00000 0.00021
1913 33.67500 4817.62011 4807.00000 0.00021
1914 33.69000 4890.37482 4712.00000 0.00021
1915 33.70500 4953.81131 4832.00000 0.00021
1916 33.72000 5001.24926 4721.00000 0.00021
1917 33.73500 5026.55862 4773.00000 0.00021
1918 33.75000 5025.88729 4966.00000 0.00020
1919 33.76500 4999.25985 4627.00000 0.00022
1920 33.78000 4950.87431 4782.00000 0.00021
1921 33.79500 4887.61169 4739.00000 0.00021
1922 33.81000 4816.80847 4807.00000 0.00021
1923 33.82500 4744.55513 4715.00000 0.00021
1924 33.84000 4675.06813 4633.00000 0.00022
1925 33.85500 4610.79947 4631.00000 0.00022
1926 33.87000 4552.84222 4752.00000 0.00021
1927 33.88500 4501.40964 4656.00000 0.00021
1928 33.90000 4456.28183 4468.00000 0.00022
1929 33.91500 4417.11464 4516.00000 0.00022
1930 33.93000 4383.54826 4517.00000 0.00022
1931 33.94500 4355.18154 4577.00000 0.00022
1932 33.96000 4331.53769 4428.00000 0.00023
1933 33.97500 4312.08550 4435.00000 0.00023
1934 33.99000 4296.29086 4515.00000 0.00022
1935 34.00500 4283.67629 4371.00000 0.00023
1936 34.02000 4273.83897 4482.00000 0.00022
1937 34.03500 4266.46496 4294.00000 0.00023
1938 34.05000 4261.33756 4222.00000 0.00024
1939 34.06500 4258.37700 4324.00000 0.00023
1940 34.08000 4257.59527 4388.00000 0.00023
1941 34.09500 4259.05171 4332.00000 0.00023
1942 34.11000 4262.92438 4233.00000 0.00024
1943 34.12500 4269.46313 4408.00000 0.00023
1944 34.14000 4278.95949 4291.00000 0.00023
1945 34.15500 4291.70331 4147.00000 0.00024
1946 34.17000 4307.92721 4389.00000 0.00023
1947 34.18500 4327.74228 4307.00000 0.00023
1948 34.20000 4351.06998 4244.00000 0.00024
1949 34.21500 4377.57835 4253.00000 0.00024
1950 34.23000 4406.63394 4191.00000 0.00024
1951 34.24500 4437.28502 4180.00000 0.00024
1952 34.26000 4468.29747 4154.00000 0.00024
1953 34.27500 4498.28103 4340.00000 0.00023
1954 34.29000 4525.96765 4302.00000 0.00023
1955 34.30500 4550.68265 4409.00000 0.00023
1956 34.32000 4572.90070 4257.00000 0.00023
1957 34.33500 4594.54483 4481.00000 0.00022
1958 34.35000 4618.70332 4411.00000 0.00023
1959 34.36500 4648.83870 4525.00000 0.00022
1960 34.38000 4687.94243 4618.00000 0.00022
1961 34.39500 4737.76115 4582.00000 0.00022
1962 34.41000 4798.81396 4722.00000 0.00021
1963 34.42500 4869.98963 4785.00000 0.00021
1964 34.44000 4948.55074 4986.00000 0.00020
1965 34.45500 5030.18524 4906.00000 0.00020
1966 34.47000 5109.30441 5186.00000 0.00019
1967 34.48500 5179.80102 5198.00000 0.00019
1968 34.50000 5236.38749 5145.00000 0.00019
1969 34.51500 5276.14105 5215.00000 0.00019
1970 34.53000 5299.24870 5299.00000 0.00019
1971 34.54500 5308.13160 5209.00000 0.00019
1972 34.56000 5305.40222 5456.00000 0.00018
1973 34.57500 5292.06564 5438.00000 0.00018
1974 34.59000 5266.98253 5558.00000 0.00018
1975 34.60500 5227.72165 5322.00000 0.00019
1976 34.62000 5172.38690 5560.00000 0.00018
1977 34.63500 5101.51056 5385.00000 0.00019
1978 34.65000 5018.96262 5251.00000 0.00019
1979 34.66500 4931.28562 5102.00000 0.00020
1980 34.68000 4845.54434 4927.00000 0.00020
1981 34.69500 4768.12074 4936.00000 0.00020
1982 34.71000 4704.06216 4751.00000 0.00021
1983 34.72500 4657.16382 4713.00000 0.00021
1984 34.74000 4630.25079 4714.00000 0.00021
1985 34.75500 4625.39133 4506.00000 0.00022
1986 34.77000 4643.96606 4614.00000 0.00022
1987 34.78500 4686.60118 4674.00000 0.00021
1988 34.80000 4752.98871 4696.00000 0.00021
1989 34.81500 4841.61387 4926.00000 0.00020
1990 34.83000 4949.41231 5086.00000 0.00020
1991 34.84500 5071.39913 5108.00000 0.00020
1992 34.86000 5200.34466 5436.00000 0.00018
1993 34.87500 5326.61712 5698.00000 0.00018
1994 34.89000 5438.38673 5818.00000 0.00017
1995 34.90500 5522.52442 6014.00000 0.00017
1996 34.92000 5566.62192 6247.00000 0.00016
1997 34.93500 5562.17893 6242.00000 0.00016
1998 34.95000 5507.81390 6022.00000 0.00017
1999 34.96500 5410.30483 6048.00000 0.00017
2000 34.98000 5282.27735 5807.00000 0.00017
2001 34.99500 5138.03290 5587.00000 0.00018
2002 35.01000 4990.14159 5225.00000 0.00019
2003 35.02500 4847.98356 4916.00000 0.00020
2004 35.04000 4717.74045 4867.00000 0.00021
2005 35.05500 4602.94845 4576.00000 0.00022
2006 35.07000 4505.10786 4430.00000 0.00023
2007 35.08500 4424.21361 4316.00000 0.00023
2008 35.10000 4359.21324 4325.00000 0.00023
2009 35.11500 4308.41594 4377.00000 0.00023
2010 35.13000 4269.85337 4422.00000 0.00023
2011 35.14500 4241.55718 4323.00000 0.00023
2012 35.16000 4221.77575 4281.00000 0.00023
2013 35.17500 4209.17228 4205.00000 0.00024
2014 35.19000 4202.85536 4121.00000 0.00024
2015 35.20500 4202.43200 4320.00000 0.00023
2016 35.22000 4208.01009 4133.00000 0.00024
2017 35.23500 4220.17594 4293.00000 0.00023
2018 35.25000 4239.94821 4409.00000 0.00023
2019 35.26500 4268.70268 4350.00000 0.00023
2020 35.28000 4308.05753 4273.00000 0.00023
2021 35.29500 4359.70787 4266.00000 0.00023
2022 35.31000 4425.20002 4425.00000 0.00023
2023 35.32500 4505.64128 4554.00000 0.00022
2024 35.34000 4601.34754 4706.00000 0.00021
2025 35.35500 4711.44335 4692.00000 0.00021
2026 35.37000 4833.44753 4786.00000 0.00021
2027 35.38500 4962.90491 4869.00000 0.00021
2028 35.40000 5093.15377 5070.00000 0.00020
2029 35.41500 5215.41964 4989.00000 0.00020
2030 35.43000 5319.47876 5170.00000 0.00019
2031 35.44500 5395.10551 5204.00000 0.00019
2032 35.46000 5434.07626 5371.00000 0.00019
2033 35.47500 5431.89447 5677.00000 0.00018
2034 35.49000 5388.47757 5523.00000 0.00018
2035 35.50500 5307.73619 5474.00000 0.00018
2036 35.52000 5197.31919 5446.00000 0.00018
2037 35.53500 5067.27967 5250.00000 0.00019
2038 35.55000 4928.34452 5052.00000 0.00020
2039 35.56500 4790.00199 4999.00000 0.00020
2040 35.58000 4659.36334 4894.00000 0.00020
2041 35.59500 4540.94889 4854.00000 0.00021
2042 35.61000 4437.07883 4636.00000 0.00022
2043 35.62500 4348.50887 4430.00000 0.00023
2044 35.64000 4274.74749 4316.00000 0.00023
2045 35.65500 4214.55424 4331.00000 0.00023
2046 35.67000 4166.24224 4425.00000 0.00023
2047 35.68500 4127.94248 4198.00000 0.00024
2048 35.70000 4097.80692 4246.00000 0.00024
2049 35.71500 4074.14778 4143.00000 0.00024
2050 35.73000 4055.51664 4189.00000 0.00024
2051 35.74500 4040.73348 4072.00000 0.00025
2052 35.76000 4028.87969 4072.00000 0.00025
2053 35.77500 4019.26918 3992.00000 0.00025
2054 35.79000 4011.41029 3953.00000 0.00025
2055 35.80500 4004.96745 4149.00000 0.00024
2056 35.82000 3999.72861 4083.00000 0.00024
2057 35.83500 3995.58175 4198.00000 0.00024
2058 35.85000 3992.50150 4039.00000 0.00025
2059 35.86500 3990.54583 4027.00000 0.00025
2060 35.88000 3989.86170 4039.00000 0.00025
2061 35.89500 3990.69773 3999.00000 0.00025
2062 35.91000 3993.42084 3985.00000 0.00025
2063 35.92500 3998.53230 3976.00000 0.00025
2064 35.94000 4006.67700 4063.00000 0.00025
2065 35.95500 4018.63809 4062.00000 0.00025
2066 35.97000 4035.30923 4008.00000 0.00025
2067 35.98500 4057.63655 3908.00000 0.00026
2068 36.00000 4086.52469 4179.00000 0.00024
2069 36.01500 4122.70570 4106.00000 0.00024
2070 36.03000 4166.57290 4136.00000 0.00024
2071 36.04500 4217.98460 4099.00000 0.00024
2072 36.06000 4276.04623 4276.00000 0.00023
2073 36.07500 4338.88676 4270.00000 0.00023
2074 36.09000 4403.49663 4196.00000 0.00024
2075 36.10500 4465.59094 4279.00000 0.00023
2076 36.12000 4519.70675 4350.00000 0.00023
2077 36.13500 4559.71033 4400.00000 0.00023
2078 36.15000 4579.83984 4427.00000 0.00023
2079 36.16500 4576.30943 4574.00000 0.00022
2080 36.18000 4548.82973 4407.00000 0.00023
2081 36.19500 4500.97778 4412.00000 0.00023
2082 36.21000 4438.96149 4446.00000 0.00022
2083 36.22500 4369.60426 4257.00000 0.00023
2084 36.24000 4298.78747 4107.00000 0.00024
2085 36.25500 4230.83372 4181.00000 0.00024
2086 36.27000 4168.55048 3941.00000 0.00025
2087 36.28500 4113.51287 3968.00000 0.00025
2088 36.30000 4066.35835 3984.00000 0.00025
2089 36.31500 4027.03668 3993.00000 0.00025
2090 36.33000 3995.01747 3926.00000 0.00025
2091 36.34500 3969.47336 3959.00000 0.00025
2092 36.36000 3949.44645 3964.00000 0.00025
2093 36.37500 3933.96375 4047.00000 0.00025
2094 36.39000 3922.13067 3915.00000 0.00026
2095 36.40500 3913.18663 3910.00000 0.00026
2096 36.42000 3906.53349 3945.00000 0.00025
2097 36.43500 3901.73803 3934.00000 0.00025
2098 36.45000 3898.52818 3972.00000 0.00025
2099 36.46500 3896.80132 4035.00000 0.00025
2100 36.48000 3896.53449 3877.00000 0.00026
2101 36.49500 3897.85056 3823.00000 0.00026
2102 36.51000 3901.10571 4118.00000 0.00024
2103 36.52500 3906.77047 4072.00000 0.00025
2104 36.54000 3915.48118 4028.00000 0.00025
2105 36.55500 3928.04288 4121.00000 0.00024
2106 36.57000 3945.39017 4093.00000 0.00024
2107 36.58500 3968.46907 4168.00000 0.00024
2108 36.60000 3998.33780 4171.00000 0.00024
2109 36.61500 4035.87260 4175.00000 0.00024
2110 36.63000 4081.64970 4262.00000 0.00023
2111 36.64500 4135.74395 4326.00000 0.00023
2112 36.66000 4197.49940 4319.00000 0.00023
2113 36.67500 4265.28395 4104.00000 0.00024
2114 36.69000 4336.25572 4184.00000 0.00024
2115 36.70500 4406.19808 4182.00000 0.00024
2116 36.72000 4469.52767 4235.00000 0.00024
2117 36.73500 4519.65290 4285.00000 0.00023
2118 36.75000 4549.92022 4419.00000 0.00023
2119 36.76500 4555.24222 4372.00000 0.00023
2120 36.78000 4533.93605 4357.00000 0.00023
2121 36.79500 4488.64840 4352.00000 0.00023
2122 36.81000 4425.50875 4209.00000 0.00024
2123 36.82500 4352.01303 4286.00000 0.00023
2124 36.84000 4275.03857 4240.00000 0.00024
2125 36.85500 4199.83950 4312.00000 0.00023
2126 36.87000 4130.01770 4132.00000 0.00024
2127 36.88500 4067.63191 4105.00000 0.00024
2128 36.90000 4013.66335 4252.00000 0.00024
2129 36.91500 3968.21185 4110.00000 0.00024
2130 36.93000 3930.87176 4052.00000 0.00025
2131 36.94500 3900.82802 4019.00000 0.00025
2132 36.96000 3877.06468 4005.00000 0.00025
2133 36.97500 3858.50962 4062.00000 0.00025
2134 36.99000 3844.14655 3942.00000 0.00025
2135 37.00500 3833.07381 3984.00000 0.00025
2136 37.02000 3824.53651 3994.00000 0.00025
2137 37.03500 3818.01988 3945.00000 0.00025
2138 37.05000 3813.06462 3925.00000 0.00025
2139 37.06500 3809.38557 3930.00000 0.00025
2140 37.08000 3806.81408 3937.00000 0.00025
2141 37.09500 3805.28272 3794.00000 0.00026
2142 37.11000 3804.81687 4035.00000 0.00025
2143 37.12500 3805.53394 3973.00000 0.00025
2144 37.14000 3807.64942 3941.00000 0.00025
2145 37.15500 3811.48701 3850.00000 0.00026
2146 37.17000 3817.48885 3947.00000 0.00025
2147 37.18500 3826.22023 3973.00000 0.00025
2148 37.20000 3838.36202 4084.00000 0.00024
2149 37.21500 3854.68387 4045.00000 0.00025
2150 37.23000 3875.99216 4094.00000 0.00024
2151 37.24500 3903.04882 4020.00000 0.00025
2152 37.26000 3936.46006 4018.00000 0.00025
2153 37.27500 3976.53666 4130.00000 0.00024
2154 37.29000 4023.12908 3986.00000 0.00025
2155 37.30500 4075.44262 4261.00000 0.00023
2156 37.32000 4131.84443 4422.00000 0.00023
2157 37.33500 4189.69312 4245.00000 0.00024
2158 37.35000 4245.25419 4210.00000 0.00024
2159 37.36500 4293.81352 4234.00000 0.00024
2160 37.38000 4330.17010 4225.00000 0.00024
2161 37.39500 4349.68127 4275.00000 0.00023
2162 37.41000 4349.67015 4425.00000 0.00023
2163 37.42500 4330.79744 4260.00000 0.00023
2164 37.44000 4297.06910 4336.00000 0.00023
2165 37.45500 4254.64747 4260.00000 0.00023
2166 37.47000 4210.11597 4255.00000 0.00024
2167 37.48500 4169.30496 4289.00000 0.00023
2168 37.50000 4136.93862 4371.00000 0.00023
2169 37.51500 4116.71765 4310.00000 0.00023
2170 37.53000 4111.51640 4250.00000 0.00024
2171 37.54500 4123.52189 4339.00000 0.00023
2172 37.56000 4154.24848 4236.00000 0.00024
2173 37.57500 4204.49056 4418.00000 0.00023
2174 37.59000 4274.11333 4457.00000 0.00022
2175 37.60500 4361.80982 4246.00000 0.00024
2176 37.62000 4464.80457 4388.00000 0.00023
2177 37.63500 4578.47432 4395.00000 0.00023
2178 37.65000 4696.00235 4449.00000 0.00022
2179 37.66500 4808.21027 4418.00000 0.00023
2180 37.68000 4903.85711 4292.00000 0.00023
2181 37.69500 4970.80147 4472.00000 0.00022
2182 37.71000 4998.37465 4339.00000 0.00023
2183 37.72500 4980.63394 4483.00000 0.00022
2184 37.74000 4918.86373 4385.00000 0.00023
2185 37.75500 4821.41317 4464.00000 0.00022
2186 37.77000 4700.70026 4409.00000 0.00023
2187 37.78500 4569.30283 4335.00000 0.00023
2188 37.80000 4437.63548 4248.00000 0.00024
2189 37.81500 4313.04079 4207.00000 0.00024
2190 37.83000 4200.10546 4168.00000 0.00024
2191 37.84500 4101.24487 4120.00000 0.00024
2192 37.86000 4017.25177 4079.00000 0.00025
2193 37.87500 3947.74442 4042.00000 0.00025
2194 37.89000 3891.53892 3908.00000 0.00026
2195 37.90500 3846.94220 3890.00000 0.00026
2196 37.92000 3812.05178 3836.00000 0.00026
2197 37.93500 3784.92821 3842.00000 0.00026
2198 37.95000 3763.74515 3745.00000 0.00027
2199 37.96500 3746.87935 3830.00000 0.00026
2200 37.98000 3732.96657 3710.00000 0.00027
2201 37.99500 3720.94113 3772.00000 0.00027
2202 38.01000 3710.06136 3801.00000 0.00026
2203 38.02500 3699.89585 3675.00000 0.00027
2204 38.04000 3690.28992 3607.00000 0.00028
2205 38.05500 3681.22630 3579.00000 0.00028
2206 38.07000 3672.73508 3596.00000 0.00028
2207 38.08500 3664.85816 3518.00000 0.00028
2208 38.10000 3657.61817 3719.00000 0.00027
2209 38.11500 3651.01557 3794.00000 0.00026
2210 38.13000 3645.03159 3676.00000 0.00027
2211 38.14500 3639.63269 3630.00000 0.00028
2212 38.16000 3634.77625 3593.00000 0.00028
2213 38.17500 3630.41419 3449.00000 0.00029
2214 38.19000 3626.49687 3485.00000 0.00029
2215 38.20500 3622.97627 3563.00000 0.00028
2216 38.22000 3619.80748 3686.00000 0.00027
2217 38.23500 3616.94209 3670.00000 0.00027
2218 38.25000 3614.35027 3643.00000 0.00027
2219 38.26500 3612.11657 3620.00000 0.00028
2220 38.28000 3610.15817 3556.00000 0.00028
2221 38.29500 3608.47683 3477.00000 0.00029
2222 38.31000 3607.07842 3583.00000 0.00028
2223 38.32500 3605.98874 3563.00000 0.00028
2224 38.34000 3605.24591 3555.00000 0.00028
2225 38.35500 3604.90873 3555.00000 0.00028
2226 38.37000 3605.06419 3514.00000 0.00028
2227 38.38500 3605.83751 3442.00000 0.00029
2228 38.40000 3607.40443 3432.00000 0.00029
2229 38.41500 3610.00460 3571.00000 0.00028
2230 38.43000 3613.95427 3420.00000 0.00029
2231 38.44500 3619.65502 3523.00000 0.00028
2232 38.46000 3627.59448 3606.00000 0.00028
2233 38.47500 3638.33392 3592.00000 0.00028
2234 38.49000 3652.47853 3647.00000 0.00027
2235 38.50500 3670.63769 3572.00000 0.00028
2236 38.52000 3693.32899 3634.00000 0.00028
2237 38.53500 3720.90333 3567.00000 0.00028
2238 38.55000 3753.42124 3653.00000 0.00027
2239 38.56500 3790.49883 3703.00000 0.00027
2240 38.58000 3831.20219 3594.00000 0.00028
2241 38.59500 3873.85112 3599.00000 0.00028
2242 38.61000 3915.90774 3784.00000 0.00026
2243 38.62500 3953.96402 3766.00000 0.00027
2244 38.64000 3983.97097 3655.00000 0.00027
2245 38.65500 4001.86896 3733.00000 0.00027
2246 38.67000 4004.64512 3666.00000 0.00027
2247 38.68500 3991.46644 3659.00000 0.00027
2248 38.70000 3964.16217 3643.00000 0.00027
2249 38.71500 3926.59312 3754.00000 0.00027
2250 38.73000 3883.30654 3582.00000 0.00028
2251 38.74500 3838.38355 3501.00000 0.00029
2252 38.76000 3795.00001 3686.00000 0.00027
2253 38.77500 3755.10137 3539.00000 0.00028
2254 38.79000 3719.85787 3649.00000 0.00027
2255 38.80500 3689.80012 3529.00000 0.00028
2256 38.82000 3664.99732 3559.00000 0.00028
2257 38.83500 3645.20094 3565.00000 0.00028
2258 38.85000 3629.96551 3465.00000 0.00029
2259 38.86500 3618.75196 3469.00000 0.00029
2260 38.88000 3611.01343 3451.00000 0.00029
2261 38.89500 3606.26228 3493.00000 0.00029
2262 38.91000 3604.11847 3587.00000 0.00028
2263 38.92500 3604.34251 3662.00000 0.00027
2264 38.94000 3606.85628 3544.00000 0.00028
2265 38.95500 3611.76737 3604.00000 0.00028
2266 38.97000 3619.36682 3645.00000 0.00027
2267 38.98500 3630.15318 3585.00000 0.00028
2268 39.00000 3644.83668 3614.00000 0.00028
2269 39.01500 3664.33948 3651.00000 0.00027
2270 39.03000 3689.78173 3681.00000 0.00027
2271 39.04500 3722.40931 3815.00000 0.00026
2272 39.06000 3763.58111 3839.00000 0.00026
2273 39.07500 3814.60738 3760.00000 0.00027
2274 39.09000 3876.60449 3705.00000 0.00027
2275 39.10500 3950.29028 3973.00000 0.00025
2276 39.12000 4035.73667 3917.00000 0.00026
2277 39.13500 4132.09368 4209.00000 0.00024
2278 39.15000 4237.31871 4213.00000 0.00024
2279 39.16500 4347.98025 4265.00000 0.00023
2280 39.18000 4459.25521 4427.00000 0.00023
2281 39.19500 4565.25864 4404.00000 0.00023
2282 39.21000 4659.74684 4726.00000 0.00021
2283 39.22500 4737.05749 4724.00000 0.00021
2284 39.24000 4793.13656 4799.00000 0.00021
2285 39.25500 4826.61934 4917.00000 0.00020
2286 39.27000 4839.68621 4754.00000 0.00021
2287 39.28500 4837.74657 4818.00000 0.00021
2288 39.30000 4827.51343 4801.00000 0.00021
2289 39.31500 4814.32911 4790.00000 0.00021
2290 39.33000 4800.19043 4742.00000 0.00021
2291 39.34500 4783.18757 4528.00000 0.00022
2292 39.36000 4758.31053 4390.00000 0.00023
2293 39.37500 4719.41204 4269.00000 0.00023
2294 39.39000 4661.93511 4391.00000 0.00023
2295 39.40500 4585.33106 4264.00000 0.00023
2296 39.42000 4493.67270 4210.00000 0.00024
2297 39.43500 4394.00049 4238.00000 0.00024
2298 39.45000 4293.68727 4147.00000 0.00024
2299 39.46500 4198.49275 4091.00000 0.00024
2300 39.48000 4111.94538 4091.00000 0.00024
2301 39.49500 4035.49963 3928.00000 0.00025
2302 39.51000 3969.04857 3908.00000 0.00026
2303 39.52500 3911.48184 3844.00000 0.00026
2304 39.54000 3861.23696 3820.00000 0.00026
2305 39.55500 3816.79399 3649.00000 0.00027
2306 39.57000 3777.02482 3852.00000 0.00026
2307 39.58500 3741.35586 3741.00000 0.00027
2308 39.60000 3709.67517 3723.00000 0.00027
2309 39.61500 3682.14197 3771.00000 0.00027
2310 39.63000 3659.03091 3683.00000 0.00027
2311 39.64500 3640.62987 3761.00000 0.00027
2312 39.66000 3627.25434 3684.00000 0.00027
2313 39.67500 3619.13200 3632.00000 0.00028
2314 39.69000 3616.72822 3672.00000 0.00027
2315 39.70500 3620.53176 3531.00000 0.00028
2316 39.72000 3631.09521 3542.00000 0.00028
2317 39.73500 3648.98360 3758.00000 0.00027
2318 39.75000 3674.69164 3663.00000 0.00027
2319 39.76500 3708.52878 3816.00000 0.00026
2320 39.78000 3750.47228 3692.00000 0.00027
2321 39.79500 3799.98702 3759.00000 0.00027
2322 39.81000 3855.81251 3880.00000 0.00026
2323 39.82500 3915.72930 4026.00000 0.00025
2324 39.84000 3976.35602 4003.00000 0.00025
2325 39.85500 4033.08591 3873.00000 0.00026
2326 39.87000 4080.36307 4139.00000 0.00024
2327 39.88500 4112.54237 4340.00000 0.00023
2328 39.90000 4125.40883 4149.00000 0.00024
2329 39.91500 4117.87920 4112.00000 0.00024
2330 39.93000 4092.87689 4083.00000 0.00024
2331 39.94500 4056.61112 4164.00000 0.00024
2332 39.96000 4016.47245 4102.00000 0.00024
2333 39.97500 3979.44504 4080.00000 0.00025
2334 39.99000 3951.14499 4102.00000 0.00024
2335 40.00500 3935.66106 4292.00000 0.00023
2336 40.02000 3935.69812 4064.00000 0.00025
2337 40.03500 3952.72236 3931.00000 0.00025
2338 40.05000 3986.99950 3981.00000 0.00025
2339 40.06500 4037.54722 3954.00000 0.00025
2340 40.08000 4101.98046 4071.00000 0.00025
2341 40.09500 4176.33754 4109.00000 0.00024
2342 40.11000 4254.98096 4050.00000 0.00025
2343 40.12500 4330.78624 3897.00000 0.00026
2344 40.14000 4395.91187 4033.00000 0.00025
2345 40.15500 4443.32986 4091.00000 0.00024
2346 40.17000 4468.75602 4187.00000 0.00024
2347 40.18500 4471.88302 4120.00000 0.00024
2348 40.20000 4455.94192 4201.00000 0.00024
2349 40.21500 4425.85761 4274.00000 0.00023
2350 40.23000 4386.31558 4074.00000 0.00025
2351 40.24500 4340.48658 4181.00000 0.00024
2352 40.26000 4289.58388 4257.00000 0.00023
2353 40.27500 4233.10849 4176.00000 0.00024
2354 40.29000 4169.82239 4113.00000 0.00024
2355 40.30500 4099.17512 4100.00000 0.00024
2356 40.32000 4022.39429 3988.00000 0.00025
2357 40.33500 3942.48007 4063.00000 0.00025
2358 40.35000 3863.19193 4060.00000 0.00025
2359 40.36500 3787.88390 3903.00000 0.00026
2360 40.38000 3718.87896 3905.00000 0.00026
2361 40.39500 3657.42366 3858.00000 0.00026
2362 40.41000 3603.92371 3721.00000 0.00027
2363 40.42500 3558.21292 3758.00000 0.00027
2364 40.44000 3519.76404 3827.00000 0.00026
2365 40.45500 3487.83750 3685.00000 0.00027
2366 40.47000 3461.58705 3562.00000 0.00028
2367 40.48500 3440.13996 3542.00000 0.00028
2368 40.50000 3422.65733 3577.00000 0.00028
2369 40.51500 3408.37298 3648.00000 0.00027
2370 40.53000 3396.61538 3514.00000 0.00028
2371 40.54500 3386.94697 3485.00000 0.00029
2372 40.56000 3378.88050 3566.00000 0.00028
2373 40.57500 3372.09942 3429.00000 0.00029
2374 40.59000 3366.37913 3368.00000 0.00030
2375 40.60500 3361.57286 3374.00000 0.00030
2376 40.62000 3357.59907 3335.00000 0.00030
2377 40.63500 3354.43117 3218.00000 0.00031
2378 40.65000 3352.08943 3458.00000 0.00029
2379 40.66500 3350.63411 3456.00000 0.00029
2380 40.68000 3350.15850 3404.00000 0.00029
2381 40.69500 3350.78027 3383.00000 0.00030
2382 40.71000 3352.63013 3297.00000 0.00030
2383 40.72500 3355.83706 3328.00000 0.00030
2384 40.74000 3360.50993 3241.00000 0.00031
2385 40.75500 3366.71541 3345.00000 0.00030
2386 40.77000 3374.45170 3315.00000 0.00030
2387 40.78500 3383.61748 3336.00000 0.00030
2388 40.80000 3393.97718 3322.00000 0.00030
2389 40.81500 3405.12960 3194.00000 0.00031
2390 40.83000 3416.49855 3261.00000 0.00031
2391 40.84500 3427.38011 3192.00000 0.00031
2392 40.86000 3437.08724 3358.00000 0.00030
2393 40.87500 3445.19916 3245.00000 0.00031
2394 40.89000 3451.83089 3375.00000 0.00030
2395 40.90500 3457.72885 3306.00000 0.00030
2396 40.92000 3464.07664 3294.00000 0.00030
2397 40.93500 3472.10295 3365.00000 0.00030
2398 40.95000 3482.71116 3445.00000 0.00029
2399 40.96500 3496.25620 3364.00000 0.00030
2400 40.98000 3512.45282 3376.00000 0.00030
2401 40.99500 3530.35987 3471.00000 0.00029
2402 41.01000 3548.42367 3411.00000 0.00029
2403 41.02500 3564.59411 3503.00000 0.00029
2404 41.04000 3576.53320 3478.00000 0.00029
2405 41.05500 3581.93466 3470.00000 0.00029
2406 41.07000 3578.99075 3503.00000 0.00029
2407 41.08500 3566.97795 3456.00000 0.00029
2408 41.10000 3546.66030 3394.00000 0.00029
2409 41.11500 3520.13085 3415.00000 0.00029
2410 41.13000 3490.10897 3456.00000 0.00029
2411 41.14500 3459.16163 3488.00000 0.00029
2412 41.16000 3429.25665 3304.00000 0.00030
2413 41.17500 3401.68232 3401.00000 0.00029
2414 41.19000 3377.15773 3330.00000 0.00030
2415 41.20500 3355.98207 3290.00000 0.00030
2416 41.22000 3338.16136 3279.00000 0.00030
2417 41.23500 3323.50542 3253.00000 0.00031
2418 41.25000 3311.70332 3161.00000 0.00032
2419 41.26500 3302.38365 3284.00000 0.00030
2420 41.28000 3295.16209 3295.00000 0.00030
2421 41.29500 3289.67630 3132.00000 0.00032
2422 41.31000 3285.60848 3178.00000 0.00031
2423 41.32500 3282.69674 3239.00000 0.00031
2424 41.34000 3280.73769 3233.00000 0.00031
2425 41.35500 3279.58299 3180.00000 0.00031
2426 41.37000 3279.13266 3317.00000 0.00030
2427 41.38500 3279.32735 3219.00000 0.00031
2428 41.40000 3280.14142 3250.00000 0.00031
2429 41.41500 3281.57772 3088.00000 0.00032
2430 41.43000 3283.66483 3249.00000 0.00031
2431 41.44500 3286.45728 3145.00000 0.00032
2432 41.46000 3290.03930 3250.00000 0.00031
2433 41.47500 3294.53301 3172.00000 0.00032
2434 41.49000 3300.11207 3229.00000 0.00031
2435 41.50500 3307.02223 3185.00000 0.00031
2436 41.52000 3315.60993 3195.00000 0.00031
2437 41.53500 3326.35954 3266.00000 0.00031
2438 41.55000 3339.93834 3303.00000 0.00030
2439 41.56500 3357.24544 3251.00000 0.00031
2440 41.58000 3379.45785 3462.00000 0.00029
2441 41.59500 3408.06233 3420.00000 0.00029
2442 41.61000 3444.85841 3464.00000 0.00029
2443 41.62500 3491.91562 3458.00000 0.00029
2444 41.64000 3551.46904 3493.00000 0.00029
2445 41.65500 3625.74109 3703.00000 0.00027
2446 41.67000 3716.68341 3739.00000 0.00027
2447 41.68500 3825.63515 3965.00000 0.00025
2448 41.70000 3952.89291 4001.00000 0.00025
2449 41.71500 4097.18648 4361.00000 0.00023
2450 41.73000 4254.98149 4559.00000 0.00022
2451 41.74500 4419.83473 4758.00000 0.00021
2452 41.76000 4581.68603 4998.00000 0.00020
2453 41.77500 4726.73944 5166.00000 0.00019
2454 41.79000 4838.53941 5508.00000 0.00018
2455 41.80500 4900.97707 5810.00000 0.00017
2456 41.82000 4903.08010 5784.00000 0.00017
2457 41.83500 4843.53950 5717.00000 0.00017
2458 41.85000 4731.75972 5291.00000 0.00019
2459 41.86500 4584.24107 5136.00000 0.00019
2460 41.88000 4418.85709 4930.00000 0.00020
2461 41.89500 4250.59505 4795.00000 0.00021
2462 41.91000 4090.03871 4478.00000 0.00022
2463 41.92500 3943.70423 4120.00000 0.00024
2464 41.94000 3814.98737 3978.00000 0.00025
2465 41.95500 3705.06043 3776.00000 0.00026
2466 41.97000 3613.56288 3709.00000 0.00027
2467 41.98500 3539.12561 3534.00000 0.00028
2468 42.00000 3479.78615 3514.00000 0.00028
2469 42.01500 3433.32784 3489.00000 0.00029
2470 42.03000 3397.54076 3512.00000 0.00028
2471 42.04500 3370.41005 3499.00000 0.00029
2472 42.06000 3350.23239 3413.00000 0.00029
2473 42.07500 3335.67516 3328.00000 0.00030
2474 42.09000 3325.77347 3376.00000 0.00030
2475 42.10500 3319.93975 3450.00000 0.00029
2476 42.12000 3317.92150 3354.00000 0.00030
2477 42.13500 3319.76940 3365.00000 0.00030
2478 42.15000 3325.80494 3455.00000 0.00029
2479 42.16500 3336.58354 3459.00000 0.00029
2480 42.18000 3352.84938 3493.00000 0.00029
2481 42.19500 3375.47550 3267.00000 0.00031
2482 42.21000 3405.38311 3499.00000 0.00029
2483 42.22500 3443.43493 3522.00000 0.00028
2484 42.24000 3490.29656 3640.00000 0.00027
2485 42.25500 3546.25661 3693.00000 0.00027
2486 42.27000 3610.99319 3718.00000 0.00027
2487 42.28500 3683.28036 3736.00000 0.00027
2488 42.30000 3760.66314 3769.00000 0.00027
2489 42.31500 3839.20704 3916.00000 0.00026
2490 42.33000 3913.54156 3939.00000 0.00025
2491 42.34500 3977.49530 3922.00000 0.00025
2492 42.36000 4025.47901 3889.00000 0.00026
2493 42.37500 4054.20827 4070.00000 0.00025
2494 42.39000 4063.66352 4006.00000 0.00025
2495 42.40500 4056.35993 4037.00000 0.00025
2496 42.42000 4035.39066 3925.00000 0.00025
2497 42.43500 4002.78127 3792.00000 0.00026
2498 42.45000 3959.26849 3856.00000 0.00026
2499 42.46500 3905.43620 3704.00000 0.00027
2500 42.48000 3842.85170 3696.00000 0.00027
2501 42.49500 3774.38573 3679.00000 0.00027
2502 42.51000 3703.41743 3704.00000 0.00027
2503 42.52500 3633.09594 3563.00000 0.00028
2504 42.54000 3565.79040 3609.00000 0.00028
2505 42.55500 3503.19043 3505.00000 0.00029
2506 42.57000 3446.46916 3564.00000 0.00028
2507 42.58500 3396.32477 3609.00000 0.00028
2508 42.60000 3352.98889 3424.00000 0.00029
2509 42.61500 3316.28774 3455.00000 0.00029
2510 42.63000 3285.75502 3481.00000 0.00029
2511 42.64500 3260.77595 3360.00000 0.00030
2512 42.66000 3240.68838 3357.00000 0.00030
2513 42.67500 3224.81098 3334.00000 0.00030
2514 42.69000 3212.53744 3287.00000 0.00030
2515 42.70500 3203.34228 3329.00000 0.00030
2516 42.72000 3196.78670 3330.00000 0.00030
2517 42.73500 3192.51254 3182.00000 0.00031
2518 42.75000 3190.22779 3343.00000 0.00030
2519 42.76500 3189.68579 3247.00000 0.00031
2520 42.78000 3190.66024 3291.00000 0.00030
2521 42.79500 3192.92020 3253.00000 0.00031
2522 42.81000 3196.20995 3259.00000 0.00031
2523 42.82500 3200.24905 3274.00000 0.00031
2524 42.84000 3204.75686 3260.00000 0.00031
2525 42.85500 3209.47641 3284.00000 0.00030
2526 42.87000 3214.48603 3332.00000 0.00030
2527 42.88500 3220.10751 3243.00000 0.00031
2528 42.90000 3226.91343 3254.00000 0.00031
2529 42.91500 3235.54792 3325.00000 0.00030
2530 42.93000 3246.53264 3421.00000 0.00029
2531 42.94500 3260.13055 3397.00000 0.00029
2532 42.96000 3276.27298 3363.00000 0.00030
2533 42.97500 3294.50613 3377.00000 0.00030
2534 42.99000 3313.91991 3325.00000 0.00030
2535 43.00500 3333.07587 3421.00000 0.00029
2536 43.02000 3350.02666 3343.00000 0.00030
2537 43.03500 3362.56458 3468.00000 0.00029
2538 43.05000 3368.79488 3488.00000 0.00029
2539 43.06500 3367.85709 3478.00000 0.00029
2540 43.08000 3360.44497 3360.00000 0.00030
2541 43.09500 3348.68097 3442.00000 0.00029
2542 43.11000 3335.32373 3520.00000 0.00028
2543 43.12500 3322.97411 3412.00000 0.00029
2544 43.14000 3313.60528 3360.00000 0.00030
2545 43.15500 3308.44416 3384.00000 0.00030
2546 43.17000 3308.01812 3362.00000 0.00030
2547 43.18500 3312.21863 3465.00000 0.00029
2548 43.20000 3320.33214 3383.00000 0.00030
2549 43.21500 3331.05735 3419.00000 0.00029
2550 43.23000 3342.56193 3386.00000 0.00030
2551 43.24500 3352.64659 3475.00000 0.00029
2552 43.26000 3359.09835 3503.00000 0.00029
2553 43.27500 3360.14855 3467.00000 0.00029
2554 43.29000 3355.06119 3483.00000 0.00029
2555 43.30500 3344.44943 3433.00000 0.00029
2556 43.32000 3330.09205 3398.00000 0.00029
2557 43.33500 3314.32095 3382.00000 0.00030
2558 43.35000 3299.39676 3461.00000 0.00029
2559 43.36500 3287.19268 3356.00000 0.00030
2560 43.38000 3279.18852 3143.00000 0.00032
2561 43.39500 3276.61609 3411.00000 0.00029
2562 43.41000 3280.62613 3432.00000 0.00029
2563 43.42500 3292.42216 3327.00000 0.00030
2564 43.44000 3313.34549 3360.00000 0.00030
2565 43.45500 3344.90478 3364.00000 0.00030
2566 43.47000 3388.76698 3436.00000 0.00029
2567 43.48500 3446.62639 3623.00000 0.00028
2568 43.50000 3520.01813 3432.00000 0.00029
2569 43.51500 3610.07929 3626.00000 0.00028
2570 43.53000 3717.18230 3822.00000 0.00026
2571 43.54500 3840.46694 4037.00000 0.00025
2572 43.56000 3977.23193 3998.00000 0.00025
2573 43.57500 4122.19818 4109.00000 0.00024
2574 43.59000 4266.78142 4291.00000 0.00023
2575 43.60500 4398.80117 4509.00000 0.00022
2576 43.62000 4503.26979 5013.00000 0.00020
2577 43.63500 4565.13061 4835.00000 0.00021
2578 43.65000 4573.87833 5081.00000 0.00020
2579 43.66500 4528.04056 4887.00000 0.00020
2580 43.68000 4436.36434 4874.00000 0.00021
2581 43.69500 4314.42316 4747.00000 0.00021
2582 43.71000 4179.10791 4501.00000 0.00022
2583 43.72500 4044.51655 4139.00000 0.00024
2584 43.74000 3920.50604 4038.00000 0.00025
2585 43.75500 3813.02088 3949.00000 0.00025
2586 43.77000 3724.96881 3800.00000 0.00026
2587 43.78500 3656.99208 3655.00000 0.00027
2588 43.80000 3607.98066 3509.00000 0.00028
2589 43.81500 3575.37561 3318.00000 0.00030
2590 43.83000 3555.35984 3446.00000 0.00029
2591 43.84500 3543.06975 3383.00000 0.00030
2592 43.86000 3533.01032 3393.00000 0.00029
2593 43.87500 3519.85725 3417.00000 0.00029
2594 43.89000 3499.62516 3412.00000 0.00029
2595 43.90500 3470.72936 3383.00000 0.00030
2596 43.92000 3434.20059 3276.00000 0.00031
2597 43.93500 3392.92620 3294.00000 0.00030
2598 43.95000 3350.11063 3328.00000 0.00030
2599 43.96500 3308.47551 3421.00000 0.00029
2600 43.98000 3269.87593 3193.00000 0.00031
2601 43.99500 3235.37551 3136.00000 0.00032
2602 44.01000 3205.45003 3292.00000 0.00030
2603 44.02500 3180.17529 3197.00000 0.00031
2604 44.04000 3159.36808 3243.00000 0.00031
2605 44.05500 3142.68951 3184.00000 0.00031
2606 44.07000 3129.73232 3121.00000 0.00032
2607 44.08500 3120.06057 3255.00000 0.00031
2608 44.10000 3113.29958 3186.00000 0.00031
2609 44.11500 3109.17369 3141.00000 0.00032
2610 44.13000 3107.52177 3063.00000 0.00033
2611 44.14500 3108.32516 3066.00000 0.00033
2612 44.16000 3111.71899 3111.00000 0.00032
2613 44.17500 3117.99397 3192.00000 0.00031
2614 44.19000 3127.58686 3088.00000 0.00032
2615 44.20500 3141.05665 3009.00000 0.00033
2616 44.22000 3159.04293 3206.00000 0.00031
2617 44.23500 3182.20321 3252.00000 0.00031
2618 44.25000 3211.12672 3223.00000 0.00031
2619 44.26500 3246.22153 3124.00000 0.00032
2620 44.28000 3287.56874 3139.00000 0.00032
2621 44.29500 3334.73209 3220.00000 0.00031
2622 44.31000 3386.51149 3370.00000 0.00030
2623 44.32500 3440.65356 3417.00000 0.00029
2624 44.34000 3493.60317 3415.00000 0.00029
2625 44.35500 3540.50054 3445.00000 0.00029
2626 44.37000 3575.73541 3406.00000 0.00029
2627 44.38500 3594.29262 3243.00000 0.00031
2628 44.40000 3593.55614 3448.00000 0.00029
2629 44.41500 3574.68301 3392.00000 0.00029
2630 44.43000 3542.27510 3445.00000 0.00029
2631 44.44500 3502.64214 3365.00000 0.00030
2632 44.46000 3461.89589 3392.00000 0.00029
2633 44.47500 3424.92334 3440.00000 0.00029
2634 44.49000 3395.32037 3418.00000 0.00029
2635 44.50500 3375.63457 3335.00000 0.00030
2636 44.52000 3367.84117 3318.00000 0.00030
2637 44.53500 3373.62674 3334.00000 0.00030
2638 44.55000 3394.60073 3355.00000 0.00030
2639 44.56500 3432.29167 3573.00000 0.00028
2640 44.58000 3488.19396 3619.00000 0.00028
2641 44.59500 3563.64014 3529.00000 0.00028
2642 44.61000 3659.57481 3622.00000 0.00028
2643 44.62500 3776.21033 3867.00000 0.00026
2644 44.64000 3912.51706 3965.00000 0.00025
2645 44.65500 4065.51490 4172.00000 0.00024
2646 44.67000 4229.40019 4395.00000 0.00023
2647 44.68500 4394.75687 4633.00000 0.00022
2648 44.70000 4548.44535 4823.00000 0.00021
2649 44.71500 4675.06878 4919.00000 0.00020
2650 44.73000 4760.62562 5114.00000 0.00020
2651 44.74500 4797.43646 5031.00000 0.00020
2652 44.76000 4787.32059 4986.00000 0.00020
2653 44.77500 4740.09658 5183.00000 0.00019
2654 44.79000 4668.10076 5066.00000 0.00020
2655 44.80500 4580.69236 4823.00000 0.00021
2656 44.82000 4481.95771 4751.00000 0.00021
2657 44.83500 4371.97742 4637.00000 0.00022
2658 44.85000 4250.12072 4385.00000 0.00023
2659 44.86500 4118.12726 4241.00000 0.00024
2660 44.88000 3980.95544 4066.00000 0.00025
2661 44.89500 3845.34578 3952.00000 0.00025
2662 44.91000 3717.45414 3837.00000 0.00026
2663 44.92500 3601.46035 3854.00000 0.00026
2664 44.94000 3499.39834 3601.00000 0.00028
2665 44.95500 3411.65666 3443.00000 0.00029
2666 44.97000 3337.58654 3390.00000 0.00029
2667 44.98500 3275.95837 3273.00000 0.00031
2668 45.00000 3225.27341 3365.00000 0.00030
2669 45.01500 3183.97177 3200.00000 0.00031
2670 45.03000 3150.53293 3253.00000 0.00031
2671 45.04500 3123.55932 3036.00000 0.00033
2672 45.06000 3101.82127 3062.00000 0.00033
2673 45.07500 3084.27779 3073.00000 0.00033
2674 45.09000 3070.07838 3041.00000 0.00033
2675 45.10500 3058.55067 2993.00000 0.00033
2676 45.12000 3049.17886 3199.00000 0.00031
2677 45.13500 3041.57764 3074.00000 0.00033
2678 45.15000 3035.46571 2933.00000 0.00034
2679 45.16500 3030.64252 3121.00000 0.00032
2680 45.18000 3026.96908 3019.00000 0.00033
2681 45.19500 3024.35289 2993.00000 0.00033
2682 45.21000 3022.73725 2919.00000 0.00034
2683 45.22500 3022.09146 2964.00000 0.00034
2684 45.24000 3022.42071 3029.00000 0.00033
2685 45.25500 3023.77168 3120.00000 0.00032
2686 45.27000 3026.18124 3009.00000 0.00033
2687 45.28500 3029.73496 3040.00000 0.00033
2688 45.30000 3034.55589 2820.00000 0.00035
2689 45.31500 3040.81330 3034.00000 0.00033
2690 45.33000 3048.73482 2997.00000 0.00033
2691 45.34500 3058.55212 2975.00000 0.00034
2692 45.36000 3070.65971 3080.00000 0.00032
2693 45.37500 3085.51905 2962.00000 0.00034
2694 45.39000 3103.71335 3037.00000 0.00033
2695 45.40500 3125.97460 3062.00000 0.00033
2696 45.42000 3153.21254 3078.00000 0.00032
2697 45.43500 3186.53920 3145.00000 0.00032
2698 45.45000 3227.27952 3019.00000 0.00033
2699 45.46500 3276.94851 3059.00000 0.00033
2700 45.48000 3337.19510 3233.00000 0.00031
2701 45.49500 3409.71755 3151.00000 0.00032
2702 45.51000 3496.16583 3305.00000 0.00030
2703 45.52500 3598.11123 3346.00000 0.00030
2704 45.54000 3717.08785 3283.00000 0.00030
2705 45.55500 3854.58675 3555.00000 0.00028
2706 45.57000 4011.71500 3668.00000 0.00027
2707 45.58500 4188.27382 3974.00000 0.00025
2708 45.60000 4381.33598 4377.00000 0.00023
2709 45.61500 4583.76939 4811.00000 0.00021
2710 45.63000 4783.43105 5396.00000 0.00019
2711 45.64500 4964.02863 5910.00000 0.00017
2712 45.66000 5108.57501 6432.00000 0.00016
2713 45.67500 5205.01636 6442.00000 0.00016
2714 45.69000 5250.97985 6545.00000 0.00015
2715 45.70500 5253.52432 6157.00000 0.00016
2716 45.72000 5223.29654 5648.00000 0.00018
2717 45.73500 5167.50116 5279.00000 0.00019
2718 45.75000 5086.70280 4817.00000 0.00021
2719 45.76500 4977.00660 4471.00000 0.00022
2720 45.78000 4835.68065 4238.00000 0.00024
2721 45.79500 4666.06972 4034.00000 0.00025
2722 45.81000 4478.52046 3980.00000 0.00025
2723 45.82500 4286.82106 3935.00000 0.00025
2724 45.84000 4103.57361 3779.00000 0.00026
2725 45.85500 3937.69491 3665.00000 0.00027
2726 45.87000 3794.23327 3571.00000 0.00028
2727 45.88500 3675.38578 3569.00000 0.00028
2728 45.90000 3581.50945 3405.00000 0.00029
2729 45.91500 3511.96570 3582.00000 0.00028
2730 45.93000 3465.60114 3430.00000 0.00029
2731 45.94500 3440.98751 3499.00000 0.00029
2732 45.96000 3436.49152 3424.00000 0.00029
2733 45.97500 3450.22941 3433.00000 0.00029
2734 45.99000 3479.91464 3427.00000 0.00029
2735 46.00500 3522.58808 3467.00000 0.00029
2736 46.02000 3574.25758 3514.00000 0.00028
2737 46.03500 3629.57464 3666.00000 0.00027
2738 46.05000 3681.70224 3593.00000 0.00028
2739 46.06500 3722.61295 3625.00000 0.00028
2740 46.08000 3744.11435 3716.00000 0.00027
2741 46.09500 3739.79509 3471.00000 0.00029
2742 46.11000 3707.40486 3537.00000 0.00028
2743 46.12500 3650.15612 3618.00000 0.00028
2744 46.14000 3575.49525 3454.00000 0.00029
2745 46.15500 3492.35998 3495.00000 0.00029
2746 46.17000 3408.44705 3542.00000 0.00028
2747 46.18500 3329.09546 3246.00000 0.00031
2748 46.20000 3257.38731 3474.00000 0.00029
2749 46.21500 3194.77162 3347.00000 0.00030
2750 46.23000 3141.58345 3309.00000 0.00030
2751 46.24500 3097.47945 3267.00000 0.00031
2752 46.26000 3061.72952 3027.00000 0.00033
2753 46.27500 3033.40510 3070.00000 0.00033
2754 46.29000 3011.54796 3186.00000 0.00031
2755 46.30500 2995.29647 3145.00000 0.00032
2756 46.32000 2983.94513 3107.00000 0.00032
2757 46.33500 2977.00289 2944.00000 0.00034
2758 46.35000 2974.21608 3085.00000 0.00032
2759 46.36500 2975.56685 2979.00000 0.00034
2760 46.38000 2981.24981 3190.00000 0.00031
2761 46.39500 2991.62853 3034.00000 0.00033
2762 46.41000 3007.17204 3061.00000 0.00033
2763 46.42500 3028.37165 3018.00000 0.00033
2764 46.44000 3055.63196 3069.00000 0.00033
2765 46.45500 3089.13695 3039.00000 0.00033
2766 46.47000 3128.61389 3128.00000 0.00032
2767 46.48500 3173.13632 3107.00000 0.00032
2768 46.50000 3220.75902 3116.00000 0.00032
2769 46.51500 3268.18077 3191.00000 0.00031
2770 46.53000 3310.64996 3129.00000 0.00032
2771 46.54500 3342.46198 3144.00000 0.00032
2772 46.56000 3358.38946 3216.00000 0.00031
2773 46.57500 3355.64637 3097.00000 0.00032
2774 46.59000 3335.31342 3146.00000 0.00032
2775 46.60500 3301.98575 3193.00000 0.00031
2776 46.62000 3261.78941 3149.00000 0.00032
2777 46.63500 3220.29494 3213.00000 0.00031
2778 46.65000 3181.44599 3254.00000 0.00031
2779 46.66500 3147.50096 3346.00000 0.00030
2780 46.68000 3119.47765 3184.00000 0.00031
2781 46.69500 3097.72624 3255.00000 0.00031
2782 46.71000 3082.46441 3207.00000 0.00031
2783 46.72500 3074.14260 3283.00000 0.00030
2784 46.74000 3073.56842 3222.00000 0.00031
2785 46.75500 3081.75026 3101.00000 0.00032
2786 46.77000 3099.67452 3256.00000 0.00031
2787 46.78500 3128.11951 3198.00000 0.00031
2788 46.80000 3167.50635 3152.00000 0.00032
2789 46.81500 3217.72344 3218.00000 0.00031
2790 46.83000 3277.78537 3218.00000 0.00031
2791 46.84500 3345.46661 3077.00000 0.00032
2792 46.86000 3416.71486 3081.00000 0.00032
2793 46.87500 3485.22298 3215.00000 0.00031
2794 46.89000 3542.69903 3182.00000 0.00031
2795 46.90500 3580.28535 3180.00000 0.00031
2796 46.92000 3591.31903 3073.00000 0.00033
2797 46.93500 3574.25929 3162.00000 0.00032
2798 46.95000 3533.66049 3021.00000 0.00033
2799 46.96500 3477.94815 3029.00000 0.00033
2800 46.98000 3415.84110 3238.00000 0.00031
2801 46.99500 3353.75625 3067.00000 0.00033
2802 47.01000 3295.02108 3088.00000 0.00032
2803 47.02500 3240.37153 3043.00000 0.00033
2804 47.04000 3189.03345 3076.00000 0.00033
2805 47.05500 3139.93809 3002.00000 0.00033
2806 47.07000 3092.66488 3099.00000 0.00032
2807 47.08500 3047.69186 3016.00000 0.00033
2808 47.10000 3005.98655 3021.00000 0.00033
2809 47.11500 2968.41973 2935.00000 0.00034
2810 47.13000 2935.44301 2994.00000 0.00033
2811 47.14500 2907.08377 2990.00000 0.00033
2812 47.16000 2883.08790 2935.00000 0.00034
2813 47.17500 2863.06282 2974.00000 0.00034
2814 47.19000 2846.58081 2939.00000 0.00034
2815 47.20500 2833.23022 2892.00000 0.00035
2816 47.22000 2822.64239 2835.00000 0.00035
2817 47.23500 2814.50399 3031.00000 0.00033
2818 47.25000 2808.56086 2938.00000 0.00034
2819 47.26500 2804.60074 2894.00000 0.00035
2820 47.28000 2802.44167 2854.00000 0.00035
2821 47.29500 2801.95083 2800.00000 0.00036
2822 47.31000 2802.97859 2860.00000 0.00035
2823 47.32500 2805.33749 2970.00000 0.00034
2824 47.34000 2808.70465 2973.00000 0.00034
2825 47.35500 2812.66154 2826.00000 0.00035
2826 47.37000 2816.60485 2908.00000 0.00034
2827 47.38500 2819.81929 2853.00000 0.00035
2828 47.40000 2821.66243 2804.00000 0.00036
2829 47.41500 2821.84503 2956.00000 0.00034
2830 47.43000 2820.64802 2915.00000 0.00034
2831 47.44500 2818.89485 2937.00000 0.00034
2832 47.46000 2817.68796 2867.00000 0.00035
2833 47.47500 2818.11147 2884.00000 0.00035
2834 47.49000 2821.06330 3042.00000 0.00033
2835 47.50500 2827.21475 2975.00000 0.00034
2836 47.52000 2837.02694 2850.00000 0.00035
2837 47.53500 2850.65485 2927.00000 0.00034
2838 47.55000 2868.00180 3049.00000 0.00033
2839 47.56500 2888.56281 2904.00000 0.00034
2840 47.58000 2911.21120 3030.00000 0.00033
2841 47.59500 2934.02236 3002.00000 0.00033
2842 47.61000 2954.19708 2902.00000 0.00034
2843 47.62500 2968.36895 3098.00000 0.00032
2844 47.64000 2973.45098 3040.00000 0.00033
2845 47.65500 2967.82406 2973.00000 0.00034
2846 47.67000 2952.15528 3067.00000 0.00033
2847 47.68500 2929.11165 3007.00000 0.00033
2848 47.70000 2902.16178 2987.00000 0.00033
2849 47.71500 2874.39188 3004.00000 0.00033
2850 47.73000 2847.95826 2956.00000 0.00034
2851 47.74500 2824.10569 2933.00000 0.00034
2852 47.76000 2803.40834 2909.00000 0.00034
2853 47.77500 2786.01895 2815.00000 0.00036
2854 47.79000 2771.84106 2903.00000 0.00034
2855 47.80500 2760.64905 2813.00000 0.00036
2856 47.82000 2752.14537 2881.00000 0.00035
2857 47.83500 2746.06059 2822.00000 0.00035
2858 47.85000 2742.16414 2838.00000 0.00035
2859 47.86500 2740.30171 2737.00000 0.00037
2860 47.88000 2740.40889 2836.00000 0.00035
2861 47.89500 2742.55538 2801.00000 0.00036
2862 47.91000 2746.86829 2812.00000 0.00036
2863 47.92500 2753.56963 2879.00000 0.00035
2864 47.94000 2762.93265 2804.00000 0.00036
2865 47.95500 2775.24024 2818.00000 0.00035
2866 47.97000 2790.72730 2904.00000 0.00034
2867 47.98500 2809.50002 2826.00000 0.00035
2868 48.00000 2831.41847 2970.00000 0.00034
2869 48.01500 2855.92830 2974.00000 0.00034
2870 48.03000 2881.84538 2917.00000 0.00034
2871 48.04500 2907.16342 2928.00000 0.00034
2872 48.06000 2929.02608 2953.00000 0.00034
2873 48.07500 2944.21589 2963.00000 0.00034
2874 48.09000 2950.13685 2908.00000 0.00034
2875 48.10500 2946.01778 2886.00000 0.00035
2876 48.12000 2933.44361 2935.00000 0.00034
2877 48.13500 2915.63917 2961.00000 0.00034
2878 48.15000 2896.22115 2933.00000 0.00034
2879 48.16500 2878.09755 2826.00000 0.00035
2880 48.18000 2863.13805 2925.00000 0.00034
2881 48.19500 2852.27502 2926.00000 0.00034
2882 48.21000 2845.71165 2806.00000 0.00036
2883 48.22500 2842.97570 2804.00000 0.00036
2884 48.24000 2843.19039 2808.00000 0.00036
2885 48.25500 2845.06490 2800.00000 0.00036
2886 48.27000 2847.22680 2894.00000 0.00035
2887 48.28500 2848.62476 2928.00000 0.00034
2888 48.30000 2849.13136 2949.00000 0.00034
2889 48.31500 2849.52113 2911.00000 0.00034
2890 48.33000 2851.24032 2886.00000 0.00035
2891 48.34500 2855.71070 2799.00000 0.00036
2892 48.36000 2864.14457 2935.00000 0.00034
2893 48.37500 2877.26187 2918.00000 0.00034
2894 48.39000 2895.29427 2969.00000 0.00034
2895 48.40500 2917.93437 2855.00000 0.00035
2896 48.42000 2944.23597 2926.00000 0.00034
2897 48.43500 2972.56202 2957.00000 0.00034
2898 48.45000 3000.78017 3102.00000 0.00032
2899 48.46500 3026.88295 3006.00000 0.00033
2900 48.48000 3050.07867 3055.00000 0.00033
2901 48.49500 3071.72118 3090.00000 0.00032
2902 48.51000 3095.28333 3139.00000 0.00032
2903 48.52500 3125.25997 3136.00000 0.00032
2904 48.54000 3165.90128 3099.00000 0.00032
2905 48.55500 3220.29467 3196.00000 0.00031
2906 48.57000 3289.89877 3189.00000 0.00031
2907 48.58500 3374.13402 3241.00000 0.00031
2908 48.60000 3469.71982 3088.00000 0.00032
2909 48.61500 3569.82519 3167.00000 0.00032
2910 48.63000 3663.35761 3194.00000 0.00031
2911 48.64500 3735.68595 3175.00000 0.00031
2912 48.66000 3771.81809 3273.00000 0.00031
2913 48.67500 3761.88238 3159.00000 0.00032
2914 48.69000 3705.96352 3104.00000 0.00032
2915 48.70500 3614.25891 3303.00000 0.00030
2916 48.72000 3502.12671 3221.00000 0.00031
2917 48.73500 3384.09046 3094.00000 0.00032
2918 48.75000 3270.54566 2976.00000 0.00034
2919 48.76500 3167.50481 3038.00000 0.00033
2920 48.78000 3077.70505 3092.00000 0.00032
2921 48.79500 3001.79164 3146.00000 0.00032
2922 48.81000 2939.19757 3007.00000 0.00033
2923 48.82500 2888.77195 3029.00000 0.00033
2924 48.84000 2849.06246 2984.00000 0.00034
2925 48.85500 2818.54973 2950.00000 0.00034
2926 48.87000 2795.82485 2963.00000 0.00034
2927 48.88500 2779.65153 2965.00000 0.00034
2928 48.90000 2769.00869 2870.00000 0.00035
2929 48.91500 2763.08205 2877.00000 0.00035
2930 48.93000 2761.21813 2872.00000 0.00035
2931 48.94500 2762.85075 2850.00000 0.00035
2932 48.96000 2767.42207 2848.00000 0.00035
2933 48.97500 2774.35086 2879.00000 0.00035
2934 48.99000 2783.11622 2816.00000 0.00036
2935 49.00500 2793.48623 2898.00000 0.00035
2936 49.02000 2805.78211 2863.00000 0.00035
2937 49.03500 2820.92650 2899.00000 0.00034
2938 49.05000 2840.14572 2872.00000 0.00035
2939 49.06500 2864.49911 2815.00000 0.00036
2940 49.08000 2894.37736 2925.00000 0.00034
2941 49.09500 2929.10835 2927.00000 0.00034
2942 49.11000 2966.59214 2991.00000 0.00033
2943 49.12500 3003.03035 3023.00000 0.00033
2944 49.14000 3033.05631 3023.00000 0.00033
2945 49.15500 3050.68622 2879.00000 0.00035
2946 49.17000 3051.21873 2927.00000 0.00034
2947 49.18500 3033.11386 2949.00000 0.00034
2948 49.20000 2998.84924 2878.00000 0.00035
2949 49.21500 2953.75768 2919.00000 0.00034
2950 49.23000 2903.89080 2804.00000 0.00036
2951 49.24500 2854.19426 2831.00000 0.00035
2952 49.26000 2807.85973 2819.00000 0.00035
2953 49.27500 2766.52141 2687.00000 0.00037
2954 49.29000 2730.73795 2663.00000 0.00038
2955 49.30500 2700.42120 2705.00000 0.00037
2956 49.32000 2675.12839 2621.00000 0.00038
2957 49.33500 2654.24430 2589.00000 0.00039
2958 49.35000 2637.09448 2603.00000 0.00038
2959 49.36500 2623.01888 2660.00000 0.00038
2960 49.38000 2611.41792 2577.00000 0.00039
2961 49.39500 2601.78248 2690.00000 0.00037
2962 49.41000 2593.66078 2491.00000 0.00040
2963 49.42500 2586.73639 2571.00000 0.00039
2964 49.44000 2580.75061 2481.00000 0.00040
2965 49.45500 2575.50320 2509.00000 0.00040
2966 49.47000 2570.84843 2475.00000 0.00040
2967 49.48500 2566.68537 2613.00000 0.00038
2968 49.50000 2562.94020 2637.00000 0.00038
2969 49.51500 2559.55395 2610.00000 0.00038
2970 49.53000 2556.48743 2576.00000 0.00039
2971 49.54500 2553.71400 2525.00000 0.00040
2972 49.56000 2551.21522 2462.00000 0.00041
2973 49.57500 2548.97809 2537.00000 0.00039
2974 49.59000 2547.02828 2532.00000 0.00039
2975 49.60500 2545.34793 2546.00000 0.00039
2976 49.62000 2543.94525 2438.00000 0.00041
2977 49.63500 2542.82633 2571.00000 0.00039
2978 49.65000 2541.99446 2530.00000 0.00040
2979 49.66500 2541.44745 2517.00000 0.00040
2980 49.68000 2541.12586 2550.00000 0.00039
2981 49.69500 2540.97766 2503.00000 0.00040
2982 49.71000 2540.89838 2438.00000 0.00041
2983 49.72500 2540.76674 2473.00000 0.00040
2984 49.74000 2540.44084 2471.00000 0.00040
2985 49.75500 2539.90307 2551.00000 0.00039
2986 49.77000 2539.24757 2530.00000 0.00040
2987 49.78500 2538.65945 2447.00000 0.00041
2988 49.80000 2538.34151 2549.00000 0.00039
2989 49.81500 2538.44346 2567.00000 0.00039
2990 49.83000 2539.02147 2551.00000 0.00039
2991 49.84500 2540.01565 2454.00000 0.00041
2992 49.86000 2541.22979 2568.00000 0.00039
2993 49.87500 2542.32197 2520.00000 0.00040
2994 49.89000 2542.84277 2448.00000 0.00041
2995 49.90500 2542.36141 2598.00000 0.00038
2996 49.92000 2540.60830 2512.00000 0.00040
2997 49.93500 2537.64712 2519.00000 0.00040
2998 49.95000 2533.82984 2544.00000 0.00039
2999 49.96500 2529.63367 2581.00000 0.00039
3000 49.98000 2525.45734 2560.00000 0.00039
3001 49.99500 2521.56143 2536.00000 0.00039
3002 50.01000 2518.08011 2411.00000 0.00041
3003 50.02500 2515.06178 2472.00000 0.00040
3004 50.04000 2512.50527 2562.00000 0.00039
3005 50.05500 2510.38390 2464.00000 0.00041
3006 50.07000 2508.65978 2449.00000 0.00041
3007 50.08500 2507.29248 2532.00000 0.00039
3008 50.10000 2506.24476 2500.00000 0.00040
3009 50.11500 2505.48686 2611.00000 0.00038
3010 50.13000 2504.99846 2475.00000 0.00040
3011 50.14500 2504.75368 2453.00000 0.00041
3012 50.16000 2504.75738 2615.00000 0.00038
3013 50.17500 2505.01954 2553.00000 0.00039
3014 50.19000 2505.55569 2509.00000 0.00040
3015 50.20500 2506.39680 2414.00000 0.00041
3016 50.22000 2507.58920 2578.00000 0.00039
3017 50.23500 2509.19876 2590.00000 0.00039
3018 50.25000 2511.31673 2542.00000 0.00039
3019 50.26500 2514.06718 2625.00000 0.00038
3020 50.28000 2517.61521 2615.00000 0.00038
3021 50.29500 2522.17457 2547.00000 0.00039
3022 50.31000 2528.01979 2557.00000 0.00039
3023 50.32500 2535.47991 2590.00000 0.00039
3024 50.34000 2544.94405 2551.00000 0.00039
3025 50.35500 2556.79809 2555.00000 0.00039
3026 50.37000 2571.49925 2497.00000 0.00040
3027 50.38500 2589.40869 2575.00000 0.00039
3028 50.40000 2610.75119 2528.00000 0.00040
3029 50.41500 2635.43889 2575.00000 0.00039
3030 50.43000 2662.81029 2686.00000 0.00037
3031 50.44500 2691.27773 2604.00000 0.00038
3032 50.46000 2718.04263 2634.00000 0.00038
3033 50.47500 2739.21654 2586.00000 0.00039
3034 50.49000 2750.65399 2587.00000 0.00039
3035 50.50500 2749.74334 2694.00000 0.00037
3036 50.52000 2736.79198 2623.00000 0.00038
3037 50.53500 2714.97993 2606.00000 0.00038
3038 50.55000 2688.73360 2581.00000 0.00039
3039 50.56500 2661.96230 2589.00000 0.00039
3040 50.58000 2637.25432 2543.00000 0.00039
3041 50.59500 2615.96031 2574.00000 0.00039
3042 50.61000 2598.60150 2657.00000 0.00038
3043 50.62500 2585.23253 2535.00000 0.00039
3044 50.64000 2575.68220 2675.00000 0.00037
3045 50.65500 2569.68585 2655.00000 0.00038
3046 50.67000 2566.95059 2552.00000 0.00039
3047 50.68500 2567.18519 2705.00000 0.00037
3048 50.70000 2570.10625 2652.00000 0.00038
3049 50.71500 2575.44645 2652.00000 0.00038
3050 50.73000 2582.96779 2676.00000 0.00037
3051 50.74500 2592.45497 2625.00000 0.00038
3052 50.76000 2603.63242 2599.00000 0.00038
3053 50.77500 2615.98135 2647.00000 0.00038
3054 50.79000 2628.51987 2641.00000 0.00038
3055 50.80500 2639.79642 2605.00000 0.00038
3056 50.82000 2648.23907 2663.00000 0.00038
3057 50.83500 2652.84070 2703.00000 0.00037
3058 50.85000 2653.81834 2638.00000 0.00038
3059 50.86500 2652.64382 2755.00000 0.00036
3060 50.88000 2651.40672 2748.00000 0.00036
3061 50.89500 2652.09566 2679.00000 0.00037
3062 50.91000 2656.27849 2763.00000 0.00036
3063 50.92500 2665.16035 2700.00000 0.00037
3064 50.94000 2679.78087 2655.00000 0.00038
3065 50.95500 2701.19138 2726.00000 0.00037
3066 50.97000 2730.56360 2771.00000 0.00036
3067 50.98500 2769.22717 2851.00000 0.00035
3068 51.00000 2818.63126 2848.00000 0.00035
3069 51.01500 2880.20256 2841.00000 0.00035
3070 51.03000 2955.03919 2865.00000 0.00035
3071 51.04500 3043.36956 2928.00000 0.00034
3072 51.06000 3143.74845 2991.00000 0.00033
3073 51.07500 3252.24013 3232.00000 0.00031
3074 51.09000 3362.06088 3165.00000 0.00032
3075 51.10500 3464.48046 3279.00000 0.00030
3076 51.12000 3551.01615 3355.00000 0.00030
3077 51.13500 3615.06407 3426.00000 0.00029
3078 51.15000 3651.45921 3522.00000 0.00028
3079 51.16500 3655.25656 3485.00000 0.00029
3080 51.18000 3623.02720 3564.00000 0.00028
3081 51.19500 3556.76436 3544.00000 0.00028
3082 51.21000 3465.77272 3389.00000 0.00030
3083 51.22500 3363.68569 3276.00000 0.00031
3084 51.24000 3263.48279 3417.00000 0.00029
3085 51.25500 3174.52448 3371.00000 0.00030
3086 51.27000 3102.28814 3303.00000 0.00030
3087 51.28500 3049.42826 3254.00000 0.00031
3088 51.30000 3016.99550 3166.00000 0.00032
3089 51.31500 3005.31243 3144.00000 0.00032
3090 51.33000 3014.47234 3248.00000 0.00031
3091 51.34500 3044.50365 3257.00000 0.00031
3092 51.36000 3095.19165 3179.00000 0.00031
3093 51.37500 3165.60950 3372.00000 0.00030
3094 51.39000 3253.08043 3381.00000 0.00030
3095 51.40500 3351.69236 3400.00000 0.00029
3096 51.42000 3450.77701 3538.00000 0.00028
3097 51.43500 3534.71488 3734.00000 0.00027
3098 51.45000 3585.99270 3642.00000 0.00027
3099 51.46500 3591.96505 3694.00000 0.00027
3100 51.48000 3551.62948 3654.00000 0.00027
3101 51.49500 3476.45990 3523.00000 0.00028
3102 51.51000 3384.32193 3412.00000 0.00029
3103 51.52500 3291.99112 3343.00000 0.00030
3104 51.54000 3211.16575 3160.00000 0.00032
3105 51.55500 3148.07852 3280.00000 0.00030
3106 51.57000 3104.59515 3057.00000 0.00033
3107 51.58500 3079.20205 2967.00000 0.00034
3108 51.60000 3067.38834 2935.00000 0.00034
3109 51.61500 3061.80033 2890.00000 0.00035
3110 51.63000 3053.12211 2838.00000 0.00035
3111 51.64500 3032.56262 2757.00000 0.00036
3112 51.66000 2995.43828 2756.00000 0.00036
3113 51.67500 2943.29525 2850.00000 0.00035
3114 51.69000 2882.33442 2710.00000 0.00037
3115 51.70500 2819.72812 2720.00000 0.00037
3116 51.72000 2760.79933 2706.00000 0.00037
3117 51.73500 2708.35313 2651.00000 0.00038
3118 51.75000 2663.27563 2657.00000 0.00038
3119 51.76500 2625.32216 2635.00000 0.00038
3120 51.78000 2593.70996 2758.00000 0.00036
3121 51.79500 2567.44066 2591.00000 0.00039
3122 51.81000 2545.50640 2780.00000 0.00036
3123 51.82500 2527.04902 2575.00000 0.00039
3124 51.84000 2511.41300 2562.00000 0.00039
3125 51.85500 2498.14164 2507.00000 0.00040
3126 51.87000 2486.90727 2541.00000 0.00039
3127 51.88500 2477.45622 2499.00000 0.00040
3128 51.90000 2469.58877 2534.00000 0.00039
3129 51.91500 2463.15189 2427.00000 0.00041
3130 51.93000 2458.03676 2499.00000 0.00040
3131 51.94500 2454.16497 2435.00000 0.00041
3132 51.96000 2451.47690 2542.00000 0.00039
3133 51.97500 2449.90820 2564.00000 0.00039
3134 51.99000 2449.33940 2500.00000 0.00040
3135 52.00500 2449.53259 2473.00000 0.00040
3136 52.02000 2450.06030 2546.00000 0.00039
3137 52.03500 2450.28242 2548.00000 0.00039
3138 52.05000 2449.45838 2378.00000 0.00042
3139 52.06500 2447.02959 2468.00000 0.00041
3140 52.08000 2442.92362 2476.00000 0.00040
3141 52.09500 2437.60485 2461.00000 0.00041
3142 52.11000 2431.80329 2541.00000 0.00039
3143 52.12500 2426.13879 2437.00000 0.00041
3144 52.14000 2421.03191 2455.00000 0.00041
3145 52.15500 2416.67017 2422.00000 0.00041
3146 52.17000 2413.10772 2373.00000 0.00042
3147 52.18500 2410.32532 2442.00000 0.00041
3148 52.20000 2408.28197 2449.00000 0.00041
3149 52.21500 2406.93832 2419.00000 0.00041
3150 52.23000 2406.27680 2318.00000 0.00043
3151 52.24500 2406.26762 2467.00000 0.00041
3152 52.26000 2406.93807 2320.00000 0.00043
3153 52.27500 2408.34453 2484.00000 0.00040
3154 52.29000 2410.57945 2448.00000 0.00041
3155 52.30500 2413.78344 2441.00000 0.00041
3156 52.32000 2418.15281 2474.00000 0.00040
3157 52.33500 2423.94717 2401.00000 0.00042
3158 52.35000 2431.49176 2478.00000 0.00040
3159 52.36500 2441.20461 2508.00000 0.00040
3160 52.38000 2453.53422 2518.00000 0.00040
3161 52.39500 2468.98244 2559.00000 0.00039
3162 52.41000 2488.01367 2540.00000 0.00039
3163 52.42500 2510.91469 2531.00000 0.00040
3164 52.44000 2537.51602 2560.00000 0.00039
3165 52.45500 2566.73194 2528.00000 0.00040
3166 52.47000 2596.03868 2541.00000 0.00039
3167 52.48500 2621.26681 2530.00000 0.00040
3168 52.50000 2637.36825 2582.00000 0.00039
3169 52.51500 2640.47698 2583.00000 0.00039
3170 52.53000 2630.21103 2592.00000 0.00039
3171 52.54500 2610.11353 2541.00000 0.00039
3172 52.56000 2585.64558 2620.00000 0.00038
3173 52.57500 2561.69356 2611.00000 0.00038
3174 52.59000 2541.43206 2485.00000 0.00040
3175 52.60500 2526.44922 2538.00000 0.00039
3176 52.62000 2517.37624 2488.00000 0.00040
3177 52.63500 2514.36573 2563.00000 0.00039
3178 52.65000 2517.30381 2540.00000 0.00039
3179 52.66500 2525.88933 2580.00000 0.00039
3180 52.68000 2539.37128 2567.00000 0.00039
3181 52.69500 2556.17307 2515.00000 0.00040
3182 52.71000 2573.46714 2564.00000 0.00039
3183 52.72500 2587.16677 2618.00000 0.00038
3184 52.74000 2592.92648 2542.00000 0.00039
3185 52.75500 2588.10571 2657.00000 0.00038
3186 52.77000 2573.39565 2551.00000 0.00039
3187 52.78500 2552.40133 2525.00000 0.00040
3188 52.80000 2529.50869 2570.00000 0.00039
3189 52.81500 2508.07729 2509.00000 0.00040
3190 52.83000 2489.91688 2499.00000 0.00040
3191 52.84500 2475.63925 2465.00000 0.00041
3192 52.86000 2465.14248 2549.00000 0.00039
3193 52.87500 2457.92736 2507.00000 0.00040
3194 52.89000 2453.26202 2464.00000 0.00041
3195 52.90500 2450.32891 2463.00000 0.00041
3196 52.92000 2448.43054 2505.00000 0.00040
3197 52.93500 2447.26138 2637.00000 0.00038
3198 52.95000 2447.09819 2454.00000 0.00041
3199 52.96500 2448.54760 2552.00000 0.00039
3200 52.98000 2452.27360 2556.00000 0.00039
3201 52.99500 2458.91739 2512.00000 0.00040
3202 53.01000 2469.05456 2569.00000 0.00039
3203 53.02500 2483.22132 2568.00000 0.00039
3204 53.04000 2501.88192 2555.00000 0.00039
3205 53.05500 2525.26490 2629.00000 0.00038
3206 53.07000 2553.00944 2669.00000 0.00037
3207 53.08500 2583.63530 2761.00000 0.00036
3208 53.10000 2614.08395 2601.00000 0.00038
3209 53.11500 2639.94303 2636.00000 0.00038
3210 53.13000 2656.99846 2788.00000 0.00036
3211 53.14500 2663.68114 2705.00000 0.00037
3212 53.16000 2662.30523 2521.00000 0.00040
3213 53.17500 2657.47169 2580.00000 0.00039
3214 53.19000 2653.02278 2758.00000 0.00036
3215 53.20500 2649.92420 2639.00000 0.00038
3216 53.22000 2646.29724 2621.00000 0.00038
3217 53.23500 2638.99879 2612.00000 0.00038
3218 53.25000 2626.04162 2631.00000 0.00038
3219 53.26500 2608.23859 2567.00000 0.00039
3220 53.28000 2588.70419 2556.00000 0.00039
3221 53.29500 2571.00428 2591.00000 0.00039
3222 53.31000 2557.74415 2518.00000 0.00040
3223 53.32500 2550.37177 2508.00000 0.00040
3224 53.34000 2549.60959 2554.00000 0.00039
3225 53.35500 2555.92535 2606.00000 0.00038
3226 53.37000 2569.82951 2718.00000 0.00037
3227 53.38500 2591.99118 2600.00000 0.00038
3228 53.40000 2623.17792 2720.00000 0.00037
3229 53.41500 2663.95499 2782.00000 0.00036
3230 53.43000 2714.00192 2580.00000 0.00039
3231 53.44500 2770.92911 2757.00000 0.00036
3232 53.46000 2828.92232 2603.00000 0.00038
3233 53.47500 2878.19359 2583.00000 0.00039
3234 53.49000 2907.16956 2587.00000 0.00039
3235 53.50500 2907.98016 2611.00000 0.00038
3236 53.52000 2881.75490 2632.00000 0.00038
3237 53.53500 2838.19992 2666.00000 0.00038
3238 53.55000 2789.54838 2599.00000 0.00038
3239 53.56500 2744.90740 2553.00000 0.00039
3240 53.58000 2708.53222 2552.00000 0.00039
3241 53.59500 2680.90027 2551.00000 0.00039
3242 53.61000 2660.45970 2609.00000 0.00038
3243 53.62500 2645.28893 2675.00000 0.00037
3244 53.64000 2634.40964 2556.00000 0.00039
3245 53.65500 2628.24078 2529.00000 0.00040
3246 53.67000 2628.10768 2534.00000 0.00039
3247 53.68500 2635.57363 2520.00000 0.00040
3248 53.70000 2652.05021 2479.00000 0.00040
3249 53.71500 2678.99611 2653.00000 0.00038
3250 53.73000 2718.10194 2609.00000 0.00038
3251 53.74500 2771.37107 2733.00000 0.00037
3252 53.76000 2840.86399 2957.00000 0.00034
3253 53.77500 2927.86479 2999.00000 0.00033
3254 53.79000 3031.10283 3287.00000 0.00030
3255 53.80500 3143.93460 3498.00000 0.00029
3256 53.82000 3251.56566 3759.00000 0.00027
3257 53.83500 3331.50026 4044.00000 0.00025
3258 53.85000 3361.08356 4060.00000 0.00025
3259 53.86500 3330.58913 4075.00000 0.00025
3260 53.88000 3250.75035 4115.00000 0.00024
3261 53.89500 3145.74098 3798.00000 0.00026
3262 53.91000 3039.04657 3474.00000 0.00029
3263 53.92500 2945.31011 3308.00000 0.00030
3264 53.94000 2870.39792 3121.00000 0.00032
3265 53.95500 2814.57879 2929.00000 0.00034
3266 53.97000 2775.07601 2962.00000 0.00034
3267 53.98500 2747.25609 2705.00000 0.00037
3268 54.00000 2725.24175 2619.00000 0.00038
3269 54.01500 2703.16818 2664.00000 0.00038
3270 54.03000 2677.14977 2604.00000 0.00038
3271 54.04500 2646.92206 2542.00000 0.00039
3272 54.06000 2615.30582 2596.00000 0.00039
3273 54.07500 2585.80846 2411.00000 0.00041
3274 54.09000 2560.87536 2593.00000 0.00039
3275 54.10500 2541.58618 2520.00000 0.00040
3276 54.12000 2528.13378 2437.00000 0.00041
3277 54.13500 2520.39809 2619.00000 0.00038
3278 54.15000 2518.25764 2517.00000 0.00040
3279 54.16500 2521.73001 2622.00000 0.00038
3280 54.18000 2531.10163 2549.00000 0.00039
3281 54.19500 2546.90962 2502.00000 0.00040
3282 54.21000 2569.90551 2542.00000 0.00039
3283 54.22500 2600.90647 2536.00000 0.00039
3284 54.24000 2640.51809 2570.00000 0.00039
3285 54.25500 2688.50109 2521.00000 0.00040
3286 54.27000 2742.84787 2563.00000 0.00039
3287 54.28500 2798.80438 2558.00000 0.00039
3288 54.30000 2848.54368 2635.00000 0.00038
3289 54.31500 2882.64330 2683.00000 0.00037
3290 54.33000 2893.41061 2694.00000 0.00037
3291 54.34500 2878.24922 2562.00000 0.00039
3292 54.36000 2840.73608 2602.00000 0.00038
3293 54.37500 2788.78619 2623.00000 0.00038
3294 54.39000 2731.33778 2569.00000 0.00039
3295 54.40500 2675.62564 2504.00000 0.00040
3296 54.42000 2626.09146 2598.00000 0.00038
3297 54.43500 2584.63967 2628.00000 0.00038
3298 54.45000 2551.48738 2580.00000 0.00039
3299 54.46500 2525.98707 2502.00000 0.00040
3300 54.48000 2507.16031 2661.00000 0.00038
3301 54.49500 2493.95773 2552.00000 0.00039
3302 54.51000 2485.33988 2455.00000 0.00041
3303 54.52500 2480.32497 2423.00000 0.00041
3304 54.54000 2478.10888 2359.00000 0.00042
3305 54.55500 2478.27628 2449.00000 0.00041
3306 54.57000 2480.96014 2484.00000 0.00040
3307 54.58500 2486.78220 2544.00000 0.00039
3308 54.60000 2496.63139 2435.00000 0.00041
3309 54.61500 2511.47963 2424.00000 0.00041
3310 54.63000 2532.30245 2505.00000 0.00040
3311 54.64500 2560.10460 2506.00000 0.00040
3312 54.66000 2595.84707 2646.00000 0.00038
3313 54.67500 2640.21960 2743.00000 0.00036
3314 54.69000 2693.15243 2744.00000 0.00036
3315 54.70500 2753.01668 2767.00000 0.00036
3316 54.72000 2815.71116 2767.00000 0.00036
3317 54.73500 2874.39404 2877.00000 0.00035
3318 54.75000 2920.95600 2997.00000 0.00033
3319 54.76500 2949.42334 2872.00000 0.00035
3320 54.78000 2959.05190 2965.00000 0.00034
3321 54.79500 2953.73434 2859.00000 0.00035
3322 54.81000 2937.82535 2832.00000 0.00035
3323 54.82500 2912.66564 2886.00000 0.00035
3324 54.84000 2877.05829 2783.00000 0.00036
3325 54.85500 2830.61710 2728.00000 0.00037
3326 54.87000 2776.24057 2718.00000 0.00037
3327 54.88500 2719.31616 2592.00000 0.00039
3328 54.90000 2665.23532 2552.00000 0.00039
3329 54.91500 2617.51769 2585.00000 0.00039
3330 54.93000 2577.69630 2470.00000 0.00040
3331 54.94500 2546.05776 2498.00000 0.00040
3332 54.96000 2522.27035 2503.00000 0.00040
3333 54.97500 2505.80714 2485.00000 0.00040
3334 54.99000 2496.11244 2508.00000 0.00040
3335 55.00500 2492.68809 2561.00000 0.00039
3336 55.02000 2495.16429 2599.00000 0.00038
3337 55.03500 2502.86746 2558.00000 0.00039
3338 55.05000 2514.73825 2633.00000 0.00038
3339 55.06500 2528.87934 2754.00000 0.00036
3340 55.08000 2542.26502 2710.00000 0.00037
3341 55.09500 2550.97719 2815.00000 0.00036
3342 55.11000 2551.35138 2748.00000 0.00036
3343 55.12500 2541.68911 2810.00000 0.00036
3344 55.14000 2523.22891 2787.00000 0.00036
3345 55.15500 2499.37437 2723.00000 0.00037
3346 55.17000 2473.88869 2652.00000 0.00038
3347 55.18500 2449.56041 2599.00000 0.00038
3348 55.20000 2427.89933 2613.00000 0.00038
3349 55.21500 2409.44630 2475.00000 0.00040
3350 55.23000 2394.18809 2472.00000 0.00040
3351 55.24500 2381.85876 2461.00000 0.00041
3352 55.26000 2372.11046 2421.00000 0.00041
3353 55.27500 2364.60173 2369.00000 0.00042
3354 55.29000 2359.03847 2337.00000 0.00043
3355 55.30500 2355.18173 2312.00000 0.00043
3356 55.32000 2352.86164 2380.00000 0.00042
3357 55.33500 2352.00916 2317.00000 0.00043
3358 55.35000 2352.62011 2349.00000 0.00043
3359 55.36500 2354.74344 2395.00000 0.00042
3360 55.38000 2358.52262 2361.00000 0.00042
3361 55.39500 2364.18029 2370.00000 0.00042
3362 55.41000 2372.01631 2383.00000 0.00042
3363 55.42500 2382.40063 2329.00000 0.00043
3364 55.44000 2395.75668 2504.00000 0.00040
3365 55.45500 2412.52584 2368.00000 0.00042
3366 55.47000 2433.09587 2569.00000 0.00039
3367 55.48500 2457.66143 2589.00000 0.00039
3368 55.50000 2485.97312 2598.00000 0.00038
3369 55.51500 2516.94506 2623.00000 0.00038
3370 55.53000 2548.18819 2678.00000 0.00037
3371 55.54500 2575.76128 2564.00000 0.00039
3372 55.56000 2594.67370 2582.00000 0.00039
3373 55.57500 2600.50685 2633.00000 0.00038
3374 55.59000 2591.55499 2606.00000 0.00038
3375 55.60500 2569.85240 2661.00000 0.00038
3376 55.62000 2540.06652 2643.00000 0.00038
3377 55.63500 2507.24990 2621.00000 0.00038
3378 55.65000 2475.20916 2549.00000 0.00039
3379 55.66500 2446.11082 2619.00000 0.00038
3380 55.68000 2420.83862 2543.00000 0.00039
3381 55.69500 2399.50164 2524.00000 0.00040
3382 55.71000 2381.81923 2468.00000 0.00041
3383 55.72500 2367.35203 2377.00000 0.00042
3384 55.74000 2355.62231 2424.00000 0.00041
3385 55.75500 2346.16868 2389.00000 0.00042
3386 55.77000 2338.60412 2356.00000 0.00042
3387 55.78500 2332.58966 2317.00000 0.00043
3388 55.80000 2327.83262 2333.00000 0.00043
3389 55.81500 2324.11014 2342.00000 0.00043
3390 55.83000 2321.25181 2313.00000 0.00043
3391 55.84500 2319.13248 2422.00000 0.00041
3392 55.86000 2317.66515 2383.00000 0.00042
3393 55.87500 2316.79530 2333.00000 0.00043
3394 55.89000 2316.49626 2252.00000 0.00044
3395 55.90500 2316.76585 2286.00000 0.00044
3396 55.92000 2317.62665 2339.00000 0.00043
3397 55.93500 2319.12157 2253.00000 0.00044
3398 55.95000 2321.31117 2374.00000 0.00042
3399 55.96500 2324.27417 2382.00000 0.00042
3400 55.98000 2328.10192 2287.00000 0.00044
3401 55.99500 2332.89060 2270.00000 0.00044
3402 56.01000 2338.72701 2323.00000 0.00043
3403 56.02500 2345.66269 2262.00000 0.00044
3404 56.04000 2353.66791 2409.00000 0.00042
3405 56.05500 2362.56294 2311.00000 0.00043
3406 56.07000 2371.92841 2283.00000 0.00044
3407 56.08500 2381.03588 2330.00000 0.00043
3408 56.10000 2388.94741 2311.00000 0.00043
3409 56.11500 2394.72408 2407.00000 0.00042
3410 56.13000 2397.84076 2298.00000 0.00044
3411 56.14500 2398.54326 2283.00000 0.00044
3412 56.16000 2397.76773 2278.00000 0.00044
3413 56.17500 2396.75032 2370.00000 0.00042
3414 56.19000 2396.63337 2501.00000 0.00040
3415 56.20500 2398.28946 2483.00000 0.00040
3416 56.22000 2402.33981 2423.00000 0.00041
3417 56.23500 2409.25078 2398.00000 0.00042
3418 56.25000 2419.42928 2387.00000 0.00042
3419 56.26500 2433.24768 2438.00000 0.00041
3420 56.28000 2451.07937 2516.00000 0.00040
3421 56.29500 2473.26782 2562.00000 0.00039
3422 56.31000 2500.05524 2467.00000 0.00041
3423 56.32500 2531.44197 2584.00000 0.00039
3424 56.34000 2566.95279 2441.00000 0.00041
3425 56.35500 2605.32064 2585.00000 0.00039
3426 56.37000 2644.20767 2657.00000 0.00038
3427 56.38500 2680.25637 2765.00000 0.00036
3428 56.40000 2709.83301 2698.00000 0.00037
3429 56.41500 2730.47714 2690.00000 0.00037
3430 56.43000 2742.29756 2743.00000 0.00036
3431 56.44500 2748.18577 2743.00000 0.00036
3432 56.46000 2752.56971 2641.00000 0.00038
3433 56.47500 2759.66757 2776.00000 0.00036
3434 56.49000 2772.31493 2747.00000 0.00036
3435 56.50500 2791.62324 2779.00000 0.00036
3436 56.52000 2817.18013 2802.00000 0.00036
3437 56.53500 2847.53511 2808.00000 0.00036
3438 56.55000 2880.82942 2830.00000 0.00035
3439 56.56500 2915.24877 2820.00000 0.00035
3440 56.58000 2948.80950 2736.00000 0.00037
3441 56.59500 2978.46900 2816.00000 0.00036
3442 56.61000 2999.39182 2759.00000 0.00036
3443 56.62500 3005.56078 2691.00000 0.00037
3444 56.64000 2992.04378 2822.00000 0.00035
3445 56.65500 2957.65708 2888.00000 0.00035
3446 56.67000 2905.94903 2800.00000 0.00036
3447 56.68500 2843.65238 2754.00000 0.00036
3448 56.70000 2777.93564 2726.00000 0.00037
3449 56.71500 2714.38200 2725.00000 0.00037
3450 56.73000 2656.39640 2779.00000 0.00036
3451 56.74500 2605.56000 2576.00000 0.00039
3452 56.76000 2562.24927 2512.00000 0.00040
3453 56.77500 2526.17423 2564.00000 0.00039
3454 56.79000 2496.70614 2533.00000 0.00039
3455 56.80500 2473.05552 2580.00000 0.00039
3456 56.82000 2454.38803 2519.00000 0.00040
3457 56.83500 2439.85177 2440.00000 0.00041
3458 56.85000 2428.58012 2487.00000 0.00040
3459 56.86500 2419.69103 2517.00000 0.00040
3460 56.88000 2412.31862 2408.00000 0.00042
3461 56.89500 2405.70362 2408.00000 0.00042
3462 56.91000 2399.32252 2525.00000 0.00040
3463 56.92500 2392.97615 2376.00000 0.00042
3464 56.94000 2386.76307 2435.00000 0.00041
3465 56.95500 2380.95121 2357.00000 0.00042
3466 56.97000 2375.83506 2357.00000 0.00042
3467 56.98500 2371.65012 2362.00000 0.00042
3468 57.00000 2368.55317 2423.00000 0.00041
3469 57.01500 2366.63996 2367.00000 0.00042
3470 57.03000 2365.97329 2300.00000 0.00043
3471 57.04500 2366.60570 2361.00000 0.00042
3472 57.06000 2368.59408 2342.00000 0.00043
3473 57.07500 2372.00625 2422.00000 0.00041
3474 57.09000 2376.91946 2399.00000 0.00042
3475 57.10500 2383.40994 2421.00000 0.00041
3476 57.12000 2391.53227 2379.00000 0.00042
3477 57.13500 2401.29392 2369.00000 0.00042
3478 57.15000 2412.64083 2490.00000 0.00040
3479 57.16500 2425.47872 2426.00000 0.00041
3480 57.18000 2439.75678 2319.00000 0.00043
3481 57.19500 2455.58709 2409.00000 0.00042
3482 57.21000 2473.25375 2487.00000 0.00040
3483 57.22500 2493.15829 2548.00000 0.00039
3484 57.24000 2515.58208 2521.00000 0.00040
3485 57.25500 2540.39575 2503.00000 0.00040
3486 57.27000 2566.77584 2619.00000 0.00038
3487 57.28500 2593.00557 2576.00000 0.00039
3488 57.30000 2616.51550 2709.00000 0.00037
3489 57.31500 2634.38029 2545.00000 0.00039
3490 57.33000 2644.31289 2739.00000 0.00037
3491 57.34500 2645.73888 2558.00000 0.00039
3492 57.36000 2640.22087 2785.00000 0.00036
3493 57.37500 2630.85977 2657.00000 0.00038
3494 57.39000 2621.14015 2676.00000 0.00037
3495 57.40500 2613.98007 2720.00000 0.00037
3496 57.42000 2611.30989 2649.00000 0.00038
3497 57.43500 2614.04314 2644.00000 0.00038
3498 57.45000 2622.15209 2662.00000 0.00038
3499 57.46500 2634.67361 2646.00000 0.00038
3500 57.48000 2649.63759 2608.00000 0.00038
3501 57.49500 2664.06892 2678.00000 0.00037
3502 57.51000 2674.31982 2703.00000 0.00037
3503 57.52500 2676.91773 2567.00000 0.00039
3504 57.54000 2669.77213 2593.00000 0.00039
3505 57.55500 2652.95666 2685.00000 0.00037
3506 57.57000 2628.62706 2673.00000 0.00037
3507 57.58500 2600.00806 2592.00000 0.00039
3508 57.60000 2570.24425 2521.00000 0.00040
3509 57.61500 2541.71659 2571.00000 0.00039
3510 57.63000 2515.90741 2480.00000 0.00040
3511 57.64500 2493.57314 2531.00000 0.00040
3512 57.66000 2474.98851 2458.00000 0.00041
3513 57.67500 2460.15263 2490.00000 0.00040
3514 57.69000 2448.92193 2419.00000 0.00041
3515 57.70500 2441.11116 2527.00000 0.00040
3516 57.72000 2436.63261 2432.00000 0.00041
3517 57.73500 2435.32919 2420.00000 0.00041
3518 57.75000 2437.18005 2548.00000 0.00039
3519 57.76500 2442.26876 2484.00000 0.00040
3520 57.78000 2450.79435 2462.00000 0.00041
3521 57.79500 2463.07414 2468.00000 0.00041
3522 57.81000 2479.53720 2540.00000 0.00039
3523 57.82500 2500.70735 2455.00000 0.00041
3524 57.84000 2527.17369 2618.00000 0.00038
3525 57.85500 2559.54629 2655.00000 0.00038
3526 57.87000 2598.39032 2586.00000 0.00039
3527 57.88500 2644.12520 2596.00000 0.00039
3528 57.90000 2696.86530 2624.00000 0.00038
3529 57.91500 2756.17032 2660.00000 0.00038
3530 57.93000 2820.68013 2726.00000 0.00037
3531 57.94500 2887.65952 2810.00000 0.00036
3532 57.96000 2952.61161 2837.00000 0.00035
3533 57.97500 3009.32060 2792.00000 0.00036
3534 57.99000 3050.78268 2816.00000 0.00036
3535 58.00500 3071.15260 2820.00000 0.00035
3536 58.02000 3067.96429 2975.00000 0.00034
3537 58.03500 3043.19684 2873.00000 0.00035
3538 58.05000 3002.33441 2945.00000 0.00034
3539 58.06500 2952.07545 2791.00000 0.00036
3540 58.08000 2898.14041 2884.00000 0.00035
3541 58.09500 2844.21724 2793.00000 0.00036
3542 58.11000 2792.04881 2931.00000 0.00034
3543 58.12500 2742.15615 2782.00000 0.00036
3544 58.14000 2694.67728 2839.00000 0.00035
3545 58.15500 2649.91370 2741.00000 0.00036
3546 58.17000 2608.44352 2666.00000 0.00038
3547 58.18500 2570.89315 2652.00000 0.00038
3548 58.20000 2537.71775 2587.00000 0.00039
3549 58.21500 2509.05115 2557.00000 0.00039
3550 58.23000 2484.77763 2493.00000 0.00040
3551 58.24500 2464.61262 2515.00000 0.00040
3552 58.26000 2448.19650 2472.00000 0.00040
3553 58.27500 2435.16278 2548.00000 0.00039
3554 58.29000 2425.17830 2495.00000 0.00040
3555 58.30500 2417.96218 2440.00000 0.00041
3556 58.32000 2413.29028 2509.00000 0.00040
3557 58.33500 2410.99005 2461.00000 0.00041
3558 58.35000 2410.92810 2402.00000 0.00042
3559 58.36500 2412.99182 2536.00000 0.00039
3560 58.38000 2417.06692 2400.00000 0.00042
3561 58.39500 2423.01451 2504.00000 0.00040
3562 58.41000 2430.65311 2334.00000 0.00043
3563 58.42500 2439.74713 2381.00000 0.00042
3564 58.44000 2449.98957 2492.00000 0.00040
3565 58.45500 2460.96025 2466.00000 0.00041
3566 58.47000 2472.04956 2446.00000 0.00041
3567 58.48500 2482.39268 2401.00000 0.00042
3568 58.50000 2490.90693 2381.00000 0.00042
3569 58.51500 2496.50702 2270.00000 0.00044
3570 58.53000 2498.44957 2442.00000 0.00041
3571 58.54500 2496.60730 2453.00000 0.00041
3572 58.56000 2491.46500 2368.00000 0.00042
3573 58.57500 2483.83372 2460.00000 0.00041
3574 58.59000 2474.50318 2363.00000 0.00042
3575 58.60500 2464.06008 2362.00000 0.00042
3576 58.62000 2452.92141 2439.00000 0.00041
3577 58.63500 2441.46567 2442.00000 0.00041
3578 58.65000 2430.11613 2409.00000 0.00042
3579 58.66500 2419.32113 2448.00000 0.00041
3580 58.68000 2409.47345 2361.00000 0.00042
3581 58.69500 2400.85272 2460.00000 0.00041
3582 58.71000 2393.61118 2378.00000 0.00042
3583 58.72500 2387.79694 2404.00000 0.00042
3584 58.74000 2383.39020 2320.00000 0.00043
3585 58.75500 2380.33660 2304.00000 0.00043
3586 58.77000 2378.57221 2412.00000 0.00041
3587 58.78500 2378.04041 2450.00000 0.00041
3588 58.80000 2378.70278 2452.00000 0.00041
3589 58.81500 2380.54547 2296.00000 0.00044
3590 58.83000 2383.58330 2360.00000 0.00042
3591 58.84500 2387.86343 2392.00000 0.00042
3592 58.86000 2393.45937 2392.00000 0.00042
3593 58.87500 2400.47411 2317.00000 0.00043
3594 58.89000 2409.03483 2483.00000 0.00040
3595 58.90500 2419.28647 2355.00000 0.00042
3596 58.92000 2431.38204 2459.00000 0.00041
3597 58.93500 2445.46818 2443.00000 0.00041
3598 58.95000 2461.66348 2444.00000 0.00041
3599 58.96500 2480.02503 2456.00000 0.00041
3600 58.98000 2500.49901 2359.00000 0.00042
3601 58.99500 2522.85596 2396.00000 0.00042
3602 59.01000 2546.62694 2494.00000 0.00040
3603 59.02500 2571.08387 2362.00000 0.00042
3604 59.04000 2595.33012 2543.00000 0.00039
3605 59.05500 2618.54758 2695.00000 0.00037
3606 59.07000 2640.35014 2567.00000 0.00039
3607 59.08500 2661.06578 2633.00000 0.00038
3608 59.10000 2681.75011 2629.00000 0.00038
3609 59.11500 2703.89543 2731.00000 0.00037
3610 59.13000 2728.99511 2874.00000 0.00035
3611 59.14500 2758.15813 2980.00000 0.00034
3612 59.16000 2791.85955 2867.00000 0.00035
3613 59.17500 2829.82118 2953.00000 0.00034
3614 59.19000 2871.03063 3046.00000 0.00033
3615 59.20500 2913.95348 3223.00000 0.00031
3616 59.22000 2956.98868 3286.00000 0.00030
3617 59.23500 2999.06022 3279.00000 0.00030
3618 59.25000 3040.03881 3295.00000 0.00030
3619 59.26500 3080.67940 3489.00000 0.00029
3620 59.28000 3122.04674 3424.00000 0.00029
3621 59.29500 3164.71761 3283.00000 0.00030
3622 59.31000 3208.14910 3505.00000 0.00029
3623 59.32500 3250.37647 3395.00000 0.00029
3624 59.34000 3288.27659 3420.00000 0.00029
3625 59.35500 3318.48485 3576.00000 0.00028
3626 59.37000 3338.75459 3454.00000 0.00029
3627 59.38500 3349.18745 3420.00000 0.00029
3628 59.40000 3352.57153 3521.00000 0.00028
3629 59.41500 3353.56180 3376.00000 0.00030
3630 59.43000 3357.19372 3338.00000 0.00030
3631 59.44500 3367.50174 3184.00000 0.00031
3632 59.46000 3386.68184 3295.00000 0.00030
3633 59.47500 3414.80197 3357.00000 0.00030
3634 59.49000 3449.91251 3343.00000 0.00030
3635 59.50500 3488.47646 3244.00000 0.00031
3636 59.52000 3526.06518 3279.00000 0.00030
3637 59.53500 3558.13249 3234.00000 0.00031
3638 59.55000 3580.55859 3325.00000 0.00030
3639 59.56500 3589.79242 3416.00000 0.00029
3640 59.58000 3582.80256 3463.00000 0.00029
3641 59.59500 3557.23667 3407.00000 0.00029
3642 59.61000 3511.98611 3473.00000 0.00029
3643 59.62500 3447.88575 3454.00000 0.00029
3644 59.64000 3368.05154 3464.00000 0.00029
3645 59.65500 3277.44925 3440.00000 0.00029
3646 59.67000 3181.78992 3336.00000 0.00030
3647 59.68500 3086.33487 3040.00000 0.00033
3648 59.70000 2995.13354 3112.00000 0.00032
3649 59.71500 2910.82468 2908.00000 0.00034
3650 59.73000 2834.81769 2756.00000 0.00036
3651 59.74500 2767.61291 2787.00000 0.00036
3652 59.76000 2709.10690 2706.00000 0.00037
3653 59.77500 2658.82585 2626.00000 0.00038
3654 59.79000 2616.08910 2593.00000 0.00039
3655 59.80500 2580.11582 2629.00000 0.00038
3656 59.82000 2550.09132 2521.00000 0.00040
3657 59.83500 2525.27503 2438.00000 0.00041
3658 59.85000 2504.90375 2379.00000 0.00042
3659 59.86500 2488.30640 2555.00000 0.00039
3660 59.88000 2474.87510 2433.00000 0.00041
3661 59.89500 2464.10850 2437.00000 0.00041
3662 59.91000 2455.54686 2512.00000 0.00040
3663 59.92500 2448.74916 2497.00000 0.00040
3664 59.94000 2443.34201 2409.00000 0.00042
3665 59.95500 2439.01728 2457.00000 0.00041
3666 59.97000 2435.56021 2460.00000 0.00041
3667 59.98500 2432.88206 2458.00000 0.00041
3668 60.00000 2431.02817 2481.00000 0.00040
3669 60.01500 2430.15425 2499.00000 0.00040
3670 60.03000 2430.48062 2436.00000 0.00041
3671 60.04500 2432.24596 2467.00000 0.00041
3672 60.06000 2435.67372 2519.00000 0.00040
3673 60.07500 2440.95686 2427.00000 0.00041
3674 60.09000 2448.24755 2461.00000 0.00041
3675 60.10500 2457.63275 2542.00000 0.00039
3676 60.12000 2469.26212 2448.00000 0.00041
3677 60.13500 2483.04200 2501.00000 0.00040
3678 60.15000 2498.81939 2520.00000 0.00040
3679 60.16500 2516.25555 2469.00000 0.00041
3680 60.18000 2534.78971 2567.00000 0.00039
3681 60.19500 2553.62279 2592.00000 0.00039
3682 60.21000 2571.77604 2578.00000 0.00039
3683 60.22500 2588.25334 2628.00000 0.00038
3684 60.24000 2602.28136 2698.00000 0.00037
3685 60.25500 2613.52875 2717.00000 0.00037
3686 60.27000 2622.24287 2719.00000 0.00037
3687 60.28500 2629.17314 2673.00000 0.00037
3688 60.30000 2635.42123 2720.00000 0.00037
3689 60.31500 2642.29086 2669.00000 0.00037
3690 60.33000 2651.08696 2648.00000 0.00038
3691 60.34500 2662.94412 2766.00000 0.00036
3692 60.36000 2678.69291 2745.00000 0.00036
3693 60.37500 2698.76521 2600.00000 0.00038
3694 60.39000 2723.11853 2826.00000 0.00035
3695 60.40500 2751.16631 2689.00000 0.00037
3696 60.42000 2781.73720 2749.00000 0.00036
3697 60.43500 2813.12443 2753.00000 0.00036
3698 60.45000 2843.28582 2866.00000 0.00035
3699 60.46500 2870.19401 2892.00000 0.00035
3700 60.48000 2892.22153 2749.00000 0.00036
3701 60.49500 2908.37568 2872.00000 0.00035
3702 60.51000 2918.26980 2814.00000 0.00036
3703 60.52500 2921.90042 2873.00000 0.00035
3704 60.54000 2919.43024 2807.00000 0.00036
3705 60.55500 2911.12381 2794.00000 0.00036
3706 60.57000 2897.40401 2854.00000 0.00035
3707 60.58500 2878.87983 2832.00000 0.00035
3708 60.60000 2856.27271 2836.00000 0.00035
3709 60.61500 2830.30301 2829.00000 0.00035
3710 60.63000 2801.64261 2720.00000 0.00037
3711 60.64500 2770.92990 2655.00000 0.00038
3712 60.66000 2738.77269 2782.00000 0.00036
3713 60.67500 2705.72987 2755.00000 0.00036
3714 60.69000 2672.32065 2710.00000 0.00037
3715 60.70500 2639.08175 2571.00000 0.00039
3716 60.72000 2606.61864 2577.00000 0.00039
3717 60.73500 2575.58690 2636.00000 0.00038
3718 60.75000 2546.60651 2595.00000 0.00039
3719 60.76500 2520.16923 2570.00000 0.00039
3720 60.78000 2496.59292 2524.00000 0.00040
3721 60.79500 2476.03291 2465.00000 0.00041
3722 60.81000 2458.52717 2495.00000 0.00040
3723 60.82500 2444.04598 2442.00000 0.00041
3724 60.84000 2432.52836 2566.00000 0.00039
3725 60.85500 2423.90157 2490.00000 0.00040
3726 60.87000 2418.08873 2476.00000 0.00040
3727 60.88500 2415.00985 2437.00000 0.00041
3728 60.90000 2414.57960 2520.00000 0.00040
3729 60.91500 2416.70116 2597.00000 0.00039
3730 60.93000 2421.25440 2433.00000 0.00041
3731 60.94500 2428.07812 2481.00000 0.00040
3732 60.96000 2436.93794 2488.00000 0.00040
3733 60.97500 2447.50532 2424.00000 0.00041
3734 60.99000 2459.29342 2453.00000 0.00041
3735 61.00500 2471.58996 2499.00000 0.00040
3736 61.02000 2483.45832 2388.00000 0.00042
3737 61.03500 2493.76106 2441.00000 0.00041
3738 61.05000 2501.28868 2496.00000 0.00040
3739 61.06500 2504.98678 2409.00000 0.00042
3740 61.08000 2504.22175 2440.00000 0.00041
3741 61.09500 2498.97253 2299.00000 0.00043
3742 61.11000 2489.84621 2510.00000 0.00040
3743 61.12500 2477.90039 2530.00000 0.00040
3744 61.14000 2464.40528 2461.00000 0.00041
3745 61.15500 2450.53121 2410.00000 0.00041
3746 61.17000 2437.25350 2394.00000 0.00042
3747 61.18500 2425.29715 2388.00000 0.00042
3748 61.20000 2415.16006 2311.00000 0.00043
3749 61.21500 2407.16006 2419.00000 0.00041
3750 61.23000 2401.48009 2410.00000 0.00041
3751 61.24500 2398.20158 2457.00000 0.00041
3752 61.26000 2397.32448 2438.00000 0.00041
3753 61.27500 2398.77558 2291.00000 0.00044
3754 61.29000 2402.40547 2392.00000 0.00042
3755 61.30500 2407.97713 2457.00000 0.00041
3756 61.32000 2415.13898 2393.00000 0.00042
3757 61.33500 2423.39253 2477.00000 0.00040
3758 61.35000 2432.06567 2430.00000 0.00041
3759 61.36500 2440.31064 2306.00000 0.00043
3760 61.38000 2447.16228 2417.00000 0.00041
3761 61.39500 2451.68142 2415.00000 0.00041
3762 61.41000 2453.15908 2327.00000 0.00043
3763 61.42500 2451.33644 2436.00000 0.00041
3764 61.44000 2446.46278 2391.00000 0.00042
3765 61.45500 2439.21542 2313.00000 0.00043
3766 61.47000 2430.52092 2498.00000 0.00040
3767 61.48500 2421.33765 2425.00000 0.00041
3768 61.50000 2412.51364 2359.00000 0.00042
3769 61.51500 2404.72812 2403.00000 0.00042
3770 61.53000 2398.51457 2284.00000 0.00044
3771 61.54500 2394.27776 2345.00000 0.00043
3772 61.56000 2392.33140 2334.00000 0.00043
3773 61.57500 2392.94240 2331.00000 0.00043
3774 61.59000 2396.34607 2311.00000 0.00043
3775 61.60500 2402.75651 2382.00000 0.00042
3776 61.62000 2412.36864 2422.00000 0.00041
3777 61.63500 2425.35303 2342.00000 0.00043
3778 61.65000 2441.84244 2387.00000 0.00042
3779 61.66500 2461.91335 2451.00000 0.00041
3780 61.68000 2485.55130 2471.00000 0.00040
3781 61.69500 2512.63378 2466.00000 0.00041
3782 61.71000 2542.87295 2453.00000 0.00041
3783 61.72500 2575.66679 2527.00000 0.00040
3784 61.74000 2610.08229 2612.00000 0.00038
3785 61.75500 2644.74494 2618.00000 0.00038
3786 61.77000 2677.80084 2583.00000 0.00039
3787 61.78500 2706.98981 2621.00000 0.00038
3788 61.80000 2729.88100 2605.00000 0.00038
3789 61.81500 2744.27507 2716.00000 0.00037
3790 61.83000 2748.66238 2658.00000 0.00038
3791 61.84500 2742.58968 2706.00000 0.00037
3792 61.86000 2726.79031 2501.00000 0.00040
3793 61.87500 2703.00330 2570.00000 0.00039
3794 61.89000 2673.56357 2613.00000 0.00038
3795 61.90500 2640.92355 2609.00000 0.00038
3796 61.92000 2607.27722 2471.00000 0.00040
3797 61.93500 2574.35229 2517.00000 0.00040
3798 61.95000 2543.42963 2464.00000 0.00041
3799 61.96500 2515.33284 2431.00000 0.00041
3800 61.98000 2490.48853 2420.00000 0.00041
3801 61.99500 2469.10610 2341.00000 0.00043
3802 62.01000 2451.22672 2430.00000 0.00041
3803 62.02500 2436.78720 2372.00000 0.00042
3804 62.04000 2425.66620 2442.00000 0.00041
3805 62.05500 2417.71296 2300.00000 0.00043
3806 62.07000 2412.76008 2380.00000 0.00042
3807 62.08500 2410.62563 2352.00000 0.00043
3808 62.10000 2411.11312 2377.00000 0.00042
3809 62.11500 2414.01818 2421.00000 0.00041
3810 62.13000 2419.14891 2401.00000 0.00042
3811 62.14500 2426.36087 2344.00000 0.00043
3812 62.16000 2435.59607 2458.00000 0.00041
3813 62.17500 2446.90689 2385.00000 0.00042
3814 62.19000 2460.46533 2367.00000 0.00042
3815 62.20500 2476.46687 2395.00000 0.00042
3816 62.22000 2495.09123 2434.00000 0.00041
3817 62.23500 2516.40727 2500.00000 0.00040
3818 62.25000 2540.29301 2615.00000 0.00038
3819 62.26500 2566.36627 2627.00000 0.00038
3820 62.28000 2593.93537 2689.00000 0.00037
3821 62.29500 2621.99247 2827.00000 0.00035
3822 62.31000 2649.28109 2872.00000 0.00035
3823 62.32500 2674.45571 2904.00000 0.00034
3824 62.34000 2696.29938 2999.00000 0.00033
3825 62.35500 2713.91448 2980.00000 0.00034
3826 62.37000 2726.77065 3141.00000 0.00032
3827 62.38500 2734.58427 3101.00000 0.00032
3828 62.40000 2737.12353 2896.00000 0.00035
3829 62.41500 2734.10142 2967.00000 0.00034
3830 62.43000 2725.26345 2902.00000 0.00034
3831 62.44500 2710.63310 2817.00000 0.00035
3832 62.46000 2690.75441 2806.00000 0.00036
3833 62.47500 2666.76380 2689.00000 0.00037
3834 62.49000 2640.24123 2718.00000 0.00037
3835 62.50500 2612.93106 2763.00000 0.00036
3836 62.52000 2586.47572 2665.00000 0.00038
3837 62.53500 2562.25429 2646.00000 0.00038
3838 62.55000 2541.33649 2564.00000 0.00039
3839 62.56500 2524.51298 2604.00000 0.00038
3840 62.58000 2512.35614 2509.00000 0.00040
3841 62.59500 2505.28039 2473.00000 0.00040
3842 62.61000 2503.58804 2587.00000 0.00039
3843 62.62500 2507.49742 2547.00000 0.00039
3844 62.64000 2517.15498 2535.00000 0.00039
3845 62.65500 2532.63310 2535.00000 0.00039
3846 62.67000 2553.91592 2500.00000 0.00040
3847 62.68500 2580.87157 2642.00000 0.00038
3848 62.70000 2613.21076 2757.00000 0.00036
3849 62.71500 2650.45200 2748.00000 0.00036
3850 62.73000 2691.77048 2855.00000 0.00035
3851 62.74500 2735.96546 2752.00000 0.00036
3852 62.76000 2781.31704 2931.00000 0.00034
3853 62.77500 2825.50604 2940.00000 0.00034
3854 62.79000 2865.67357 2968.00000 0.00034
3855 62.80500 2898.59990 2959.00000 0.00034
3856 62.82000 2921.13516 3054.00000 0.00033
3857 62.83500 2930.76851 3035.00000 0.00033
3858 62.85000 2926.19057 3072.00000 0.00033
3859 62.86500 2907.62477 3006.00000 0.00033
3860 62.88000 2876.77484 2980.00000 0.00034
3861 62.89500 2836.40500 2826.00000 0.00035
3862 62.91000 2789.73357 2790.00000 0.00036
3863 62.92500 2739.87126 2794.00000 0.00036
3864 62.94000 2689.45644 2699.00000 0.00037
3865 62.95500 2640.51255 2703.00000 0.00037
3866 62.97000 2594.46626 2637.00000 0.00038
3867 62.98500 2552.24419 2546.00000 0.00039
3868 63.00000 2514.38726 2567.00000 0.00039
3869 63.01500 2481.15163 2609.00000 0.00038
3870 63.03000 2452.58689 2568.00000 0.00039
3871 63.04500 2428.59330 2440.00000 0.00041
3872 63.06000 2408.96267 2446.00000 0.00041
3873 63.07500 2393.40836 2414.00000 0.00041
3874 63.09000 2381.58624 2392.00000 0.00042
3875 63.10500 2373.10284 2355.00000 0.00042
3876 63.12000 2367.52298 2334.00000 0.00043
3877 63.13500 2364.36425 2343.00000 0.00043
3878 63.15000 2363.08610 2274.00000 0.00044
3879 63.16500 2363.07791 2314.00000 0.00043
3880 63.18000 2363.65722 2336.00000 0.00043
3881 63.19500 2364.09401 2403.00000 0.00042
3882 63.21000 2363.67421 2342.00000 0.00043
3883 63.22500 2361.80058 2285.00000 0.00044
3884 63.24000 2358.10294 2241.00000 0.00045
3885 63.25500 2352.51076 2259.00000 0.00044
3886 63.27000 2345.25013 2238.00000 0.00045
3887 63.28500 2336.76504 2360.00000 0.00042
3888 63.30000 2327.60137 2330.00000 0.00043
3889 63.31500 2318.30150 2365.00000 0.00042
3890 63.33000 2309.33852 2348.00000 0.00043
3891 63.34500 2301.09226 2285.00000 0.00044
3892 63.36000 2293.85367 2303.00000 0.00043
3893 63.37500 2287.84070 2351.00000 0.00043
3894 63.39000 2283.21876 2257.00000 0.00044
3895 63.40500 2280.11012 2296.00000 0.00044
3896 63.42000 2278.64585 2292.00000 0.00044
3897 63.43500 2278.92646 2259.00000 0.00044
3898 63.45000 2281.02002 2344.00000 0.00043
3899 63.46500 2284.99839 2452.00000 0.00041
3900 63.48000 2290.92211 2276.00000 0.00044
3901 63.49500 2298.83666 2350.00000 0.00043
3902 63.51000 2308.76734 2366.00000 0.00042
3903 63.52500 2320.70675 2326.00000 0.00043
3904 63.54000 2334.65129 2320.00000 0.00043
3905 63.55500 2350.48435 2357.00000 0.00042
3906 63.57000 2368.02827 2430.00000 0.00041
3907 63.58500 2386.99142 2339.00000 0.00043
3908 63.60000 2406.93426 2399.00000 0.00042
3909 63.61500 2427.24522 2318.00000 0.00043
3910 63.63000 2447.14904 2505.00000 0.00040
3911 63.64500 2465.77026 2522.00000 0.00040
3912 63.66000 2482.27302 2424.00000 0.00041
3913 63.67500 2496.05361 2495.00000 0.00040
3914 63.69000 2506.92492 2524.00000 0.00040
3915 63.70500 2515.20811 2443.00000 0.00041
3916 63.72000 2521.67960 2445.00000 0.00041
3917 63.73500 2527.39260 2552.00000 0.00039
3918 63.75000 2533.44851 2502.00000 0.00040
3919 63.76500 2540.79622 2505.00000 0.00040
3920 63.78000 2550.09808 2472.00000 0.00040
3921 63.79500 2561.65971 2581.00000 0.00039
3922 63.81000 2575.40219 2501.00000 0.00040
3923 63.82500 2590.85888 2478.00000 0.00040
3924 63.84000 2607.19287 2651.00000 0.00038
3925 63.85500 2623.24223 2518.00000 0.00040
3926 63.87000 2637.60220 2578.00000 0.00039
3927 63.88500 2648.74916 2570.00000 0.00039
3928 63.90000 2655.20508 2536.00000 0.00039
3929 63.91500 2655.73591 2552.00000 0.00039
3930 63.93000 2649.56370 2504.00000 0.00040
3931 63.94500 2636.54097 2628.00000 0.00038
3932 63.96000 2617.21653 2562.00000 0.00039
3933 63.97500 2592.73931 2548.00000 0.00039
3934 63.99000 2564.64563 2554.00000 0.00039
3935 64.00500 2534.55299 2536.00000 0.00039
3936 64.02000 2503.91747 2555.00000 0.00039
3937 64.03500 2473.90960 2551.00000 0.00039
3938 64.05000 2445.36078 2499.00000 0.00040
3939 64.06500 2418.77991 2432.00000 0.00041
3940 64.08000 2394.40135 2467.00000 0.00041
3941 64.09500 2372.24464 2364.00000 0.00042
3942 64.11000 2352.17919 2473.00000 0.00040
3943 64.12500 2333.99219 2350.00000 0.00043
3944 64.14000 2317.45479 2346.00000 0.00043
3945 64.15500 2302.37568 2301.00000 0.00043
3946 64.17000 2288.62937 2277.00000 0.00044
3947 64.18500 2276.15484 2348.00000 0.00043
3948 64.20000 2264.93286 2287.00000 0.00044
3949 64.21500 2254.95816 2261.00000 0.00044
3950 64.23000 2246.22095 2275.00000 0.00044
3951 64.24500 2238.70361 2283.00000 0.00044
3952 64.26000 2232.38984 2279.00000 0.00044
3953 64.27500 2227.27819 2314.00000 0.00043
3954 64.29000 2223.39160 2254.00000 0.00044
3955 64.30500 2220.77808 2220.00000 0.00045
3956 64.32000 2219.50289 2350.00000 0.00043
3957 64.33500 2219.63613 2221.00000 0.00045
3958 64.35000 2221.23990 2274.00000 0.00044
3959 64.36500 2224.35748 2183.00000 0.00046
3960 64.38000 2229.00437 2261.00000 0.00044
3961 64.39500 2235.15979 2298.00000 0.00044
3962 64.41000 2242.75672 2295.00000 0.00044
3963 64.42500 2251.66851 2246.00000 0.00045
3964 64.44000 2261.69098 2264.00000 0.00044
3965 64.45500 2272.51974 2396.00000 0.00042
3966 64.47000 2283.72567 2363.00000 0.00042
3967 64.48500 2294.73609 2335.00000 0.00043
3968 64.50000 2304.83579 2381.00000 0.00042
3969 64.51500 2313.20597 2283.00000 0.00044
3970 64.53000 2319.01529 2322.00000 0.00043
3971 64.54500 2321.55781 2320.00000 0.00043
3972 64.56000 2320.40282 2325.00000 0.00043
3973 64.57500 2315.49953 2340.00000 0.00043
3974 64.59000 2307.18872 2340.00000 0.00043
3975 64.60500 2296.11522 2306.00000 0.00043
3976 64.62000 2283.08222 2325.00000 0.00043
3977 64.63500 2268.90625 2314.00000 0.00043
3978 64.65000 2254.31477 2302.00000 0.00043
3979 64.66500 2239.89763 2419.00000 0.00041
3980 64.68000 2226.09975 2265.00000 0.00044
3981 64.69500 2213.23941 2192.00000 0.00046
3982 64.71000 2201.52314 2312.00000 0.00043
3983 64.72500 2191.13741 2190.00000 0.00046
3984 64.74000 2182.15260 2266.00000 0.00044
3985 64.75500 2174.62514 2234.00000 0.00045
3986 64.77000 2168.58652 2242.00000 0.00045
3987 64.78500 2164.05156 2211.00000 0.00045
3988 64.80000 2161.02389 2158.00000 0.00046
3989 64.81500 2159.49945 2210.00000 0.00045
3990 64.83000 2159.46850 2211.00000 0.00045
3991 64.84500 2160.91610 2177.00000 0.00046
3992 64.86000 2163.82127 2043.00000 0.00049
3993 64.87500 2168.15436 2254.00000 0.00044
3994 64.89000 2173.87259 2174.00000 0.00046
3995 64.90500 2180.91327 2165.00000 0.00046
3996 64.92000 2189.18429 2243.00000 0.00045
3997 64.93500 2198.55139 2135.00000 0.00047
3998 64.95000 2208.82243 2186.00000 0.00046
3999 64.96500 2219.72979 2137.00000 0.00047
4000 64.98000 2230.91446 2228.00000 0.00045
4001 64.99500 2241.91826 2132.00000 0.00047
4002 65.01000 2252.19358 2236.00000 0.00045
4003 65.02500 2261.13961 2091.00000 0.00048
4004 65.04000 2268.16868 2161.00000 0.00046
4005 65.05500 2272.79396 2129.00000 0.00047
4006 65.07000 2274.71618 2067.00000 0.00048
4007 65.08500 2273.88110 2149.00000 0.00047
4008 65.10000 2270.48816 2120.00000 0.00047
4009 65.11500 2264.94881 2165.00000 0.00046
4010 65.13000 2257.81048 2204.00000 0.00045
4011 65.14500 2249.66901 2198.00000 0.00045
4012 65.16000 2241.08999 2191.00000 0.00046
4013 65.17500 2232.55163 2195.00000 0.00046
4014 65.19000 2224.41244 2138.00000 0.00047
4015 65.20500 2216.90128 2187.00000 0.00046
4016 65.22000 2210.12410 2215.00000 0.00045
4017 65.23500 2204.08320 2166.00000 0.00046
4018 65.25000 2198.70699 2116.00000 0.00047
4019 65.26500 2193.88890 2258.00000 0.00044
4020 65.28000 2189.53003 2183.00000 0.00046
4021 65.29500 2185.57580 2142.00000 0.00047
4022 65.31000 2182.03616 2120.00000 0.00047
4023 65.32500 2178.98347 2100.00000 0.00048
4024 65.34000 2176.53179 2155.00000 0.00046
4025 65.35500 2174.80757 2186.00000 0.00046
4026 65.37000 2173.92209 2154.00000 0.00046
4027 65.38500 2173.95154 2155.00000 0.00046
4028 65.40000 2174.92637 2143.00000 0.00047
4029 65.41500 2176.82923 2142.00000 0.00047
4030 65.43000 2179.59978 2121.00000 0.00047
4031 65.44500 2183.14411 2190.00000 0.00046
4032 65.46000 2187.34506 2086.00000 0.00048
4033 65.47500 2192.07062 2130.00000 0.00047
4034 65.49000 2197.17880 2139.00000 0.00047
4035 65.50500 2202.51982 2170.00000 0.00046
4036 65.52000 2207.93775 2282.00000 0.00044
4037 65.53500 2213.27002 2255.00000 0.00044
4038 65.55000 2218.33877 2273.00000 0.00044
4039 65.56500 2222.94044 2229.00000 0.00045
4040 65.58000 2226.81764 2255.00000 0.00044
4041 65.59500 2229.64822 2245.00000 0.00045
4042 65.61000 2231.06874 2321.00000 0.00043
4043 65.62500 2230.72596 2223.00000 0.00045
4044 65.64000 2228.35711 2262.00000 0.00044
4045 65.65500 2223.86919 2232.00000 0.00045
4046 65.67000 2217.38324 2286.00000 0.00044
4047 65.68500 2209.22323 2242.00000 0.00045
4048 65.70000 2199.85475 2252.00000 0.00044
4049 65.71500 2189.80064 2177.00000 0.00046
4050 65.73000 2179.56378 2283.00000 0.00044
4051 65.74500 2169.57584 2255.00000 0.00044
4052 65.76000 2160.17445 2157.00000 0.00046
4053 65.77500 2151.60149 2233.00000 0.00045
4054 65.79000 2144.01255 2134.00000 0.00047
4055 65.80500 2137.48954 2125.00000 0.00047
4056 65.82000 2132.05205 2196.00000 0.00046
4057 65.83500 2127.66592 2185.00000 0.00046
4058 65.85000 2124.24935 2169.00000 0.00046
4059 65.86500 2121.67882 2095.00000 0.00048
4060 65.88000 2119.79758 2073.00000 0.00048
4061 65.89500 2118.42996 2092.00000 0.00048
4062 65.91000 2117.40334 2079.00000 0.00048
4063 65.92500 2116.57602 2173.00000 0.00046
4064 65.94000 2115.86502 2127.00000 0.00047
4065 65.95500 2115.26505 2227.00000 0.00045
4066 65.97000 2114.85152 2150.00000 0.00047
4067 65.98500 2114.76634 2065.00000 0.00048
4068 66.00000 2115.19287 2016.00000 0.00050
4069 66.01500 2116.32713 2129.00000 0.00047
4070 66.03000 2118.37160 2101.00000 0.00048
4071 66.04500 2121.51999 2135.00000 0.00047
4072 66.06000 2125.91303 2119.00000 0.00047
4073 66.07500 2131.67754 2153.00000 0.00046
4074 66.09000 2138.91223 1970.00000 0.00051
4075 66.10500 2147.68591 2084.00000 0.00048
4076 66.12000 2158.03365 2072.00000 0.00048
4077 66.13500 2169.95015 2234.00000 0.00045
4078 66.15000 2183.38103 2188.00000 0.00046
4079 66.16500 2198.20999 2204.00000 0.00045
4080 66.18000 2214.24587 2263.00000 0.00044
4081 66.19500 2231.21382 2207.00000 0.00045
4082 66.21000 2248.75359 2295.00000 0.00044
4083 66.22500 2266.43319 2313.00000 0.00043
4084 66.24000 2283.78470 2254.00000 0.00044
4085 66.25500 2300.36460 2334.00000 0.00043
4086 66.27000 2315.84531 2268.00000 0.00044
4087 66.28500 2330.05108 2398.00000 0.00042
4088 66.30000 2343.03503 2433.00000 0.00041
4089 66.31500 2355.06474 2392.00000 0.00042
4090 66.33000 2366.56039 2439.00000 0.00041
4091 66.34500 2377.99091 2425.00000 0.00041
4092 66.36000 2389.76202 2452.00000 0.00041
4093 66.37500 2402.10959 2450.00000 0.00041
4094 66.39000 2415.09863 2466.00000 0.00041
4095 66.40500 2428.42436 2437.00000 0.00041
4096 66.42000 2441.52154 2448.00000 0.00041
4097 66.43500 2453.55622 2571.00000 0.00039
4098 66.45000 2463.49977 2539.00000 0.00039
4099 66.46500 2470.25605 2438.00000 0.00041
4100 66.48000 2472.82848 2528.00000 0.00040
4101 66.49500 2470.49074 2517.00000 0.00040
4102 66.51000 2462.91251 2580.00000 0.00039
4103 66.52500 2450.20331 2397.00000 0.00042
4104 66.54000 2432.86982 2430.00000 0.00041
4105 66.55500 2411.71229 2352.00000 0.00043
4106 66.57000 2387.69827 2409.00000 0.00042
4107 66.58500 2361.84473 2300.00000 0.00043
4108 66.60000 2335.12529 2328.00000 0.00043
4109 66.61500 2308.40743 2224.00000 0.00045
4110 66.63000 2282.41731 2239.00000 0.00045
4111 66.64500 2257.72677 2237.00000 0.00045
4112 66.66000 2234.75633 2270.00000 0.00044
4113 66.67500 2213.78774 2199.00000 0.00045
4114 66.69000 2194.98102 2187.00000 0.00046
4115 66.70500 2178.39179 2177.00000 0.00046
4116 66.72000 2163.98669 2155.00000 0.00046
4117 66.73500 2151.65587 2183.00000 0.00046
4118 66.75000 2141.22343 2167.00000 0.00046
4119 66.76500 2132.45750 2119.00000 0.00047
4120 66.78000 2125.08265 2101.00000 0.00048
4121 66.79500 2118.80435 2022.00000 0.00049
4122 66.81000 2113.32694 2059.00000 0.00049
4123 66.82500 2108.39417 2151.00000 0.00046
4124 66.84000 2103.82018 2005.00000 0.00050
4125 66.85500 2099.51329 2056.00000 0.00049
4126 66.87000 2095.48176 2076.00000 0.00048
4127 66.88500 2091.82022 2080.00000 0.00048
4128 66.90000 2088.68297 2108.00000 0.00047
4129 66.91500 2086.25377 2065.00000 0.00048
4130 66.93000 2084.72060 2012.00000 0.00050
4131 66.94500 2084.25901 2052.00000 0.00049
4132 66.96000 2085.02357 1977.00000 0.00051
4133 66.97500 2087.14469 2056.00000 0.00049
4134 66.99000 2090.72802 2138.00000 0.00047
4135 67.00500 2095.85416 2020.00000 0.00050
4136 67.02000 2102.57734 2106.00000 0.00047
4137 67.03500 2110.92232 2067.00000 0.00048
4138 67.05000 2120.87892 2117.00000 0.00047
4139 67.06500 2132.39383 2050.00000 0.00049
4140 67.08000 2145.35925 2175.00000 0.00046
4141 67.09500 2159.59875 2146.00000 0.00047
4142 67.11000 2174.85205 2111.00000 0.00047
4143 67.12500 2190.76259 2163.00000 0.00046
4144 67.14000 2206.87515 2166.00000 0.00046
4145 67.15500 2222.65267 2134.00000 0.00047
4146 67.17000 2237.52072 2227.00000 0.00045
4147 67.18500 2250.94070 2226.00000 0.00045
4148 67.20000 2262.49951 2239.00000 0.00045
4149 67.21500 2271.98943 2330.00000 0.00043
4150 67.23000 2279.44867 2337.00000 0.00043
4151 67.24500 2285.14267 2326.00000 0.00043
4152 67.26000 2289.48311 2347.00000 0.00043
4153 67.27500 2292.92671 2323.00000 0.00043
4154 67.29000 2295.86694 2314.00000 0.00043
4155 67.30500 2298.54992 2303.00000 0.00043
4156 67.32000 2301.02257 2341.00000 0.00043
4157 67.33500 2303.11522 2341.00000 0.00043
4158 67.35000 2304.45963 2367.00000 0.00042
4159 67.36500 2304.54400 2398.00000 0.00042
4160 67.38000 2302.80470 2363.00000 0.00042
4161 67.39500 2298.74364 2388.00000 0.00042
4162 67.41000 2292.04743 2320.00000 0.00043
4163 67.42500 2282.67414 2301.00000 0.00043
4164 67.44000 2270.90096 2344.00000 0.00043
4165 67.45500 2257.21140 2266.00000 0.00044
4166 67.47000 2242.25286 2320.00000 0.00043
4167 67.48500 2226.71279 2239.00000 0.00045
4168 67.50000 2211.22885 2196.00000 0.00046
4169 67.51500 2196.33267 2195.00000 0.00046
4170 67.53000 2182.42596 2196.00000 0.00046
4171 67.54500 2169.77876 2161.00000 0.00046
4172 67.56000 2158.53875 2231.00000 0.00045
4173 67.57500 2148.74367 2090.00000 0.00048
4174 67.59000 2140.33374 2125.00000 0.00047
4175 67.60500 2133.16426 2092.00000 0.00048
4176 67.62000 2127.02070 2121.00000 0.00047
4177 67.63500 2121.63827 2110.00000 0.00047
4178 67.65000 2116.72636 2084.00000 0.00048
4179 67.66500 2111.99565 2034.00000 0.00049
4180 67.68000 2107.18401 2087.00000 0.00048
4181 67.69500 2102.07799 2039.00000 0.00049
4182 67.71000 2096.52884 1944.00000 0.00051
4183 67.72500 2090.46299 1986.00000 0.00050
4184 67.74000 2083.88870 2052.00000 0.00049
4185 67.75500 2076.88777 1995.00000 0.00050
4186 67.77000 2069.65695 2076.00000 0.00048
4187 67.78500 2062.40145 2018.00000 0.00050
4188 67.80000 2055.36397 2070.00000 0.00048
4189 67.81500 2048.79333 2011.00000 0.00050
4190 67.83000 2042.92335 2024.00000 0.00049
4191 67.84500 2037.96299 1977.00000 0.00051
4192 67.86000 2034.09333 1992.00000 0.00050
4193 67.87500 2031.46905 2021.00000 0.00049
4194 67.89000 2030.22161 2064.00000 0.00048
4195 67.90500 2030.46247 2016.00000 0.00050
4196 67.92000 2032.28552 2047.00000 0.00049
4197 67.93500 2035.76717 2094.00000 0.00048
4198 67.95000 2040.96579 1971.00000 0.00051
4199 67.96500 2047.91974 2039.00000 0.00049
4200 67.98000 2056.64372 1982.00000 0.00050
4201 67.99500 2067.12420 2058.00000 0.00049
4202 68.01000 2079.31388 2111.00000 0.00047
4203 68.02500 2093.12542 2090.00000 0.00048
4204 68.04000 2108.42457 2098.00000 0.00048
4205 68.05500 2125.02249 2285.00000 0.00044
4206 68.07000 2142.66716 2110.00000 0.00047
4207 68.08500 2161.03376 2261.00000 0.00044
4208 68.10000 2179.71606 2314.00000 0.00043
4209 68.11500 2198.22297 2388.00000 0.00042
4210 68.13000 2215.98771 2380.00000 0.00042
4211 68.14500 2232.39689 2531.00000 0.00040
4212 68.16000 2246.84223 2501.00000 0.00040
4213 68.17500 2258.78826 2402.00000 0.00042
4214 68.19000 2267.83933 2458.00000 0.00041
4215 68.20500 2273.78631 2501.00000 0.00040
4216 68.22000 2276.61940 2469.00000 0.00041
4217 68.23500 2276.50593 2480.00000 0.00040
4218 68.25000 2273.74274 2421.00000 0.00041
4219 68.26500 2268.69651 2356.00000 0.00042
4220 68.28000 2261.74552 2375.00000 0.00042
4221 68.29500 2253.23388 2292.00000 0.00044
4222 68.31000 2243.44823 2253.00000 0.00044
4223 68.32500 2232.62044 2228.00000 0.00045
4224 68.34000 2220.95229 2250.00000 0.00044
4225 68.35500 2208.64834 2295.00000 0.00044
4226 68.37000 2195.94049 2157.00000 0.00046
4227 68.38500 2183.09105 2176.00000 0.00046
4228 68.40000 2170.37358 2131.00000 0.00047
4229 68.41500 2158.03924 2150.00000 0.00047
4230 68.43000 2146.28222 2109.00000 0.00047
4231 68.44500 2135.21590 2098.00000 0.00048
4232 68.46000 2124.86656 2197.00000 0.00046
4233 68.47500 2115.18358 2069.00000 0.00048
4234 68.49000 2106.06605 2113.00000 0.00047
4235 68.50500 2097.39470 2145.00000 0.00047
4236 68.52000 2089.11223 2032.00000 0.00049
4237 68.53500 2081.19159 1992.00000 0.00050
4238 68.55000 2073.61906 2155.00000 0.00046
4239 68.56500 2066.43636 1986.00000 0.00050
4240 68.58000 2059.69446 2081.00000 0.00048
4241 68.59500 2053.42659 2027.00000 0.00049
4242 68.61000 2047.62694 2029.00000 0.00049
4243 68.62500 2042.23894 2101.00000 0.00048
4244 68.64000 2037.15335 1993.00000 0.00050
4245 68.65500 2032.21589 2002.00000 0.00050
4246 68.67000 2027.23913 1886.00000 0.00053
4247 68.68500 2022.04684 2040.00000 0.00049
4248 68.70000 2016.45815 2018.00000 0.00050
4249 68.71500 2010.34424 1997.00000 0.00050
4250 68.73000 2003.64169 2051.00000 0.00049
4251 68.74500 1996.36281 1990.00000 0.00050
4252 68.76000 1988.59156 1979.00000 0.00051
4253 68.77500 1980.46620 2012.00000 0.00050
4254 68.79000 1972.15456 2047.00000 0.00049
4255 68.80500 1963.82935 2049.00000 0.00049
4256 68.82000 1955.64916 1978.00000 0.00051
4257 68.83500 1947.74739 2021.00000 0.00049
4258 68.85000 1940.22845 1926.00000 0.00052
4259 68.86500 1933.16895 1997.00000 0.00050
4260 68.88000 1926.62157 1958.00000 0.00051
4261 68.89500 1920.61976 1900.00000 0.00053
4262 68.91000 1915.18229 1892.00000 0.00053
4263 68.92500 1910.31715 1905.00000 0.00052
4264 68.94000 1906.02478 1953.00000 0.00051
4265 68.95500 1902.30055 1867.00000 0.00054
4266 68.97000 1899.13690 1999.00000 0.00050
4267 68.98500 1896.52498 1940.00000 0.00052
4268 69.00000 1894.45589 1951.00000 0.00051
4269 69.01500 1892.92194 1964.00000 0.00051
4270 69.03000 1891.91738 1900.00000 0.00053
4271 69.04500 1891.43907 1834.00000 0.00055
4272 69.06000 1891.48668 1954.00000 0.00051
4273 69.07500 1892.06280 1897.00000 0.00053
4274 69.09000 1893.17261 1880.00000 0.00053
4275 69.10500 1894.82320 1891.00000 0.00053
4276 69.12000 1897.02260 1946.00000 0.00051
4277 69.13500 1899.77836 1858.00000 0.00054
4278 69.15000 1903.09711 1884.00000 0.00053
4279 69.16500 1906.98129 1868.00000 0.00054
4280 69.18000 1911.42659 1952.00000 0.00051
4281 69.19500 1916.42055 1913.00000 0.00052
4282 69.21000 1921.93924 1946.00000 0.00051
4283 69.22500 1927.94384 1945.00000 0.00051
4284 69.24000 1934.37690 1892.00000 0.00053
4285 69.25500 1941.15830 1849.00000 0.00054
4286 69.27000 1948.19188 1892.00000 0.00053
4287 69.28500 1955.36211 1954.00000 0.00051
4288 69.30000 1962.52715 1963.00000 0.00051
4289 69.31500 1969.54270 1994.00000 0.00050
4290 69.33000 1976.26705 1960.00000 0.00051
4291 69.34500 1982.56939 1875.00000 0.00053
4292 69.36000 1988.33281 1987.00000 0.00050
4293 69.37500 1993.45119 1988.00000 0.00050
4294 69.39000 1997.82134 1912.00000 0.00052
4295 69.40500 2001.34367 2016.00000 0.00050
4296 69.42000 2003.91374 1955.00000 0.00051
4297 69.43500 2005.44627 1997.00000 0.00050
4298 69.45000 2005.89654 1958.00000 0.00051
4299 69.46500 2005.28567 1925.00000 0.00052
4300 69.48000 2003.71709 1917.00000 0.00052
4301 69.49500 2001.37685 2020.00000 0.00050
4302 69.51000 1998.51682 1957.00000 0.00051
4303 69.52500 1995.42658 2021.00000 0.00049
4304 69.54000 1992.40255 2021.00000 0.00049
4305 69.55500 1989.72196 1951.00000 0.00051
4306 69.57000 1987.62542 1948.00000 0.00051
4307 69.58500 1986.30810 2063.00000 0.00048
4308 69.60000 1985.91723 2009.00000 0.00050
4309 69.61500 1986.55321 1965.00000 0.00051
4310 69.63000 1988.27154 2062.00000 0.00048
4311 69.64500 1991.08476 1964.00000 0.00051
4312 69.66000 1994.96294 2024.00000 0.00049
4313 69.67500 1999.83330 2103.00000 0.00048
4314 69.69000 2005.57950 2017.00000 0.00050
4315 69.70500 2012.04209 2011.00000 0.00050
4316 69.72000 2019.02255 1994.00000 0.00050
4317 69.73500 2026.29252 2071.00000 0.00048
4318 69.75000 2033.61033 2021.00000 0.00049
4319 69.76500 2040.74344 2063.00000 0.00048
4320 69.78000 2047.49419 2077.00000 0.00048
4321 69.79500 2053.72503 2070.00000 0.00048
4322 69.81000 2059.37712 2085.00000 0.00048
4323 69.82500 2064.47770 2066.00000 0.00048
4324 69.84000 2069.13327 2074.00000 0.00048
4325 69.85500 2073.50905 2096.00000 0.00048
4326 69.87000 2077.79813 2135.00000 0.00047
4327 69.88500 2082.18640 2014.00000 0.00050
4328 69.90000 2086.81952 2086.00000 0.00048
4329 69.91500 2091.77596 2108.00000 0.00047
4330 69.93000 2097.04807 2069.00000 0.00048
4331 69.94500 2102.53041 2017.00000 0.00050
4332 69.96000 2108.01512 2067.00000 0.00048
4333 69.97500 2113.19475 2079.00000 0.00048
4334 69.99000 2117.67523 2128.00000 0.00047
4335 70.00500 2121.00321 2058.00000 0.00049
4336 70.02000 2122.71028 2104.00000 0.00048
4337 70.03500 2122.37261 2104.00000 0.00048
4338 70.05000 2119.67654 2068.00000 0.00048
4339 70.06500 2114.47416 1979.00000 0.00051
4340 70.08000 2106.81195 1954.00000 0.00051
4341 70.09500 2096.92207 2087.00000 0.00048
4342 70.11000 2085.19325 2071.00000 0.00048
4343 70.12500 2072.09842 2031.00000 0.00049
4344 70.14000 2058.12545 1936.00000 0.00052
4345 70.15500 2043.73943 1918.00000 0.00052
4346 70.17000 2029.34508 2033.00000 0.00049
4347 70.18500 2015.27147 1995.00000 0.00050
4348 70.20000 2001.77001 2018.00000 0.00050
4349 70.21500 1989.01986 1993.00000 0.00050
4350 70.23000 1977.13645 1948.00000 0.00051
4351 70.24500 1966.18037 1930.00000 0.00052
4352 70.26000 1956.16535 1889.00000 0.00053
4353 70.27500 1947.06555 1951.00000 0.00051
4354 70.29000 1938.82263 1879.00000 0.00053
4355 70.30500 1931.35368 1918.00000 0.00052
4356 70.32000 1924.56049 1876.00000 0.00053
4357 70.33500 1918.33934 1830.00000 0.00055
4358 70.35000 1912.59039 1936.00000 0.00052
4359 70.36500 1907.24372 2006.00000 0.00050
4360 70.38000 1902.25686 1921.00000 0.00052
4361 70.39500 1897.59160 1894.00000 0.00053
4362 70.41000 1893.24129 1904.00000 0.00053
4363 70.42500 1889.21392 1766.00000 0.00057
4364 70.44000 1885.52458 1945.00000 0.00051
4365 70.45500 1882.19196 1830.00000 0.00055
4366 70.47000 1879.22668 1892.00000 0.00053
4367 70.48500 1876.63637 1933.00000 0.00052
4368 70.50000 1874.41917 1831.00000 0.00055
4369 70.51500 1872.56488 1853.00000 0.00054
4370 70.53000 1871.05159 1951.00000 0.00051
4371 70.54500 1869.85157 1797.00000 0.00056
4372 70.56000 1868.96090 1910.00000 0.00052
4373 70.57500 1868.34481 1837.00000 0.00054
4374 70.59000 1867.94594 1826.00000 0.00055
4375 70.60500 1867.71431 1874.00000 0.00053
4376 70.62000 1867.59568 1856.00000 0.00054
4377 70.63500 1867.53504 1856.00000 0.00054
4378 70.65000 1867.48123 1917.00000 0.00052
4379 70.66500 1867.39238 1824.00000 0.00055
4380 70.68000 1867.24082 1806.00000 0.00055
4381 70.69500 1867.01637 1824.00000 0.00055
4382 70.71000 1866.72743 1849.00000 0.00054
4383 70.72500 1866.39976 1756.00000 0.00057
4384 70.74000 1866.07371 1885.00000 0.00053
4385 70.75500 1865.80062 1801.00000 0.00056
4386 70.77000 1865.63760 1776.00000 0.00056
4387 70.78500 1865.64385 1845.00000 0.00054
4388 70.80000 1865.87317 1880.00000 0.00053
4389 70.81500 1866.42832 1846.00000 0.00054
4390 70.83000 1867.34744 1831.00000 0.00055
4391 70.84500 1868.68742 1806.00000 0.00055
4392 70.86000 1870.49749 1849.00000 0.00054
4393 70.87500 1872.84070 1835.00000 0.00054
4394 70.89000 1875.77087 1877.00000 0.00053
4395 70.90500 1879.31939 1903.00000 0.00053
4396 70.92000 1883.51674 1869.00000 0.00054
4397 70.93500 1888.42130 1910.00000 0.00052
4398 70.95000 1894.07495 1835.00000 0.00054
4399 70.96500 1900.48434 1905.00000 0.00052
4400 70.98000 1907.66715 1853.00000 0.00054
4401 70.99500 1915.63416 1873.00000 0.00053
4402 71.01000 1924.38915 1945.00000 0.00051
4403 71.02500 1933.92843 1980.00000 0.00051
4404 71.04000 1944.23946 1900.00000 0.00053
4405 71.05500 1955.29813 1847.00000 0.00054
4406 71.07000 1967.06424 1942.00000 0.00051
4407 71.08500 1979.47599 1960.00000 0.00051
4408 71.10000 1992.44489 1967.00000 0.00051
4409 71.11500 2005.85312 1933.00000 0.00052
4410 71.13000 2019.55566 2082.00000 0.00048
4411 71.14500 2033.38829 2094.00000 0.00048
4412 71.16000 2047.18121 2194.00000 0.00046
4413 71.17500 2060.77600 2065.00000 0.00048
4414 71.19000 2074.04198 2249.00000 0.00044
4415 71.20500 2086.88805 2212.00000 0.00045
4416 71.22000 2099.26653 2231.00000 0.00045
4417 71.23500 2111.16779 2268.00000 0.00044
4418 71.25000 2122.60558 2274.00000 0.00044
4419 71.26500 2133.59498 2294.00000 0.00044
4420 71.28000 2144.12605 2236.00000 0.00045
4421 71.29500 2154.13759 2272.00000 0.00044
4422 71.31000 2163.49608 2233.00000 0.00045
4423 71.32500 2171.98431 2241.00000 0.00045
4424 71.34000 2179.30320 2260.00000 0.00044
4425 71.35500 2185.08797 2251.00000 0.00044
4426 71.37000 2188.93824 2159.00000 0.00046
4427 71.38500 2190.45979 2263.00000 0.00044
4428 71.40000 2189.31359 2311.00000 0.00043
4429 71.41500 2185.26567 2111.00000 0.00047
4430 71.43000 2178.22874 2239.00000 0.00045
4431 71.44500 2168.28547 2122.00000 0.00047
4432 71.46000 2155.68648 2170.00000 0.00046
4433 71.47500 2140.82216 2291.00000 0.00044
4434 71.49000 2124.17823 2188.00000 0.00046
4435 71.50500 2106.27597 2220.00000 0.00045
4436 71.52000 2087.62773 2078.00000 0.00048
4437 71.53500 2068.69966 2141.00000 0.00047
4438 71.55000 2049.89101 1984.00000 0.00050
4439 71.56500 2031.52655 2144.00000 0.00047
4440 71.58000 2013.85849 2084.00000 0.00048
4441 71.59500 1997.07347 2009.00000 0.00050
4442 71.61000 1981.30182 2081.00000 0.00048
4443 71.62500 1966.62692 1982.00000 0.00050
4444 71.64000 1953.09358 1999.00000 0.00050
4445 71.65500 1940.71535 1935.00000 0.00052
4446 71.67000 1929.48080 1968.00000 0.00051
4447 71.68500 1919.35936 1881.00000 0.00053
4448 71.70000 1910.30693 1940.00000 0.00052
4449 71.71500 1902.27117 1820.00000 0.00055
4450 71.73000 1895.19612 1960.00000 0.00051
4451 71.74500 1889.02552 1956.00000 0.00051
4452 71.76000 1883.70473 1885.00000 0.00053
4453 71.77500 1879.18128 1870.00000 0.00053
4454 71.79000 1875.40475 1841.00000 0.00054
4455 71.80500 1872.32657 1872.00000 0.00053
4456 71.82000 1869.90044 1905.00000 0.00052
4457 71.83500 1868.08346 1882.00000 0.00053
4458 71.85000 1866.83736 1941.00000 0.00052
4459 71.86500 1866.12964 1885.00000 0.00053
4460 71.88000 1865.94580 1876.00000 0.00053
4461 71.89500 1866.28215 1807.00000 0.00055
4462 71.91000 1867.13778 1865.00000 0.00054
4463 71.92500 1868.52559 1905.00000 0.00052
4464 71.94000 1870.46273 1870.00000 0.00053
4465 71.95500 1872.97710 1911.00000 0.00052
4466 71.97000 1876.07909 1875.00000 0.00053
4467 71.98500 1879.77288 1926.00000 0.00052
4468 72.00000 1884.04701 1910.00000 0.00052
4469 72.01500 1888.87011 1879.00000 0.00053
4470 72.03000 1894.18754 1899.00000 0.00053
4471 72.04500 1899.91862 1855.00000 0.00054
4472 72.06000 1905.95474 1917.00000 0.00052
4473 72.07500 1912.15869 1865.00000 0.00054
4474 72.09000 1918.36554 1874.00000 0.00053
4475 72.10500 1924.38475 1820.00000 0.00055
4476 72.12000 1930.00843 1936.00000 0.00052
4477 72.13500 1935.02324 1919.00000 0.00052
4478 72.15000 1939.22795 1866.00000 0.00054
4479 72.16500 1942.45460 1907.00000 0.00052
4480 72.18000 1944.58869 1948.00000 0.00051
4481 72.19500 1945.58209 1886.00000 0.00053
4482 72.21000 1945.45337 1914.00000 0.00052
4483 72.22500 1944.29345 1916.00000 0.00052
4484 72.24000 1942.22493 1856.00000 0.00054
4485 72.25500 1939.37129 1893.00000 0.00053
4486 72.27000 1935.86041 1829.00000 0.00055
4487 72.28500 1931.76988 1883.00000 0.00053
4488 72.30000 1927.14261 1898.00000 0.00053
4489 72.31500 1921.98197 1971.00000 0.00051
4490 72.33000 1916.26239 1916.00000 0.00052
4491 72.34500 1909.96689 1928.00000 0.00052
4492 72.36000 1903.09261 1935.00000 0.00052
4493 72.37500 1895.66069 1866.00000 0.00054
4494 72.39000 1887.74777 1912.00000 0.00052
4495 72.40500 1879.47961 1863.00000 0.00054
4496 72.42000 1871.02208 1891.00000 0.00053
4497 72.43500 1862.56487 1946.00000 0.00051
