#------------------------------------------------------------------------------
#$Date: 2020-04-05 13:49:24 +0300 (Sun, 05 Apr 2020) $
#$Revision: 250287 $
#$URL: file:///home/coder/svn-repositories/cod/cif/7/70/36/7703628.cif $
#------------------------------------------------------------------------------
#
# This file is available in the Crystallography Open Database (COD),
# http://www.crystallography.net/
#
# All data on this site have been placed in the public domain by the
# contributors.
#
data_7703628
loop_
_publ_author_name
'Kharwar, Ajit Kumar'
'Konar, Sanjit'
_publ_section_title
;
 Exchange coupled Co(ii) based layered and porous metal-organic
 frameworks: structural diversity, gas adsorption, and magnetic
 properties.
;
_journal_issue                   13
_journal_name_full
'Dalton transactions (Cambridge, England : 2003)'
_journal_page_first              4012
_journal_page_last               4021
_journal_paper_doi               10.1039/d0dt00211a
_journal_volume                  49
_journal_year                    2020
_chemical_formula_moiety         'C50 H33 Co2 N3 O11, 3[C2H3N]'
_chemical_formula_sum            'C56 H42 Co2 N6 O11'
_chemical_formula_weight         1092.81
_space_group_crystal_system      orthorhombic
_space_group_IT_number           73
_space_group_name_Hall           '-I 2b 2c'
_space_group_name_H-M_alt        'I b c a'
_atom_sites_solution_hydrogens   mixed
_audit_creation_date             2020-01-01
_audit_creation_method
;
Olex2 1.3-alpha
(compiled Nov 21 2019 18:26:39 for OlexSys, GUI svn.r6003)
;
_audit_update_record
;
2020-01-03 deposited with the CCDC.	2020-02-28 downloaded from the CCDC.
;
_cell_angle_alpha                90
_cell_angle_beta                 90
_cell_angle_gamma                90
_cell_formula_units_Z            8
_cell_length_a                   15.2801(11)
_cell_length_b                   23.9780(17)
_cell_length_c                   28.247(2)
_cell_measurement_reflns_used    9986
_cell_measurement_temperature    100.0
_cell_measurement_theta_max      23.676
_cell_measurement_theta_min      2.228
_cell_volume                     10349.3(13)
_computing_cell_refinement       'SAINT v8.37A (Bruker, 2015)'
_computing_data_reduction        'SAINT v8.37A (Bruker, 2015)'
_computing_molecular_graphics    'Olex2 1.3-alpha (Dolomanov et al., 2009)'
_computing_publication_material  'Olex2 1.3-alpha (Dolomanov et al., 2009)'
_computing_structure_refinement  'SHELXL 2018/3 (Sheldrick, 2015)'
_computing_structure_solution    'SHELXT 2014/5 (Sheldrick, 2014)'
_diffrn_ambient_temperature      100.0
_diffrn_measured_fraction_theta_full 0.998
_diffrn_measured_fraction_theta_max 0.998
_diffrn_measurement_device_type  'Bruker APEX-II CCD'
_diffrn_measurement_method       '\f and \w scans'
_diffrn_radiation_type           MoK\a
_diffrn_radiation_wavelength     0.71073
_diffrn_reflns_av_R_equivalents  0.1699
_diffrn_reflns_av_unetI/netI     0.0683
_diffrn_reflns_Laue_measured_fraction_full 0.998
_diffrn_reflns_Laue_measured_fraction_max 0.998
_diffrn_reflns_limit_h_max       17
_diffrn_reflns_limit_h_min       -17
_diffrn_reflns_limit_k_max       27
_diffrn_reflns_limit_k_min       -26
_diffrn_reflns_limit_l_max       32
_diffrn_reflns_limit_l_min       -32
_diffrn_reflns_number            61247
_diffrn_reflns_point_group_measured_fraction_full 0.998
_diffrn_reflns_point_group_measured_fraction_max 0.998
_diffrn_reflns_theta_full        24.464
_diffrn_reflns_theta_max         24.464
_diffrn_reflns_theta_min         2.276
_diffrn_source_current           1.0
_diffrn_source_power             0.05
_diffrn_source_voltage           50.0
_diffrn_standards_number         0
_exptl_absorpt_coefficient_mu    0.708
_exptl_absorpt_correction_T_max  0.7436
_exptl_absorpt_correction_T_min  0.6864
_exptl_absorpt_correction_type   multi-scan
_exptl_absorpt_process_details   multi-scan
_exptl_crystal_colour            green
_exptl_crystal_density_diffrn    1.403
_exptl_crystal_description       block
_exptl_crystal_F_000             4496
_exptl_crystal_size_max          0.76
_exptl_crystal_size_mid          0.58
_exptl_crystal_size_min          0.41
_refine_diff_density_max         1.120
_refine_diff_density_min         -0.449
_refine_diff_density_rms         0.123
_refine_ls_extinction_method     none
_refine_ls_goodness_of_fit_ref   1.059
_refine_ls_hydrogen_treatment    constr
_refine_ls_matrix_type           full
_refine_ls_number_parameters     376
_refine_ls_number_reflns         4287
_refine_ls_number_restraints     352
_refine_ls_restrained_S_all      1.030
_refine_ls_R_factor_all          0.1236
_refine_ls_R_factor_gt           0.0836
_refine_ls_shift/su_max          0.003
_refine_ls_shift/su_mean         0.000
_refine_ls_structure_factor_coef Fsqd
_refine_ls_weighting_details
'w=1/[\s^2^(Fo^2^)+(0.1008P)^2^+138.3510P] where P=(Fo^2^+2Fc^2^)/3'
_refine_ls_weighting_scheme      calc
_refine_ls_wR_factor_gt          0.2091
_refine_ls_wR_factor_ref         0.2314
_reflns_Friedel_coverage         0.000
_reflns_number_gt                2978
_reflns_number_total             4287
_reflns_threshold_expression     'I > 2\s(I)'
_cod_data_source_file            d0dt00211a2.cif
_cod_data_source_block           4
_cod_depositor_comments
'Adding full bibliography for 7703626--7703629.cif.'
_cod_original_cell_volume        10349.2(13)
_cod_database_code               7703628
_shelx_shelxl_version_number     2018/3
_shelx_space_group_comment
;
The symmetry employed for this shelxl refinement is uniquely defined
by the following loop, which should always be used as a source of
symmetry information in preference to the above space-group names.
They are only intended as comments.
;
_olex2_refinement_description
;
1. Fixed Uiso
 At 1.2 times of:
  All C(H) groups
 At 1.5 times of:
  All C(H,H,H) groups
2. Restrained planarity
 N1A, C6, C00K, C7, C5, C0
 with sigma of 0.001
 N1B, C6A, C9, C7A, C5A, C0A
 with sigma of 0.001
3. Uiso/Uaniso restraints and constraints
Uanis(C6A) \\sim Ueq, Uanis(C6) \\sim Ueq, Uanis(C00K) \\sim Ueq, Uanis(C6)
\\sim Ueq, Uanis(C00K) \\sim Ueq: with sigma of 0.001 and sigma for terminal
atoms of 0.002
4. Rigid body (RIGU) restrains
 All non-hydrogen atoms
 with sigma for 1-2 distances of 0.001 and sigma for 1-3 distances of 0.001
5. Others
 Fixed Sof: O6(0.5) C00V(0.5) H00V(0.5) C00O(0.5) C00W(0.5) C00Z(0.5)
 H00Z(0.5) C011(0.5) H011(0.5) C00R(0.5) C012(0.5) H012(0.5) C010(0.5)
 H010(0.5) C00X(0.5) C00Y(0.5) H00Y(0.5) C8(0.5) N1A(0.5) C6(0.5) H6(0.5)
 C00K(0.5) H00K(0.5) C7(0.5) C5(0.5) H5(0.5) C0(0.5) H0(0.5) N1B(0.5) C6A(0.5)
 H6A(0.5) C9(0.5) H9(0.5) C7A(0.5) C5A(0.5) H5A(0.5) C0A(0.5) H0A(0.5) C10(0.5)
 H10A(0.5) H10B(0.5) H10C(0.5)
6.a Riding coordinates:
 C00V(H00V)
6.b Aromatic/amide H refined with riding coordinates:
 C00F(H00F), C2(H2), C3(H3), C1(H1), C00I(H00I), C00D(H00D), C4(H4),
 C00P(H00P), C00Z(H00Z), C011(H011), C012(H012), C010(H010), C00Y(H00Y), C6(H6),
  C00K(H00K), C5(H5), C0(H0), C6A(H6A), C9(H9), C5A(H5A), C0A(H0A)
6.c Fitted hexagon refined as free rotating group:
 C00E(C00F,C2,C00G,C3,C1), C00L(C00I,C00D,C00C,C4,C00P), C00W(C00Z,C011,C00R,
 C012,C010)
6.d Idealised Me refined as rotating group:
 C10(H10A,H10B,H10C)
;
_smtbx_masks_special_details
;
A solvent mask was calculated and 200 electrons were
found in a volume of 1520\%A^3 in 1 void per unit cell.
This is consistent with the presence of 1[C2H3N] per Formula Unit 
which account for 176 electrons per unit cell.
;
_smtbx_masks_void_probe_radius   1.2
_smtbx_masks_void_truncation_radius 1.2
_shelx_res_file
;
TITL ajtr1_a.res in Ibca
    ajtr1_a.res
    created by SHELXL-2018/3 at 23:03:41 on 01-Jan-2020
CELL 0.71073 15.2801 23.978 28.2467 90 90 90
ZERR 8 0.0011 0.0017 0.0023 0 0 0
LATT 2
SYMM 0.5-X,-Y,0.5+Z
SYMM -X,0.5+Y,0.5-Z
SYMM 0.5+X,0.5-Y,-Z
SFAC C Co H N O
UNIT 448 16 336 48 88
EQIV $1 +X,1-Y,1.5-Z
RIGU 0.001 0.001
ISOR 0.001 0.002 C6A C6 C00K C6 C00K
FLAT 0.001 N1A C6 C00K C7 C5 C0
FLAT 0.001 N1B C6A C9 C7A C5A C0A

L.S. 4
PLAN  5
TEMP -173.15
CONF
BIND C011 C00R
BIND C00O N2_$1
BIND C00O C7
BIND C012 C010
BIND N2 C8
BIND N2 C00O_$1
BIND C00W C00Z
BIND C8 C00V_$1
BIND C8 C7A
FREE C8 C00Y
FREE C8 C00O
BOND $H
MORE -1
ABIN
fmap 2
acta
REM <olex2.extras>
REM <HklSrc "%.\\ajtr1_a.hkl">
REM </olex2.extras>

WGHT    0.100800  138.351013
FVAR       0.15939
CO01  2    0.937006    0.492821    0.532781    11.00000    0.01389    0.02382 =
         0.01803    0.00065    0.00291   -0.00118
PART -2
O4    5    0.629966    0.041997    0.487257    11.00000    0.02876    0.02517 =
         0.02618   -0.00283    0.00477   -0.00742
PART 0
O2    5    1.003966    0.438224    0.439474    11.00000    0.03001    0.03681 =
         0.02806   -0.00508    0.00171   -0.01432
O1    5    0.901663    0.425166    0.495041    11.00000    0.03644    0.02038 =
         0.02850    0.00053    0.00405   -0.00378
O3    5    0.526397    0.055138    0.431909    11.00000    0.03327    0.04876 =
         0.03209    0.00687    0.00180   -0.01279
O5    5    0.818160    0.222815    0.358847    11.00000    0.09260    0.04090 =
         0.03214   -0.00406    0.01415   -0.03874
C00A  1    0.940576    0.411474    0.457058    11.00000    0.02045    0.02143 =
         0.02311    0.00384   -0.00453   -0.00021
C00B  1    0.600762    0.065215    0.450005    11.00000    0.03056    0.02529 =
         0.02295   -0.00548    0.00713   -0.00369
AFIX  66
C00E  1    0.908461    0.361711    0.431789    11.00000    0.03428    0.02215 =
         0.02103    0.00406   -0.00166   -0.00674
C00F  1    0.840277    0.330765    0.451050    11.00000    0.04388    0.02556 =
         0.04159   -0.00488    0.01440   -0.01165
AFIX  43
H00F  3    0.814865    0.341671    0.480315    11.00000   -1.20000
AFIX  65
C2    1    0.809274    0.283861    0.427492    11.00000    0.06239    0.02952 =
         0.04196   -0.00415    0.01760   -0.02319
AFIX  43
H2    3    0.762673    0.262711    0.440657    11.00000   -1.20000
AFIX  65
C00G  1    0.846455    0.267903    0.384673    11.00000    0.05893    0.02638 =
         0.03181    0.00060    0.00606   -0.01689
C3    1    0.914639    0.298848    0.365412    11.00000    0.08522    0.05264 =
         0.02784   -0.01316    0.01862   -0.04136
AFIX  43
H3    3    0.940051    0.287941    0.336146    11.00000   -1.20000
AFIX  65
C1    1    0.945643    0.345752    0.388969    11.00000    0.06256    0.04117 =
         0.03039   -0.00936    0.01495   -0.02685
AFIX  43
H1    3    0.992244    0.366902    0.375805    11.00000   -1.20000
AFIX  66
C00L  1    0.764737    0.184682    0.381287    11.00000    0.07073    0.03048 =
         0.03305   -0.00327    0.00689   -0.02511
C00I  1    0.799228    0.149500    0.415660    11.00000    0.05068    0.03316 =
         0.04297    0.00109    0.01816   -0.01507
AFIX  43
H00I  3    0.859294    0.152141    0.424045    11.00000   -1.20000
AFIX  65
C00D  1    0.745833    0.110454    0.437764    11.00000    0.03772    0.02232 =
         0.03968   -0.00015    0.01054   -0.00679
AFIX  43
H00D  3    0.769406    0.086408    0.461256    11.00000   -1.20000
AFIX  65
C00C  1    0.657946    0.106589    0.425496    11.00000    0.04274    0.03385 =
         0.01772   -0.00466    0.00593   -0.01364
C4    1    0.623455    0.141771    0.391123    11.00000    0.06963    0.08469 =
         0.06667    0.04486   -0.02901   -0.04229
AFIX  43
H4    3    0.563388    0.139130    0.382739    11.00000   -1.20000
AFIX  65
C00P  1    0.676849    0.180818    0.369018    11.00000    0.08594    0.09633 =
         0.06161    0.04679   -0.02161   -0.04949
AFIX  43
H00P  3    0.653276    0.204863    0.345526    11.00000   -1.20000
AFIX   0
PART -2
O6    5    0.250683    0.324804    0.789456    10.50000    0.07874    0.12432 =
         0.04009   -0.01384    0.01580   -0.07054
C00V  1    0.608583    0.466476    0.799087    10.50000    0.03297    0.03056 =
         0.01134    0.00887   -0.00031   -0.00493
AFIX   3
H00V  3    0.584283    0.462896    0.829897    10.50000   -1.20000
AFIX   0
C00O  1    0.683945    0.477757    0.712241    10.50000    0.02595    0.05721 =
         0.01413    0.00188   -0.00166   -0.00546
AFIX  66
C00W  1    0.479031    0.413301    0.766661    10.50000    0.02818    0.03029 =
         0.02717    0.00006    0.00222    0.00001
C00Z  1    0.448695    0.401015    0.811866    10.50000    0.04160    0.04891 =
         0.02825    0.00042    0.00453   -0.01561
AFIX  43
H00Z  3    0.480367    0.413424    0.838822    10.50000   -1.20000
AFIX  65
C011  1    0.372018    0.370571    0.817630    10.50000    0.04166    0.04481 =
         0.03496   -0.01077    0.01314   -0.01391
AFIX  43
H011  3    0.351285    0.362174    0.848526    10.50000   -1.20000
AFIX  65
C00R  1    0.325677    0.352414    0.778190    10.50000    0.04722    0.03712 =
         0.03772   -0.01229    0.01354   -0.01927
C012  1    0.356012    0.364700    0.732985    10.50000    0.07161    0.11449 =
         0.03444   -0.01304    0.00920   -0.06219
AFIX  43
H012  3    0.324339    0.352291    0.706029    10.50000   -1.20000
AFIX  65
C010  1    0.432688    0.395144    0.727220    10.50000    0.04613    0.05961 =
         0.02767   -0.00070    0.00197   -0.02378
AFIX  43
H010  3    0.453421    0.403541    0.696324    10.50000   -1.20000
AFIX   0
C00X  1    0.563173    0.444362    0.759680    10.50000    0.02651    0.03285 =
         0.01507    0.00253   -0.00022    0.00204
C00Y  1    0.603950    0.452906    0.715736    10.50000    0.02204    0.03133 =
         0.01356    0.00156   -0.00284    0.00478
AFIX  43
H00Y  3    0.575052    0.441064    0.687706    10.50000   -1.20000
AFIX   0
C8    1    0.688178    0.506639    0.706853    10.50000    0.01018    0.05690 =
         0.01224    0.00108    0.00217   -0.00299
PART 0
PART 2
N1A   4    0.854991    0.478934    0.588996    10.50000    0.00941    0.02900 =
         0.02084    0.00632   -0.00199   -0.00016
C6    1    0.766351    0.476012    0.583009    10.50000    0.01005    0.01003 =
         0.01024    0.00001   -0.00010    0.00041
AFIX  43
H6    3    0.742985    0.470831    0.552154    10.50000   -1.20000
AFIX   0
C00K  1    0.710164    0.480489    0.621214    10.50000    0.01031    0.01045 =
         0.01041    0.00008   -0.00015    0.00028
AFIX  43
H00K  3    0.649028    0.478222    0.615410    10.50000   -1.20000
AFIX   0
C7    1    0.738709    0.488306    0.668776    10.50000    0.01216    0.05803 =
         0.01195   -0.00846   -0.00317    0.00944
C5    1    0.834737    0.490794    0.670771    10.50000    0.01203    0.07382 =
         0.02057    0.00230   -0.00531    0.00715
AFIX  43
H5    3    0.862255    0.495917    0.700614    10.50000   -1.20000
AFIX   0
C0    1    0.885810    0.486027    0.631410    10.50000    0.00975    0.06525 =
         0.02293    0.00032   -0.00410    0.00204
AFIX  43
H0    3    0.947502    0.488009    0.635231    10.50000   -1.20000
AFIX   0
PART 0
N2    4    0.726221    0.500000    0.750000    10.50000    0.01661    0.05296 =
         0.01327    0.00151    0.00000    0.00000
PART 3
N1B   4    0.843208    0.492628    0.586596    10.50000    0.01857    0.01506 =
         0.01553    0.00581   -0.00376    0.00345
C6A   1    0.769786    0.462993    0.586981    10.50000    0.02059    0.02056 =
         0.02044    0.00008   -0.00002   -0.00002
AFIX  43
H6A   3    0.754982    0.442867    0.559140    10.50000   -1.20000
AFIX   0
C9    1    0.713263    0.459438    0.625278    10.50000    0.02463    0.03424 =
         0.02347   -0.00139    0.00353   -0.00496
AFIX  43
H9    3    0.661126    0.437872    0.624522    10.50000   -1.20000
AFIX   0
C7A   1    0.737983    0.488959    0.663709    10.50000    0.02628    0.03182 =
         0.02110    0.00003    0.00365   -0.00230
C5A   1    0.808614    0.519164    0.666683    10.50000    0.03146    0.03915 =
         0.02118   -0.00500    0.00550   -0.00809
AFIX  43
H5A   3    0.822611    0.539079    0.694754    10.50000   -1.20000
AFIX   0
C0A   1    0.861763    0.521067    0.627833    10.50000    0.03396    0.05739 =
         0.02317   -0.01288    0.00725   -0.02115
AFIX  43
H0A   3    0.913611    0.542865    0.629277    10.50000   -1.20000
AFIX   0
PART 0
PART -2
C10   1    0.196261    0.304564    0.749976    10.50000    0.09967    0.21191 =
         0.03466   -0.01469    0.02239   -0.12027
AFIX 137
H10A  3    0.177111    0.336283    0.730704    10.50000   -1.50000
H10B  3    0.144945    0.285072    0.762599    10.50000   -1.50000
H10C  3    0.230526    0.278875    0.730365    10.50000   -1.50000
AFIX   0
HKLF 4




REM  ajtr1_a.res in Ibca
REM wR2 = 0.2314, GooF = S = 1.059, Restrained GooF = 1.030 for all data
REM R1 = 0.0836 for 2978 Fo > 4sig(Fo) and 0.1236 for all 4287 data
REM 376 parameters refined using 352 restraints

END

WGHT      0.1009    138.3604

REM Highest difference peak  1.120,  deepest hole -0.449,  1-sigma level  0.123
Q1    1   0.3217  0.3472  0.8284  11.00000  0.05    1.12
Q2    1   0.5530  0.3958  0.7377  11.00000  0.05    1.05
Q3    1   0.1260  0.3768  0.7481  11.00000  0.05    0.97
Q4    1   0.4952  0.4136  0.7291  11.00000  0.05    0.93
Q5    1   0.3600  0.3454  0.8606  11.00000  0.05    0.93
;
_shelx_res_checksum              26965
_shelx_fab_file
;
0 0 4 34.1663 -2.4172
0 0 6 -38.6588 -1.3301
0 0 8 -25.6273 0.4033
0 0 10 -12.9028 1.9771
0 0 12 35.6891 3.1946
0 0 14 14.0522 3.8400
0 0 16 12.1124 3.8446
0 0 18 -1.4557 3.2241
0 0 20 3.1304 2.1024
0 0 22 3.1498 0.6978
0 0 24 8.0084 -0.7090
0 0 26 5.5428 -1.8862
0 0 28 12.4071 -2.7043
0 0 30 10.6910 -2.7534
0 0 32 -8.9284 -2.2609
0 2 4 -41.3214 0.6620
0 2 6 18.6211 0.4505
0 2 8 17.7114 -0.1813
0 2 10 19.4730 -0.8017
0 2 12 -23.6699 -1.3245
0 2 14 -9.8270 -1.5945
0 2 16 -13.6646 -1.6023
0 2 18 -2.0545 -1.3746
0 2 20 -3.1791 -0.8667
0 2 22 0.0120 -0.2541
0 2 24 -4.2460 0.2800
0 2 26 -1.6802 0.7281
0 2 28 -11.3391 1.0340
0 2 30 -9.4353 1.1654
0 2 32 7.6065 0.9219
0 4 0 84.4560 1.2116
0 4 2 54.0574 0.7123
0 4 4 47.6475 0.5981
0 4 6 14.4655 0.2461
0 4 8 -4.0267 -0.0227
0 4 10 -29.5105 -0.2001
0 4 12 3.1386 -0.2837
0 4 14 2.3091 -0.3626
0 4 16 13.9570 -0.3908
0 4 18 5.8236 -0.3064
0 4 20 2.5674 -0.2291
0 4 22 -4.4778 -0.0989
0 4 24 -1.1487 0.0754
0 4 26 -6.0292 0.1967
0 4 28 6.9166 0.3136
0 4 30 4.6729 0.3088
0 4 32 -4.1913 0.4720
0 6 0 -40.2947 -0.1111
0 6 2 -24.8554 -0.1376
0 6 4 -33.6131 -0.2219
0 6 6 -20.7973 -0.0789
0 6 8 -1.3389 0.0618
0 6 10 29.3705 0.1994
0 6 12 4.5581 0.3528
0 6 14 2.5340 0.4984
0 6 16 -7.9678 0.5633
0 6 18 -2.6610 0.4866
0 6 20 -2.3881 0.3339
0 6 22 2.8889 0.0966
0 6 24 0.7416 -0.0956
0 6 26 10.7846 -0.2162
0 6 28 0.4006 -0.3626
0 6 30 2.2087 -0.5897
0 6 32 0.1516 -0.9044
0 8 0 22.8810 -0.3850
0 8 2 7.1270 -0.4343
0 8 4 7.9546 -0.3769
0 8 6 2.7717 -0.1971
0 8 8 0.5085 0.0327
0 8 10 -20.3510 0.1476
0 8 12 -1.6650 0.1337
0 8 14 -6.5038 0.1068
0 8 16 -0.6267 0.0798
0 8 18 -2.7210 0.0524
0 8 20 5.2339 0.0412
0 8 22 3.3509 0.0721
0 8 24 2.5216 0.0366
0 8 26 -10.0395 0.0109
0 8 28 -5.5849 0.0669
0 8 30 -5.0419 0.3949
0 10 0 -15.0695 0.0512
0 10 2 3.0031 0.0604
0 10 4 6.4281 0.0772
0 10 6 10.0606 -0.0272
0 10 8 -3.2508 -0.1273
0 10 10 11.8139 -0.1225
0 10 12 0.1540 -0.0847
0 10 14 10.5121 -0.1180
0 10 16 4.9277 -0.1469
0 10 18 5.1966 -0.1423
0 10 20 -7.8996 -0.1338
0 10 22 -6.4849 -0.1238
0 10 24 -1.9991 -0.0946
0 10 26 6.1132 -0.1221
0 10 28 5.6970 -0.2597
0 10 30 1.1712 -0.5184
0 12 0 4.8232 0.1856
0 12 2 -10.7574 0.2954
0 12 4 -4.5883 0.2827
0 12 6 -7.0507 0.2247
0 12 8 8.5858 0.1021
0 12 10 -7.5558 -0.0519
0 12 12 -1.2120 -0.1413
0 12 14 -10.2653 -0.1545
0 12 16 -3.9055 -0.1622
0 12 18 -7.0114 -0.1203
0 12 20 4.9345 -0.0350
0 12 22 3.8464 0.0236
0 12 24 -1.7260 0.1286
0 12 26 -2.5839 0.2316
0 12 28 -4.4245 0.5533
0 14 0 3.2454 -0.0034
0 14 2 15.8328 -0.0183
0 14 4 -0.8046 -0.0233
0 14 6 -0.1005 -0.0106
0 14 8 -7.8339 0.0192
0 14 10 7.1348 0.0377
0 14 12 3.1303 0.0185
0 14 14 6.2672 0.0346
0 14 16 0.9293 0.0962
0 14 18 7.1951 0.0966
0 14 20 -0.1564 0.0525
0 14 22 -0.6942 0.0588
0 14 24 3.5842 -0.0531
0 14 26 1.3075 -0.0576
0 14 28 5.1400 -0.4849
0 16 0 -2.5591 -0.0942
0 16 2 -15.2884 -0.1861
0 16 4 0.8017 -0.1859
0 16 6 2.5934 -0.1413
0 16 8 -0.8079 -0.0828
0 16 10 -9.5184 0.0023
0 16 12 -8.0833 0.1142
0 16 14 -4.6810 0.1682
0 16 16 1.5099 0.1607
0 16 18 -0.7077 0.1295
0 16 20 1.6636 0.0982
0 16 22 1.4560 -0.0211
0 16 24 -1.6465 0.0082
0 16 26 -1.1712 -0.1548
0 18 0 -4.3135 -0.0466
0 18 2 9.1894 -0.0213
0 18 4 3.5050 -0.0213
0 18 6 -1.2080 -0.0171
0 18 8 10.8520 0.0234
0 18 10 10.6620 0.0456
0 18 12 12.1092 0.0206
0 18 14 5.6180 -0.0363
0 18 16 -1.9764 -0.0876
0 18 18 -8.1348 -0.0675
0 18 20 -6.8309 -0.1054
0 18 22 -3.7757 -0.0381
0 18 24 -2.3609 -0.0497
0 20 0 7.9821 0.0684
0 20 2 -2.4635 0.0888
0 20 4 -8.3484 0.0854
0 20 6 -1.6324 0.0868
0 20 8 -16.2636 0.0370
0 20 10 -7.1702 -0.0255
0 20 12 -7.9629 -0.0953
0 20 14 -4.0527 -0.0962
0 20 16 -0.4924 -0.1197
0 20 18 8.6111 -0.2295
0 20 20 6.3342 -0.0946
0 20 22 3.3391 -0.0002
0 22 0 -1.9864 0.0312
0 22 2 0.1713 0.0724
0 22 4 10.7630 0.1003
0 22 6 3.5328 0.0445
0 22 8 15.3818 -0.0032
0 22 10 2.9458 -0.0425
0 22 12 0.2644 -0.0328
0 22 14 1.6416 -0.0957
0 22 16 4.5115 0.0179
0 22 18 -0.9505 0.3157
0 22 20 -0.3642 0.2346
0 24 0 -8.5152 0.1095
0 24 2 -1.0837 0.0469
0 24 4 -9.0335 -0.0155
0 24 6 -2.7618 -0.0235
0 24 8 -9.9157 -0.0378
0 24 10 -3.5028 -0.0024
0 24 12 0.4566 0.0715
0 24 14 -3.7682 0.3151
0 24 16 -6.6714 0.2510
0 26 0 11.6078 -0.4284
0 26 2 -0.2104 -0.3929
0 26 4 4.5940 -0.3009
0 26 6 1.3565 -0.1693
0 26 8 3.8106 0.0008
0 26 10 6.5255 0.0892
0 26 12 4.0550 0.0559
1 1 4 -74.0699 0.7814
1 1 6 -59.2691 1.0417
1 1 8 -3.9661 1.2785
1 1 10 14.2896 0.9704
1 1 12 13.8098 0.6754
1 1 14 -6.3262 0.3297
1 1 16 -7.3792 -0.1328
1 1 18 -2.2710 -0.5742
1 1 20 -1.5796 -0.9589
1 1 22 3.6395 -1.0465
1 1 24 4.4084 -1.0230
1 1 26 3.5088 -0.8895
1 1 28 5.7991 -0.5389
1 1 30 -13.0930 -0.1096
1 1 32 -12.7095 0.5547
1 2 1 23.0461 -0.5185
1 2 3 -1.2447 -0.5126
1 2 5 -17.8193 -0.3490
1 2 7 -17.6054 -0.1540
1 2 9 -1.9688 -0.1610
1 2 11 10.7429 -0.1252
1 2 13 7.0908 -0.1639
1 2 15 1.3028 -0.1550
1 2 17 -5.1076 -0.2394
1 2 19 -4.6125 -0.1666
1 2 21 -3.1567 -0.0222
1 2 23 -0.5079 -0.1160
1 2 25 -0.2316 0.0233
1 2 27 1.9110 0.0745
1 2 29 0.9186 0.2109
1 2 31 -0.3788 0.0478
1 3 2 47.6045 -0.5735
1 3 4 44.9138 -0.4310
1 3 6 51.5491 0.2128
1 3 8 20.9650 0.2808
1 3 10 0.0979 0.2873
1 3 12 -12.0205 0.1429
1 3 14 -0.9862 -0.0489
1 3 16 2.8870 -0.1550
1 3 18 2.8068 -0.2036
1 3 20 6.4238 -0.1456
1 3 22 -1.2848 -0.2003
1 3 24 -2.9122 -0.1179
1 3 26 -6.5563 0.0671
1 3 28 -8.1849 0.3580
1 3 30 9.1501 0.5526
1 3 32 9.8523 0.4709
1 4 1 -23.8983 0.6293
1 4 3 1.4851 0.5705
1 4 5 17.8627 0.3739
1 4 7 21.0698 0.2629
1 4 9 7.8457 0.3446
1 4 11 -6.4156 0.4112
1 4 13 -5.1572 0.4482
1 4 15 -3.3492 0.5347
1 4 17 2.9451 0.4946
1 4 19 3.6120 0.4866
1 4 21 4.4846 0.2749
1 4 23 1.5968 0.0251
1 4 25 0.8194 -0.2063
1 4 27 -3.7636 -0.4153
1 4 29 -2.7768 -0.2873
1 4 31 -0.8085 -0.1569
1 5 2 -19.3025 0.2479
1 5 4 -14.3686 0.1625
1 5 6 -35.4477 -0.2733
1 5 8 -30.1403 -0.2835
1 5 10 -9.4636 -0.2230
1 5 12 9.9231 -0.1479
1 5 14 5.6620 -0.0260
1 5 16 0.0893 0.0505
1 5 18 -2.0521 0.1283
1 5 20 -8.2888 0.1930
1 5 22 -0.8844 0.2702
1 5 24 -1.7587 0.2367
1 5 26 4.8497 0.0925
1 5 28 7.7126 -0.0832
1 5 30 -2.7800 -0.1198
1 5 32 -3.3128 -0.2126
1 6 1 8.4356 -0.3992
1 6 3 -0.9077 0.0474
1 6 5 -6.2875 0.2620
1 6 7 -13.9823 0.1389
1 6 9 -13.9480 -0.0568
1 6 11 -5.3841 -0.1764
1 6 13 -0.4793 -0.1040
1 6 15 5.0965 -0.1779
1 6 17 2.1740 0.0735
1 6 19 -0.7087 0.0053
1 6 21 -4.8458 0.0536
1 6 23 -2.3049 0.1327
1 6 25 -0.7444 -0.0061
1 6 27 4.8145 0.1558
1 6 29 3.8867 0.0050
1 6 31 2.3525 0.1968
1 7 2 10.0116 0.3181
1 7 4 2.2924 -0.0637
1 7 6 15.5068 -0.1875
1 7 8 20.5450 -0.3048
1 7 10 6.2032 -0.3106
1 7 12 -7.5129 -0.1918
1 7 14 -4.0675 -0.0793
1 7 16 -1.2236 0.0962
1 7 18 -1.5389 0.2455
1 7 20 3.5454 0.2850
1 7 22 2.4420 0.3653
1 7 24 7.3509 0.2941
1 7 26 2.2619 0.1880
1 7 28 -3.6440 -0.1121
1 7 30 -2.6818 -0.4239
1 8 1 2.6654 0.2225
1 8 3 0.1816 -0.1747
1 8 5 0.0015 -0.3460
1 8 7 7.9747 -0.2760
1 8 9 13.7443 -0.3246
1 8 11 8.8966 -0.3946
1 8 13 1.4454 -0.6200
1 8 15 -3.9550 -0.5227
1 8 17 -2.5910 -0.7384
1 8 19 0.8031 -0.4932
1 8 21 5.0850 -0.3354
1 8 23 2.0741 -0.1429
1 8 25 0.1414 0.2371
1 8 27 -3.9158 0.2113
1 8 29 -2.4229 0.2341
1 8 31 -2.1154 -0.1654
1 9 2 -10.5127 -0.2060
1 9 4 -2.0958 0.0021
1 9 6 0.1521 0.1120
1 9 8 -6.7245 0.1403
1 9 10 -1.8108 0.1808
1 9 12 3.5644 0.1379
1 9 14 1.3532 0.0619
1 9 16 3.9038 -0.0897
1 9 18 6.0609 -0.2060
1 9 20 3.7830 -0.1975
1 9 22 -3.6955 -0.3278
1 9 24 -7.6894 -0.2241
1 9 26 -6.0735 -0.0966
1 9 28 1.3198 0.1978
1 9 30 4.8156 0.2637
1 10 1 -2.5038 -0.0370
1 10 3 0.5880 -0.1085
1 10 5 -2.3577 -0.1403
1 10 7 -6.0470 -0.1030
1 10 9 -7.3893 0.1706
1 10 11 -3.5081 0.3508
1 10 13 0.4479 0.5905
1 10 15 -0.4520 0.4693
1 10 17 -0.8201 0.5031
1 10 19 -1.7547 0.2024
1 10 21 -4.3052 0.0696
1 10 23 -2.1027 -0.0670
1 10 25 -0.9132 -0.1442
1 10 27 1.1409 -0.1575
1 10 29 -0.2337 0.0034
1 11 2 6.2077 -0.0548
1 11 4 -0.5980 0.0634
1 11 6 -7.7133 0.1394
1 11 8 1.4589 0.2326
1 11 10 3.1089 0.1474
1 11 12 0.4765 0.0755
1 11 14 -0.6464 0.0568
1 11 16 -5.7134 0.0560
1 11 18 -7.2727 -0.0304
1 11 20 -9.0807 -0.1966
1 11 22 2.8207 -0.2127
1 11 24 1.2814 -0.2734
1 11 26 2.8299 -0.2804
1 11 28 -3.0280 -0.2315
1 11 30 -4.6560 0.1745
1 12 1 -0.5014 -0.2293
1 12 3 -1.4057 -0.0566
1 12 5 4.9490 0.1516
1 12 7 4.5351 0.2814
1 12 9 1.2604 0.2376
1 12 11 -1.2731 0.2887
1 12 13 -0.7016 0.2135
1 12 15 4.1361 0.2376
1 12 17 2.7348 0.2243
1 12 19 0.8266 0.2490
1 12 21 2.5290 0.2006
1 12 23 2.9860 0.2165
1 12 25 3.1650 -0.0287
1 12 27 1.7057 0.0558
1 12 29 1.3360 -0.4104
1 13 2 1.8855 -0.0246
1 13 4 7.5868 -0.0559
1 13 6 8.7000 -0.0199
1 13 8 -1.7896 -0.1125
1 13 10 -3.9234 -0.0811
1 13 12 -0.8129 -0.0389
1 13 14 2.0624 -0.0236
1 13 16 3.9263 0.0176
1 13 18 4.5537 0.1077
1 13 20 9.8370 0.1629
1 13 22 -0.2788 0.2550
1 13 24 4.4452 0.2124
1 13 26 0.9507 0.3126
1 13 28 4.4121 0.2163
1 14 1 -0.2086 0.2204
1 14 3 1.6996 0.2652
1 14 5 -3.2207 0.1198
1 14 7 -2.0034 -0.0767
1 14 9 0.7695 -0.1825
1 14 11 2.1448 -0.3513
1 14 13 0.5184 -0.4032
1 14 15 -3.5826 -0.3803
1 14 17 -2.3036 -0.4351
1 14 19 0.0305 -0.2200
1 14 21 -1.0850 -0.1259
1 14 23 -3.2978 -0.1302
1 14 25 -4.7049 0.0382
1 14 27 -3.2824 -0.2989
1 15 2 -4.6131 0.1229
1 15 4 -11.8184 0.0369
1 15 6 -5.0586 -0.1180
1 15 8 2.7304 -0.0817
1 15 10 0.9865 -0.0761
1 15 12 -2.4855 -0.0819
1 15 14 -6.4633 -0.0791
1 15 16 -2.9259 -0.0902
1 15 18 -2.0931 -0.0748
1 15 20 -4.2888 0.0980
1 15 22 0.5169 0.0288
1 15 24 -2.1219 0.2445
1 15 26 0.2692 -0.0180
1 16 1 2.8601 0.0428
1 16 3 -1.0443 0.0596
1 16 5 -0.5438 0.0372
1 16 7 -0.7746 0.0000
1 16 9 -0.3239 -0.1660
1 16 11 -1.5624 -0.2228
1 16 13 -0.9636 -0.2176
1 16 15 0.6969 -0.1623
1 16 17 1.5061 0.0991
1 16 19 0.1982 0.0211
1 16 21 -0.0669 0.1310
1 16 23 2.1649 -0.0033
1 16 25 4.7670 -0.0194
1 17 2 -0.3196 -0.0474
1 17 4 9.9131 -0.1058
1 17 6 -1.3914 -0.0472
1 17 8 -4.4932 -0.0293
1 17 10 0.9506 0.0332
1 17 12 3.8538 0.0780
1 17 14 10.3889 0.0574
1 17 16 4.7490 0.0164
1 17 18 2.0699 0.0229
1 17 20 -5.5509 -0.0842
1 17 22 -4.0160 0.0980
1 17 24 -5.4992 -0.2443
1 17 26 -3.5864 -0.0750
1 18 1 -2.9093 -0.0420
1 18 3 0.1587 -0.2301
1 18 5 2.9761 -0.1500
1 18 7 2.5898 -0.0691
1 18 9 -0.8816 0.1686
1 18 11 0.2527 0.2481
1 18 13 0.0395 0.2688
1 18 15 0.9210 0.2202
1 18 17 -0.3036 0.1272
1 18 19 0.6600 0.0275
1 18 21 1.6620 -0.3689
1 18 23 -0.8936 0.0276
1 18 25 -4.4915 0.0777
1 19 2 7.0245 -0.0254
1 19 4 -4.8326 0.0839
1 19 6 6.8280 0.1305
1 19 8 5.7608 0.1444
1 19 10 -0.1572 0.0731
1 19 12 -0.0541 -0.0353
1 19 14 -6.3424 -0.0541
1 19 16 -3.0179 0.0432
1 19 18 -1.6284 0.0071
1 19 20 12.7122 -0.0696
1 19 22 4.8740 -0.4103
1 19 24 9.6706 -0.1463
1 20 1 -1.7927 -0.1700
1 20 3 -0.3654 -0.1377
1 20 5 -2.2763 -0.1693
1 20 7 -1.2291 0.0277
1 20 9 3.7344 0.0651
1 20 11 1.5276 0.2551
1 20 13 1.1285 0.3519
1 20 15 -1.6686 0.3590
1 20 17 -1.8036 -0.1558
1 20 19 -2.6075 -0.1318
1 20 21 -2.8649 0.4372
1 21 2 -8.8425 0.0121
1 21 4 1.1475 0.1531
1 21 6 -7.8078 0.1533
1 21 8 -3.9538 0.0224
1 21 10 -0.1693 -0.0538
1 21 12 -4.5203 0.0555
1 21 14 -4.3674 0.1737
1 21 16 -3.9298 0.0619
1 21 18 -0.7202 0.0270
1 21 20 -12.2814 0.0713
1 22 1 8.5450 0.0730
1 22 3 2.0329 0.3121
1 22 5 -0.3458 0.2363
1 22 7 -2.8789 -0.1038
1 22 9 -7.7046 -0.1191
1 22 11 -1.8827 -0.2361
1 22 13 0.7601 -0.3594
1 22 15 3.4783 -0.5104
1 22 17 3.5307 0.3756
1 22 19 3.2650 0.3937
1 23 2 4.4030 0.1122
1 23 4 -0.6175 -0.1945
1 23 6 4.8265 -0.3260
1 23 8 0.8181 -0.2957
1 23 10 -0.3017 -0.2178
1 23 12 4.2423 -0.2257
1 23 14 10.1829 -0.2383
1 23 16 6.8796 -0.0549
1 23 18 1.6474 -0.0145
1 24 1 -11.3525 0.2621
1 24 3 -3.9505 -0.0617
1 24 5 1.0100 0.1405
1 24 7 4.5372 0.3728
1 24 9 9.2250 0.1275
1 24 11 0.5654 -0.0905
1 24 13 -4.0104 -0.0954
1 24 15 -5.0234 0.2105
1 25 2 1.4803 -0.3138
1 25 4 1.0106 -0.2922
1 25 6 -1.0756 -0.1337
1 25 8 0.5896 0.2543
1 25 10 -0.5208 0.5664
1 25 12 -0.1086 0.5386
1 25 14 -6.0440 0.2317
1 26 1 7.8499 -0.4398
1 26 3 4.4449 -0.1330
1 26 5 1.3056 -0.3154
1 26 7 -1.1895 -0.3718
1 26 9 -6.5963 -0.1968
1 26 11 0.4902 -0.0893
1 27 2 -3.3510 0.3729
1 27 4 0.4089 0.7781
1 27 6 -0.9923 0.8004
1 27 8 -0.6400 0.1964
2 0 0 115.3411 -1.9266
2 0 2 63.4813 -3.2890
2 0 4 44.1079 -2.9226
2 0 6 -6.4868 -1.6038
2 0 8 -7.1526 0.3098
2 0 10 -16.8346 2.2465
2 0 12 16.6572 3.5413
2 0 14 2.9959 4.2350
2 0 16 10.2803 4.2506
2 0 18 3.7563 3.4973
2 0 20 8.8377 2.2491
2 0 22 5.4710 0.7442
2 0 24 5.4600 -0.7936
2 0 26 0.7940 -2.0963
2 0 28 1.7700 -3.0423
2 0 30 2.2039 -3.0429
2 0 32 -9.3294 -2.5802
2 1 1 12.8676 -1.1947
2 1 3 21.7684 -2.7187
2 1 5 10.2748 -4.0992
2 1 7 -5.7713 -4.8599
2 1 9 -14.2280 -4.5997
2 1 11 -5.4877 -3.5859
2 1 13 3.8440 -2.1355
2 1 15 5.9554 -0.2752
2 1 17 3.8884 1.4449
2 1 19 -0.5316 2.8554
2 1 21 -1.4067 3.8577
2 1 23 -0.4128 4.0359
2 1 25 0.3301 3.5479
2 1 27 0.5738 2.4422
2 1 29 1.6456 1.2334
2 1 31 0.4051 0.0108
2 2 0 -102.9958 0.7915
2 2 2 -55.5402 1.0543
2 2 4 -40.3457 0.6571
2 2 6 2.5414 0.4153
2 2 8 4.6844 0.0390
2 2 10 16.3523 -0.4150
2 2 12 -14.2702 -0.7746
2 2 14 -1.9835 -0.9130
2 2 16 -8.8708 -1.0364
2 2 18 -3.1604 -0.9300
2 2 20 -7.1512 -0.6416
2 2 22 -3.1916 -0.1932
2 2 24 -4.0747 0.2533
2 2 26 0.0567 0.6586
2 2 28 -4.0933 0.9286
2 2 30 -3.2531 1.0278
2 2 32 7.2512 1.0017
2 3 1 -26.3518 -0.1500
2 3 3 -44.4668 0.7415
2 3 5 -22.6907 1.5747
2 3 7 7.6039 1.9346
2 3 9 27.8059 1.8267
2 3 11 13.1561 1.3223
2 3 13 -3.8219 0.7575
2 3 15 -9.0562 -0.0539
2 3 17 -7.8428 -0.7297
2 3 19 -0.6872 -1.2756
2 3 21 1.2901 -1.5480
2 3 23 0.2679 -1.4938
2 3 25 0.2899 -1.3389
2 3 27 -0.1691 -1.0197
2 3 29 -3.7765 -0.5979
2 3 31 -1.8851 0.0452
2 4 0 73.2314 0.2805
2 4 2 35.8196 0.0563
2 4 4 28.8698 0.1883
2 4 6 3.4689 -0.0952
2 4 8 -0.7342 -0.4112
2 4 10 -15.8137 -0.7245
2 4 12 8.7092 -0.8729
2 4 14 -0.3167 -1.1208
2 4 16 5.3495 -1.0413
2 4 18 1.3746 -0.9115
2 4 20 3.9714 -0.6601
2 4 22 -0.3863 -0.3581
2 4 24 2.0665 0.0356
2 4 26 -2.6851 0.3321
2 4 28 6.4822 0.4378
2 4 30 3.1517 0.3128
2 4 32 -2.7399 0.1812
2 5 1 18.5291 0.5079
2 5 3 32.0627 0.6544
2 5 5 20.7301 0.8125
2 5 7 4.7268 1.0650
2 5 9 -17.5542 0.9729
2 5 11 -14.9928 0.8558
2 5 13 -6.5688 0.4665
2 5 15 0.5443 0.1633
2 5 17 6.3405 -0.1600
2 5 19 4.9083 -0.3564
2 5 21 1.7736 -0.6299
2 5 23 0.2165 -0.7827
2 5 25 -2.9363 -0.6516
2 5 27 -2.1002 -0.3316
2 5 29 3.3619 -0.0948
2 5 31 3.0365 -0.0342
2 6 0 -41.8640 -0.4809
2 6 2 -14.1345 0.1186
2 6 4 -12.5269 0.2017
2 6 6 -2.9750 0.2896
2 6 8 -0.0303 0.3119
2 6 10 16.3561 0.4695
2 6 12 -2.9056 0.5161
2 6 14 2.6885 0.7411
2 6 16 -1.8391 0.6663
2 6 18 0.8809 0.6379
2 6 20 -2.3366 0.4623
2 6 22 0.9888 0.2671
2 6 24 -1.9230 0.0299
2 6 26 5.8638 -0.1761
2 6 28 -3.6088 -0.1377
2 6 30 0.9502 -0.1877
2 7 1 -3.7305 -0.1409
2 7 3 -10.6343 -0.4764
2 7 5 -13.0689 -0.7465
2 7 7 -15.1386 -1.0846
2 7 9 3.1671 -0.9512
2 7 11 13.2733 -0.8168
2 7 13 13.2936 -0.3951
2 7 15 5.0439 0.0320
2 7 17 -3.7786 0.3662
2 7 19 -7.3698 0.5146
2 7 21 -1.9744 0.6660
2 7 23 1.2214 0.6861
2 7 25 5.5649 0.5480
2 7 27 3.4404 0.3402
2 7 29 -0.9072 0.3313
2 7 31 -1.2142 0.1116
2 8 0 20.5176 0.0953
2 8 2 -0.9133 -0.1797
2 8 4 -0.7009 -0.1143
2 8 6 -2.8505 0.0419
2 8 8 -0.4482 0.1952
2 8 10 -16.3632 0.1750
2 8 12 -0.9058 0.2500
2 8 14 -4.6306 0.1742
2 8 16 0.1711 0.2964
2 8 18 -2.7770 0.2629
2 8 20 2.2149 0.3237
2 8 22 0.0370 0.2268
2 8 24 2.1102 0.0074
2 8 26 -6.6012 -0.0837
2 8 28 -1.3361 -0.2862
2 8 30 -4.6659 -0.0048
2 9 1 -3.3674 -0.0242
2 9 3 4.1196 -0.1252
2 9 5 8.4013 -0.3622
2 9 7 12.1420 -0.3366
2 9 9 0.0704 -0.3771
2 9 11 -9.3212 -0.2076
2 9 13 -8.2663 -0.1415
2 9 15 -2.0539 -0.1413
2 9 17 0.6331 -0.0399
2 9 19 4.7294 0.0400
2 9 21 -1.1012 0.1396
2 9 23 -3.1248 0.1851
2 9 25 -6.1668 0.2486
2 9 27 -3.0654 0.1830
2 9 29 -1.8012 -0.2032
2 10 0 -9.8119 0.1945
2 10 2 7.8435 0.0454
2 10 4 4.5956 -0.1357
2 10 6 6.2061 -0.3190
2 10 8 -2.7406 -0.3812
2 10 10 12.6165 -0.3497
2 10 12 1.3147 -0.4249
2 10 14 5.7826 -0.3907
2 10 16 0.2529 -0.3976
2 10 18 5.0655 -0.2751
2 10 20 -0.7331 -0.3337
2 10 22 1.0979 -0.3119
2 10 24 0.0242 -0.1707
2 10 26 3.8294 -0.1807
2 10 28 3.1427 -0.1145
2 10 30 3.4276 -0.4231
2 11 1 3.4291 0.0053
2 11 3 -7.6077 0.1546
2 11 5 -6.3177 0.3708
2 11 7 -2.1735 0.4124
2 11 9 3.1072 0.3825
2 11 11 4.1338 0.2808
2 11 13 -0.5924 0.1408
2 11 15 -1.2996 0.0689
2 11 17 4.1636 -0.1036
2 11 19 0.1520 -0.0600
2 11 21 2.2172 -0.1679
2 11 23 2.3497 -0.1098
2 11 25 4.6673 -0.1811
2 11 27 2.7646 -0.1127
2 11 29 3.1079 0.1556
2 12 0 5.0899 -0.1552
2 12 2 -10.1055 -0.1473
2 12 4 -1.2502 -0.1476
2 12 6 -4.5658 0.0192
2 12 8 7.4485 0.0877
2 12 10 -6.4556 0.1121
2 12 12 0.5572 0.1733
2 12 14 -5.3883 0.1672
2 12 16 -0.4833 0.0844
2 12 18 -7.5675 -0.0801
2 12 20 -2.9927 -0.0982
2 12 22 -4.4986 -0.0258
2 12 24 -4.0631 0.1021
2 12 26 -0.5766 0.2730
2 12 28 -3.0584 0.5113
2 13 1 -3.1567 -0.0380
2 13 3 6.8892 0.0645
2 13 5 3.7599 0.2411
2 13 7 -3.7731 0.3559
2 13 9 -4.3678 0.4308
2 13 11 -0.7771 0.2428
2 13 13 4.4311 0.1374
2 13 15 1.7449 -0.0075
2 13 17 -5.7804 -0.0380
2 13 19 -2.2014 -0.2517
2 13 21 0.1970 -0.1273
2 13 23 0.8217 -0.2019
2 13 25 -1.4589 -0.0894
2 13 27 -2.7754 -0.2551
2 14 0 -4.3187 0.0283
2 14 2 9.8189 0.1544
2 14 4 -2.6553 0.2869
2 14 6 1.8802 0.1253
2 14 8 -6.1030 0.0563
2 14 10 4.0082 0.0611
2 14 12 -0.4204 0.0984
2 14 14 3.6432 0.0599
2 14 16 -0.5163 0.0210
2 14 18 6.3790 -0.0047
2 14 20 5.3938 0.0743
2 14 22 7.0077 0.1263
2 14 24 7.3589 0.0468
2 14 26 0.0051 0.1289
2 14 28 4.0872 -0.3043
2 15 1 3.6117 -0.0439
2 15 3 -0.4802 -0.0219
2 15 5 -1.1312 -0.0850
2 15 7 2.8696 -0.1406
2 15 9 2.3072 -0.2924
2 15 11 -0.1613 -0.1444
2 15 13 -4.5017 -0.0993
2 15 15 -3.5783 0.0021
2 15 17 0.4901 0.0711
2 15 19 0.2789 0.1777
2 15 21 -3.5020 -0.0308
2 15 23 -4.4431 -0.1174
2 15 25 -3.3094 -0.3188
2 15 27 1.6753 0.1714
2 16 0 6.4287 0.0073
2 16 2 -7.3560 0.0968
2 16 4 3.2982 0.0323
2 16 6 0.0510 0.1275
2 16 8 -1.6063 0.0974
2 16 10 -6.3565 0.0330
2 16 12 -3.3112 -0.0761
2 16 14 -2.0475 -0.0658
2 16 16 3.1257 -0.0088
2 16 18 0.9520 0.1165
2 16 20 -2.8933 0.0851
2 16 22 -6.2871 0.0450
2 16 24 -7.6014 0.1312
2 16 26 -1.1798 -0.3228
2 17 1 -2.1028 0.1574
2 17 3 -4.5545 -0.0979
2 17 5 0.0113 -0.3743
2 17 7 1.6054 -0.4775
2 17 9 1.9788 -0.3249
2 17 11 1.6431 -0.2728
2 17 13 4.5637 -0.1141
2 17 15 5.8417 -0.0271
2 17 17 5.8627 0.0033
2 17 19 2.6704 0.1279
2 17 21 6.3766 0.1711
2 17 23 7.7532 0.3309
2 17 25 7.6370 0.7158
2 18 0 -6.9732 -0.0203
2 18 2 4.6972 -0.2107
2 18 4 -0.9605 -0.1840
2 18 6 -3.2421 -0.2024
2 18 8 6.8194 -0.1057
2 18 10 6.1909 -0.0784
2 18 12 5.1413 -0.0491
2 18 14 0.8427 -0.0598
2 18 16 -4.7238 0.0103
2 18 18 -9.3529 0.1007
2 18 20 -2.5297 0.1442
2 18 22 2.9145 0.0100
2 18 24 4.1963 -0.4255
2 19 1 -1.9880 -0.0529
2 19 3 3.9559 0.0009
2 19 5 -0.5986 0.1100
2 19 7 -5.4189 0.1153
2 19 9 -5.2496 0.1122
2 19 11 -2.4149 0.1172
2 19 13 -3.0619 0.0987
2 19 15 -3.6652 0.1315
2 19 17 -6.1830 0.0849
2 19 19 -3.7322 -0.2667
2 19 21 -7.9768 0.0717
2 19 23 -9.1611 0.0931
2 20 0 2.3246 0.0437
2 20 2 -3.9037 0.0596
2 20 4 -2.8024 0.0382
2 20 6 6.7824 0.1357
2 20 8 -4.9834 0.0356
2 20 10 0.2443 -0.0706
2 20 12 -0.0960 -0.1224
2 20 14 1.4659 -0.0316
2 20 16 3.5744 0.0104
2 20 18 11.4458 -0.1990
2 20 20 5.3434 -0.3147
2 20 22 0.1956 -0.2576
2 21 1 6.3607 -0.0543
2 21 3 0.9697 0.1119
2 21 5 2.2316 0.3098
2 21 7 5.9354 0.4893
2 21 9 2.4910 0.3792
2 21 11 -2.9809 0.3126
2 21 13 -2.4644 0.0795
2 21 15 -1.6295 -0.2886
2 21 17 2.0436 -0.2565
2 21 19 2.3677 0.4017
2 21 21 6.1510 -0.0870
2 22 0 4.5618 -0.0420
2 22 2 3.6488 0.1017
2 22 4 6.1701 0.0763
2 22 6 -6.2682 -0.1994
2 22 8 1.7411 -0.1778
2 22 10 -5.7812 -0.0036
2 22 12 -7.0917 0.1711
2 22 14 -4.0795 0.1178
2 22 16 -1.4641 -0.0829
2 22 18 -6.9731 0.0254
2 23 1 -7.8436 -0.1218
2 23 3 -5.1843 0.0176
2 23 5 -3.4440 0.0138
2 23 7 -4.3043 -0.1243
2 23 9 4.5846 -0.0932
2 23 11 12.7179 -0.3033
2 23 13 9.1802 -0.1426
2 23 15 4.9335 0.3857
2 23 17 1.4281 0.3046
2 24 0 -8.1229 0.1083
2 24 2 -1.6257 0.0012
2 24 4 -7.1896 -0.0759
2 24 6 1.2572 0.0709
2 24 8 -2.0230 0.1137
2 24 10 3.5272 0.2888
2 24 12 7.8095 0.3869
2 24 14 3.2967 0.3362
2 24 16 0.0686 0.2764
2 25 1 5.2425 0.4335
2 25 3 4.6281 -0.1461
2 25 5 2.6294 -0.5077
2 25 7 3.6490 -0.5168
2 25 9 -7.4169 -0.4465
2 25 11 -16.7077 0.0605
2 25 13 -11.3460 0.1095
2 26 0 7.3461 -0.2752
2 26 2 -1.2105 -0.4374
2 26 4 5.3492 -0.1398
2 26 6 3.1266 0.2437
2 26 8 2.9195 0.4539
2 26 10 2.4481 -0.0948
2 27 1 -1.0504 -0.6339
2 27 3 -1.2009 -0.0430
2 27 5 -0.3675 0.3167
2 27 7 -4.0270 0.3696
3 1 2 -20.1889 0.7713
3 1 4 -9.9638 0.7004
3 1 6 -36.8254 0.0390
3 1 8 -20.4617 0.1002
3 1 10 -12.1721 -0.1419
3 1 12 3.7326 -0.1005
3 1 14 3.2654 -0.0280
3 1 16 4.5034 0.0194
3 1 18 3.2652 0.0917
3 1 20 -4.1333 -0.0045
3 1 22 -5.3197 -0.0155
3 1 24 -2.5235 -0.1245
3 1 26 -4.2980 -0.1300
3 1 28 0.3161 -0.0753
3 1 30 -3.8054 -0.2496
3 1 32 -4.0023 -0.0178
3 2 1 29.0976 -0.2052
3 2 3 -6.5499 -0.7778
3 2 5 -26.7333 -0.6029
3 2 7 -30.5547 -0.0351
3 2 9 -11.0773 0.2079
3 2 11 9.0332 0.2565
3 2 13 4.6428 0.2500
3 2 15 1.6166 0.2918
3 2 17 -7.0436 0.3097
3 2 19 -4.3101 0.1333
3 2 21 -1.5515 0.0006
3 2 23 1.7490 -0.1753
3 2 25 -0.9459 -0.2828
3 2 27 0.3959 -0.4576
3 2 29 -2.0260 -0.5522
3 2 31 -1.8756 -0.1699
3 3 2 27.9453 -0.7955
3 3 4 12.4380 -0.5872
3 3 6 25.5157 0.1573
3 3 8 8.7522 0.1849
3 3 10 5.3613 0.2933
3 3 12 -0.6868 0.2030
3 3 14 2.7172 0.0644
3 3 16 -0.6487 -0.0730
3 3 18 -4.8902 -0.2112
3 3 20 1.7771 -0.1802
3 3 22 0.6926 -0.2856
3 3 24 0.4853 -0.2147
3 3 26 -0.6274 -0.1045
3 3 28 -1.7109 0.0936
3 3 30 3.6595 0.3943
3 3 32 4.3068 0.2837
3 4 1 -31.4822 -0.6342
3 4 3 9.9543 -0.9688
3 4 5 31.0894 -0.9536
3 4 7 41.1591 -0.6064
3 4 9 22.7331 0.1492
3 4 11 -3.5550 0.8675
3 4 13 -2.6460 1.3259
3 4 15 -4.6415 1.4398
3 4 17 5.9019 1.2193
3 4 19 4.1280 0.9365
3 4 21 3.9427 0.4591
3 4 23 -0.0683 -0.2353
3 4 25 2.2931 -0.8116
3 4 27 -3.7330 -1.1131
3 4 29 -1.8630 -0.7948
3 4 31 -1.3170 -0.6859
3 5 2 -30.4249 -0.2335
3 5 4 -10.2898 0.0836
3 5 6 -11.4624 -0.0836
3 5 8 0.5552 0.1063
3 5 10 0.6203 0.1105
3 5 12 -0.2725 0.0719
3 5 14 -5.1735 0.0074
3 5 16 -1.6016 -0.0865
3 5 18 6.4913 -0.1396
3 5 20 0.3869 -0.1396
3 5 22 3.2055 0.0680
3 5 24 -0.6763 0.2098
3 5 26 3.4314 0.1122
3 5 28 1.7634 -0.0537
3 5 30 -2.1212 -0.1226
3 6 1 13.6158 0.4783
3 6 3 -8.4201 0.9734
3 6 5 -17.1943 0.9589
3 6 7 -32.2714 0.5404
3 6 9 -28.6666 -0.0760
3 6 11 -8.4453 -0.6046
3 6 13 -1.1917 -0.8788
3 6 15 6.8232 -0.9102
3 6 17 -0.7762 -0.6915
3 6 19 -2.3534 -0.5143
3 6 21 -6.8272 -0.2671
3 6 23 -3.2398 0.3132
3 6 25 -3.2454 0.7364
3 6 27 6.8506 1.0150
3 6 29 6.7952 0.5998
3 6 31 6.3638 0.5361
3 7 2 21.6227 0.6344
3 7 4 2.6543 0.2776
3 7 6 2.7347 0.2259
3 7 8 0.4158 -0.0090
3 7 10 -1.5681 -0.1286
3 7 12 -3.3083 -0.1321
3 7 14 0.1350 -0.0861
3 7 16 0.4326 0.0749
3 7 18 -5.5254 0.2771
3 7 20 -0.9593 0.3564
3 7 22 -3.8412 0.3166
3 7 24 2.1447 0.0588
3 7 26 -1.9624 0.0453
3 7 28 0.1079 -0.0398
3 7 30 -0.3219 -0.2155
3 8 1 -0.5249 0.2308
3 8 3 2.7515 0.2960
3 8 5 4.7800 0.1944
3 8 7 18.3250 0.0075
3 8 9 23.1605 -0.2476
3 8 11 11.4316 -0.4035
3 8 13 0.7378 -0.5710
3 8 15 -4.3577 -0.6865
3 8 17 -0.3841 -0.7496
3 8 19 2.4050 -0.5391
3 8 21 8.4636 -0.1645
3 8 23 5.2188 -0.0165
3 8 25 3.8800 0.1799
3 8 27 -5.1260 0.2623
3 8 29 -5.4780 0.4884
3 8 31 -6.8930 0.0736
3 9 2 -9.3786 -0.2668
3 9 4 3.6833 -0.2704
3 9 6 0.5538 -0.3636
3 9 8 -4.7188 -0.3199
3 9 10 -0.0353 -0.1813
3 9 12 6.4778 -0.1084
3 9 14 5.0128 -0.0223
3 9 16 0.5576 -0.0190
3 9 18 1.8378 -0.0661
3 9 20 1.4031 -0.0475
3 9 22 3.6414 -0.1478
3 9 24 0.5715 0.0016
3 9 26 1.2231 -0.0254
3 9 28 -1.3764 0.0842
3 9 30 1.7447 0.1954
3 10 1 0.7572 -0.3119
3 10 3 3.4536 -0.5680
3 10 5 -2.6203 -0.4588
3 10 7 -8.9469 -0.1756
3 10 9 -10.4519 0.2187
3 10 11 -5.2690 0.4743
3 10 13 1.1133 0.6998
3 10 15 -2.3972 0.7859
3 10 17 -2.0764 0.7047
3 10 19 -2.1307 0.4523
3 10 21 -7.3295 0.0802
3 10 23 -5.9382 -0.2045
3 10 25 -5.2112 -0.3894
3 10 27 -0.1986 -0.5365
3 10 29 0.0759 -0.4296
3 11 2 2.2353 0.1487
3 11 4 -5.0687 0.1748
3 11 6 -2.4907 0.1233
3 11 8 4.1302 0.1636
3 11 10 1.2521 0.0898
3 11 12 -3.8987 0.1160
3 11 14 -3.5894 0.1074
3 11 16 0.6822 0.0753
3 11 18 1.9090 -0.0518
3 11 20 -2.2732 -0.2839
3 11 22 -3.7041 -0.3622
3 11 24 -7.0604 -0.3454
3 11 26 -3.6156 -0.2010
3 11 28 0.7576 -0.0565
3 12 1 -3.3246 -0.1600
3 12 3 -6.4798 -0.1750
3 12 5 4.4396 -0.1670
3 12 7 4.1679 0.0031
3 12 9 0.2829 0.1786
3 12 11 -0.4777 0.2723
3 12 13 -0.6121 0.2281
3 12 15 7.5823 0.2302
3 12 17 3.4538 0.3816
3 12 19 -0.2867 0.3786
3 12 21 3.6655 0.2592
3 12 23 5.3262 0.1500
3 12 25 6.1819 -0.1530
3 12 27 4.1221 -0.1768
3 12 29 2.5546 -0.5510
3 13 2 -1.0055 -0.2187
3 13 4 3.4042 -0.1725
3 13 6 2.9948 0.0768
3 13 8 -0.5651 0.0401
3 13 10 -1.1413 0.1122
3 13 12 -1.1694 0.1048
3 13 14 -0.7125 0.0921
3 13 16 -2.3030 0.0548
3 13 18 -4.6109 0.0821
3 13 20 0.2671 0.1849
3 13 22 1.4892 0.4559
3 13 24 10.2660 0.2925
3 13 26 5.6461 0.2841
3 13 28 0.0287 0.0343
3 14 1 1.2444 0.2637
3 14 3 6.2256 0.3009
3 14 5 -3.1123 0.2956
3 14 7 -1.3481 0.0672
3 14 9 2.6906 -0.3098
3 14 11 2.4071 -0.4889
3 14 13 0.2048 -0.4836
3 14 15 -6.0763 -0.4295
3 14 17 -2.4370 -0.5363
3 14 19 2.7940 -0.3760
3 14 21 1.2394 -0.0872
3 14 23 -1.6801 0.0191
3 14 25 -4.6667 0.2662
3 14 27 -4.8715 0.1731
3 15 2 2.7263 0.0452
3 15 4 -1.1566 0.1605
3 15 6 0.5314 0.0223
3 15 8 -0.0569 0.1188
3 15 10 -0.5454 0.0374
3 15 12 1.8429 -0.0966
3 15 14 1.2583 -0.2178
3 15 16 2.4753 -0.2460
3 15 18 7.0846 -0.1748
3 15 20 6.7780 0.0622
3 15 22 3.7254 -0.1911
3 15 24 -6.4406 0.2053
3 15 26 -4.7112 -0.0621
3 16 1 0.3624 0.0610
3 16 3 -5.3016 0.2623
3 16 5 -1.6314 0.0977
3 16 7 -1.2029 -0.0989
3 16 9 -0.9401 -0.0344
3 16 11 -2.4111 -0.0325
3 16 13 -1.1653 -0.0609
3 16 15 -0.1456 -0.1752
3 16 17 -0.0861 -0.1520
3 16 19 -4.5519 -0.2474
3 16 21 -6.0395 -0.3510
3 16 23 -3.7499 -0.1789
3 16 25 1.7003 0.1157
3 17 2 -4.1341 0.0288
3 17 4 1.1941 -0.1069
3 17 6 -4.9108 -0.0593
3 17 8 -2.1441 -0.1325
3 17 10 2.4660 -0.1160
3 17 12 1.1323 -0.0346
3 17 14 0.9385 -0.0044
3 17 16 -1.1996 0.0384
3 17 18 -7.7341 0.0946
3 17 20 -14.1466 -0.1435
3 17 22 -7.8661 0.1729
3 17 24 -0.4956 -0.4384
3 18 1 2.2807 -0.1210
3 18 3 4.2547 -0.3024
3 18 5 5.9246 -0.1083
3 18 7 4.0802 0.1829
3 18 9 -1.7425 0.2539
3 18 11 0.9946 0.3303
3 18 13 0.2635 0.3311
3 18 15 4.5933 0.3765
3 18 17 3.1915 0.3776
3 18 19 6.5196 0.2307
3 18 21 8.7715 0.2244
3 18 23 6.2537 0.2621
3 19 2 2.6585 0.0775
3 19 4 -5.9067 0.0272
3 19 6 3.3950 -0.0242
3 19 8 2.0848 -0.0482
3 19 10 -2.8705 -0.0476
3 19 12 -2.0157 -0.0792
3 19 14 -0.4785 0.0937
3 19 16 -0.6095 0.2437
3 19 18 4.2947 0.1472
3 19 20 15.0868 0.1726
3 19 22 6.9003 -0.3695
3 20 1 -5.0419 -0.1382
3 20 3 -1.4057 -0.2268
3 20 5 -6.3482 -0.2246
3 20 7 -5.7295 -0.1476
3 20 9 4.6357 0.0037
3 20 11 1.3132 0.0304
3 20 13 2.3336 0.0026
3 20 15 -4.6023 -0.1056
3 20 17 -4.8714 -0.3166
3 20 19 -7.0159 0.1186
3 20 21 -7.6240 0.2642
3 21 2 0.7057 0.0239
3 21 4 11.6479 0.1368
3 21 6 3.4753 0.0216
3 21 8 2.3013 -0.0066
3 21 10 2.9353 0.0354
3 21 12 0.9382 0.2539
3 21 14 -2.9447 0.1804
3 21 16 1.6197 -0.0771
3 21 18 0.5393 -0.1658
3 21 20 -9.7876 -0.2427
3 22 1 4.4560 0.0550
3 22 3 -2.2018 0.2273
3 22 5 3.3423 0.1666
3 22 7 4.1995 0.0335
3 22 9 -8.8525 -0.2405
3 22 11 -2.7294 -0.4989
3 22 13 -2.0399 -0.5026
3 22 15 3.3886 -0.1068
3 22 17 3.9889 0.7029
3 22 19 4.1744 0.2174
3 23 2 -2.3750 -0.0849
3 23 4 -11.3840 -0.2089
3 23 6 -7.7864 -0.0110
3 23 8 -7.0494 0.0368
3 23 10 -4.1070 -0.0042
3 23 12 -2.0888 -0.2496
3 23 14 4.9496 -0.2939
3 23 16 -1.3015 -0.1480
3 24 1 -2.7104 0.5196
3 24 3 2.8304 0.5714
3 24 5 -0.8028 0.4523
3 24 7 -1.1570 0.0804
3 24 9 13.1700 0.1157
3 24 11 2.9365 0.5564
3 24 13 -1.5170 0.8127
3 24 15 -3.5887 0.3469
3 25 2 1.9288 -0.2260
3 25 4 5.3292 -0.0994
3 25 6 5.8711 -0.1018
3 25 8 7.3542 0.1471
3 25 10 3.9117 0.3014
3 25 12 4.2822 0.2909
3 26 1 1.9867 -0.8920
3 26 3 -0.1596 -1.1665
3 26 5 0.8017 -1.0536
3 26 7 0.3709 -0.3649
3 26 9 -13.5275 -0.0787
3 27 2 -2.0898 0.3894
3 27 4 -0.7135 0.5206
3 27 6 -2.2107 0.5121
4 0 0 15.0137 -0.1384
4 0 2 -8.2570 0.1721
4 0 4 35.8134 0.1645
4 0 6 24.2955 0.2449
4 0 8 16.4945 0.1046
4 0 10 -15.4970 0.1006
4 0 12 -6.7238 -0.0761
4 0 14 -11.8510 -0.2735
4 0 16 2.6113 -0.3519
4 0 18 3.1199 -0.3721
4 0 20 4.2855 -0.2133
4 0 22 -3.5918 -0.0450
4 0 24 -3.3192 -0.0342
4 0 26 -1.5380 0.0364
4 0 28 -6.9693 0.0966
4 0 30 -4.1630 0.1603
4 0 32 -5.8466 -0.2356
4 1 1 8.0432 -1.6457
4 1 3 11.0285 -3.9677
4 1 5 6.7035 -6.1932
4 1 7 1.1781 -7.5015
4 1 9 -6.4851 -7.1411
4 1 11 -3.7033 -5.7483
4 1 13 -0.9578 -3.3602
4 1 15 -0.9726 -0.4745
4 1 17 -0.1125 2.3985
4 1 19 -2.8309 4.7322
4 1 21 -1.9163 5.9349
4 1 23 0.2091 6.1680
4 1 25 1.4384 5.3595
4 1 27 1.2741 3.7238
4 1 29 0.1707 1.6757
4 1 31 -2.3238 -0.1580
4 2 0 -25.8017 0.1994
4 2 2 4.1057 -0.0082
4 2 4 -25.0499 -0.0472
4 2 6 -14.0040 -0.1334
4 2 8 -14.0546 -0.0713
4 2 10 8.5679 0.0221
4 2 12 0.2877 0.0840
4 2 14 9.9075 0.2703
4 2 16 0.2885 0.2323
4 2 18 -1.2887 0.1721
4 2 20 -4.5634 0.0412
4 2 22 1.7756 -0.0089
4 2 24 1.2053 0.0020
4 2 26 0.8186 0.0609
4 2 28 4.0597 -0.0096
4 2 30 3.6033 -0.0343
4 3 1 -18.7474 0.9295
4 3 3 -25.6947 1.8360
4 3 5 -16.2491 2.6328
4 3 7 -4.4150 3.2041
4 3 9 15.5777 3.0194
4 3 11 10.8714 2.4929
4 3 13 4.6581 1.4653
4 3 15 3.4993 0.1828
4 3 17 0.0319 -1.1036
4 3 19 5.2231 -2.1410
4 3 21 3.4216 -2.6266
4 3 23 -0.5685 -2.6826
4 3 25 -1.3767 -2.3430
4 3 27 -1.2589 -1.6140
4 3 29 -0.4640 -0.6107
4 3 31 3.2382 0.3169
4 4 0 42.8154 -0.1151
4 4 2 2.4683 -0.2456
4 4 4 4.4966 -0.2072
4 4 6 -3.8471 -0.1074
4 4 8 8.9681 0.0032
4 4 10 2.6866 -0.0651
4 4 12 10.1873 0.0012
4 4 14 -5.5834 -0.1730
4 4 16 -4.7235 -0.1125
4 4 18 -1.8230 -0.1056
4 4 20 4.9197 -0.0675
4 4 22 1.5799 -0.0810
4 4 24 2.6337 0.0178
4 4 26 -0.7545 0.0204
4 4 28 0.5985 -0.0021
4 4 30 -3.9409 -0.0793
4 5 1 18.2662 0.4551
4 5 3 25.7405 0.6448
4 5 5 17.6087 0.9401
4 5 7 8.3153 0.9246
4 5 9 -16.1203 0.8276
4 5 11 -15.2935 0.5726
4 5 13 -8.9744 0.3089
4 5 15 -5.1376 0.0931
4 5 17 0.3543 -0.1370
4 5 19 -2.6006 -0.4131
4 5 21 -1.8710 -0.6862
4 5 23 0.8288 -0.9037
4 5 25 -2.5425 -0.7651
4 5 27 -1.9544 -0.4890
4 5 29 0.0449 -0.3574
4 5 31 0.4597 -0.3287
4 6 0 -42.9026 -0.0588
4 6 2 -2.9009 0.1144
4 6 4 6.3098 0.0515
4 6 6 9.6823 0.0853
4 6 8 -4.5742 0.0051
4 6 10 -3.8228 0.1140
4 6 12 -12.0936 0.0390
4 6 14 0.6708 0.1786
4 6 16 3.5836 0.0702
4 6 18 2.9047 0.0612
4 6 20 -3.7446 0.0316
4 6 22 -2.1778 0.0843
4 6 24 -3.8308 -0.0474
4 6 26 3.2577 -0.1600
4 6 28 -1.4382 0.0116
4 6 30 6.8544 0.0989
4 7 1 -10.1014 -1.1263
4 7 3 -17.5189 -1.1516
4 7 5 -13.4140 -1.1360
4 7 7 -10.3423 -0.9537
4 7 9 9.7154 -0.7919
4 7 11 13.6574 -0.6301
4 7 13 8.5859 -0.3198
4 7 15 3.2013 -0.0460
4 7 17 0.0373 0.2178
4 7 19 -0.6159 0.5175
4 7 21 0.8112 0.7323
4 7 23 -0.9507 1.0147
4 7 25 5.4261 0.8830
4 7 27 3.8809 0.5837
4 7 29 1.7265 0.4894
4 8 0 26.5961 0.0753
4 8 2 -2.2180 0.0880
4 8 4 -3.4742 0.2151
4 8 6 -3.6351 0.0892
4 8 8 2.0256 0.0713
4 8 10 -3.9757 -0.0797
4 8 12 6.9688 -0.0770
4 8 14 4.3448 -0.1687
4 8 16 3.4756 0.0079
4 8 18 -2.1503 0.1000
4 8 20 0.2511 0.2114
4 8 22 -1.5575 0.1275
4 8 24 1.3514 0.1035
4 8 26 -5.2776 0.1686
4 8 28 -0.3462 -0.1389
4 8 30 -9.2327 -0.0740
4 9 1 1.6246 0.1017
4 9 3 11.0750 -0.1571
4 9 5 9.2562 -0.4206
4 9 7 8.8526 -0.6051
4 9 9 -2.1670 -0.5297
4 9 11 -7.5499 -0.3234
4 9 13 -3.8222 -0.2458
4 9 15 0.0904 -0.1065
4 9 17 -2.2314 0.0913
4 9 19 1.3325 0.2915
4 9 21 -1.2184 0.5439
4 9 23 0.7484 0.4640
4 9 25 -5.0070 0.4181
4 9 27 -2.8682 0.3254
4 9 29 -3.6457 -0.0582
4 10 0 -11.6770 0.1298
4 10 2 6.4859 0.1665
4 10 4 -2.3304 0.0593
4 10 6 -0.8326 0.0119
4 10 8 -1.8114 -0.1365
4 10 10 7.7640 -0.1540
4 10 12 -4.3574 -0.1442
4 10 14 -7.3874 -0.0549
4 10 16 -9.5526 -0.1512
4 10 18 1.1061 -0.1869
4 10 20 3.0107 -0.2756
4 10 22 6.2757 -0.2183
4 10 24 2.3129 -0.1091
4 10 26 3.0054 -0.0858
4 10 28 0.3849 0.2286
4 11 1 3.3004 0.8810
4 11 3 -8.2829 0.9172
4 11 5 -6.8572 0.7464
4 11 7 -4.2709 0.5998
4 11 9 -1.2577 0.3877
4 11 11 2.5512 0.2457
4 11 13 0.3030 0.1236
4 11 15 -0.4497 -0.0149
4 11 17 5.3393 -0.1069
4 11 19 -0.1326 -0.2040
4 11 21 1.1149 -0.4410
4 11 23 -0.2441 -0.5291
4 11 25 2.9654 -0.5149
4 11 27 1.2768 -0.4988
4 11 29 3.5611 -0.2017
4 12 0 7.3725 -0.2806
4 12 2 -6.9693 -0.3793
4 12 4 3.6397 -0.3574
4 12 6 -1.5636 -0.1519
4 12 8 3.2136 0.1155
4 12 10 -2.9571 0.2724
4 12 12 6.3054 0.2936
4 12 14 6.1875 0.2285
4 12 16 9.7797 0.2150
4 12 18 0.3761 0.1150
4 12 20 -3.5133 0.0196
4 12 22 -8.6461 -0.0059
4 12 24 -5.5882 -0.0050
4 12 26 1.7292 -0.0253
4 12 28 1.3213 -0.1151
4 13 1 -4.8379 -0.2574
4 13 3 4.9545 -0.1655
4 13 5 4.6162 0.1403
4 13 7 -1.0451 0.2993
4 13 9 -0.0668 0.3359
4 13 11 -1.4197 0.1240
4 13 13 -0.1195 0.1211
4 13 15 -1.4334 0.1426
4 13 17 -6.5420 -0.0004
4 13 19 -1.9575 -0.2122
4 13 21 -0.2311 -0.2999
4 13 23 0.0300 -0.1748
4 13 25 0.3568 -0.1699
4 13 27 0.0363 0.0029
4 14 0 -9.0194 0.1798
4 14 2 4.9945 0.0385
4 14 4 -2.4691 0.0426
4 14 6 5.3936 -0.0591
4 14 8 -2.3479 -0.0872
4 14 10 -1.8680 -0.0925
4 14 12 -7.6927 -0.0682
4 14 14 -3.0421 -0.0722
4 14 16 -6.5616 -0.1138
4 14 18 -2.6731 -0.0832
4 14 20 3.0494 0.1271
4 14 22 9.6436 0.1871
4 14 24 9.2039 0.1156
4 14 26 -3.5294 0.2372
4 15 1 3.3129 -0.5858
4 15 3 -0.5250 -0.4981
4 15 5 -3.0223 -0.4063
4 15 7 3.2082 -0.3677
4 15 9 1.9318 -0.3197
4 15 11 1.9331 0.0200
4 15 13 0.8477 0.0699
4 15 15 2.1182 0.0475
4 15 17 4.0806 0.0678
4 15 19 3.6920 0.0904
4 15 21 -0.5731 0.1597
4 15 23 -0.6164 -0.1351
4 15 25 -5.0749 0.0004
4 16 0 9.6490 0.0104
4 16 2 -2.8084 0.2383
4 16 4 1.6712 0.2307
4 16 6 -5.8334 0.2468
4 16 8 -2.7286 0.1137
4 16 10 0.3491 -0.0082
4 16 12 6.4107 -0.0986
4 16 14 2.0784 -0.1079
4 16 16 3.9493 -0.0280
4 16 18 4.9057 0.1255
4 16 20 -3.7964 0.0184
4 16 22 -10.4645 -0.0436
4 16 24 -12.4368 -0.0075
4 17 1 1.0637 0.2088
4 17 3 -2.0623 0.1018
4 17 5 3.0448 -0.1874
4 17 7 -0.7758 -0.1690
4 17 9 -0.4388 -0.0307
4 17 11 -1.1700 -0.1393
4 17 13 -0.8457 -0.1158
4 17 15 -1.4741 -0.1131
4 17 17 0.0980 -0.0170
4 17 19 -3.2719 0.1800
4 17 21 1.7258 0.1741
4 17 23 1.4318 0.7520
4 17 25 7.9948 0.6655
4 18 0 -5.8401 -0.0698
4 18 2 2.9737 -0.0085
4 18 4 0.4698 0.0345
4 18 6 2.9480 -0.0624
4 18 8 6.5576 -0.0768
4 18 10 2.1266 -0.0857
4 18 12 -5.6465 -0.0699
4 18 14 -3.1739 -0.0123
4 18 16 -2.0968 0.0517
4 18 18 -6.2919 -0.0543
4 18 20 3.6029 -0.0829
4 18 22 8.9197 -0.1368
4 18 24 12.0654 -0.2995
4 19 1 -5.6612 0.4147
4 19 3 3.6124 0.2436
4 19 5 -1.3315 0.3424
4 19 7 -2.0893 0.2125
4 19 9 -2.9012 0.0739
4 19 11 -0.4400 0.0005
4 19 13 0.4914 -0.1197
4 19 15 1.2358 -0.1203
4 19 17 -2.3383 -0.2163
4 19 19 1.1005 -0.2569
4 19 21 -2.9003 0.1575
4 20 0 -2.3435 0.0267
4 20 2 -6.5784 -0.1162
4 20 4 -5.5002 -0.1246
4 20 6 1.0252 -0.0659
4 20 8 -3.1315 -0.0747
4 20 10 1.5646 -0.0094
4 20 12 8.1750 0.1366
4 20 14 4.0047 0.1821
4 20 16 0.1517 0.0268
4 20 18 6.5963 -0.1172
4 20 20 -0.6428 -0.1165
4 21 1 6.9581 -0.2575
4 21 3 -7.0709 0.0654
4 21 5 -4.8732 0.1286
4 21 7 1.2243 0.2417
4 21 9 3.4782 0.1376
4 21 11 -0.4379 0.0611
4 21 13 -0.8934 -0.0193
4 21 15 -1.1927 -0.0812
4 21 17 1.7076 0.2563
4 21 19 0.4313 0.3902
4 22 0 10.6282 -0.0161
4 22 2 10.2956 -0.1365
4 22 4 10.1881 -0.2345
4 22 6 -3.6075 -0.1309
4 22 8 -4.3987 0.1424
4 22 10 -8.4549 0.2321
4 22 12 -12.0788 0.0477
4 22 14 -4.5151 -0.1309
4 22 16 0.5937 -0.0945
4 22 18 -5.2155 0.1632
4 23 1 -4.8203 -0.1872
4 23 3 10.2628 -0.1284
4 23 5 10.6976 -0.0164
4 23 7 0.9322 -0.2216
4 23 9 -0.4261 -0.2415
4 23 11 5.2744 -0.1225
4 23 13 3.0525 0.3844
4 23 15 0.5699 0.7828
4 23 17 -0.3425 0.1658
4 24 0 -13.4910 0.0419
4 24 2 -9.4191 0.2042
4 24 4 -9.8434 0.3106
4 24 6 3.7333 0.2490
4 24 8 8.0473 -0.0195
4 24 10 10.1442 -0.1356
4 24 12 12.4110 -0.0587
4 24 14 4.7203 0.0210
4 25 1 2.0742 0.5307
4 25 3 -8.7201 -0.2372
4 25 5 -10.0500 -0.8225
4 25 7 -0.1003 -0.5501
4 25 9 -2.2917 -0.0820
4 25 11 -9.8629 0.2461
4 26 0 10.2386 -0.0178
4 26 2 4.2760 0.0055
4 26 4 4.5568 -0.0064
4 26 6 -2.6157 -0.1214
4 26 8 -5.9506 -0.0779
4 27 1 -0.2333 -0.8768
4 27 3 4.0283 0.1419
5 1 2 14.8298 -0.3011
5 1 4 31.0873 -0.4638
5 1 6 -5.1110 -0.5001
5 1 8 -12.9258 -0.3991
5 1 10 -17.8636 -0.3473
5 1 12 -3.9074 -0.1095
5 1 14 4.0515 -0.0152
5 1 16 6.5240 0.0837
5 1 18 4.8223 0.2000
5 1 20 -2.4103 0.1985
5 1 22 -0.8942 0.3533
5 1 24 7.8335 0.3642
5 1 26 2.1983 0.4527
5 1 28 2.1853 0.2899
5 1 30 6.0143 -0.1527
5 2 1 3.1282 0.2962
5 2 3 -4.9285 -0.1205
5 2 5 -0.3157 -0.0321
5 2 7 -8.9628 0.2574
5 2 9 -11.4337 0.2327
5 2 11 -4.9594 0.1133
5 2 13 -6.5701 -0.0158
5 2 15 2.4664 -0.1626
5 2 17 0.1831 -0.0635
5 2 19 2.2029 -0.0972
5 2 21 3.1703 0.0529
5 2 23 4.8885 0.0863
5 2 25 3.0214 -0.0958
5 2 27 1.0522 -0.1793
5 2 29 -2.7059 -0.2159
5 2 31 -1.0001 0.3398
5 3 2 3.8840 0.4599
5 3 4 -17.5595 0.1824
5 3 6 -0.3825 0.0157
5 3 8 0.7516 -0.1002
5 3 10 10.2640 -0.0839
5 3 12 6.9297 -0.1799
5 3 14 1.5250 -0.1035
5 3 16 -4.5412 0.0116
5 3 18 -8.5430 0.0790
5 3 20 -0.1634 0.2245
5 3 22 -0.3870 0.0379
5 3 24 -2.7145 -0.0151
5 3 26 -0.4190 -0.1636
5 3 28 1.0797 -0.2631
5 3 30 -4.1165 -0.1811
5 4 1 -7.9046 -0.9953
5 4 3 9.1688 -1.3894
5 4 5 5.7246 -1.2230
5 4 7 18.6279 -0.6969
5 4 9 19.0197 0.2132
5 4 11 6.6988 0.9372
5 4 13 7.9963 1.4378
5 4 15 -4.1859 1.5976
5 4 17 -1.1316 1.4439
5 4 19 -4.3092 0.9483
5 4 21 -3.9960 0.2392
5 4 23 -4.6426 -0.4657
5 4 25 -2.7358 -0.8131
5 4 27 -3.6294 -0.9951
5 4 29 -0.2490 -0.7531
5 4 31 -1.9383 -0.8180
5 5 2 -21.0718 0.2898
5 5 4 3.9629 0.3294
5 5 6 4.1544 0.1479
5 5 8 8.4051 0.1423
5 5 10 -1.6638 0.0598
5 5 12 -6.9758 0.1095
5 5 14 -5.4809 0.0428
5 5 16 0.2935 -0.0445
5 5 18 9.4228 -0.0671
5 5 20 1.3529 -0.1775
5 5 22 1.4362 -0.0222
5 5 24 -3.8403 0.0089
5 5 26 -1.5637 -0.0660
5 5 28 -5.2323 -0.0794
5 5 30 1.0776 -0.0740
5 6 1 11.2819 0.4026
5 6 3 -10.0523 0.5625
5 6 5 -10.8204 0.3780
5 6 7 -21.9652 0.0901
5 6 9 -18.0913 -0.3407
5 6 11 -4.5340 -0.5914
5 6 13 -4.3001 -0.7979
5 6 15 3.0397 -0.7498
5 6 17 0.8659 -0.8084
5 6 19 4.9193 -0.4882
5 6 21 3.6604 -0.1726
5 6 23 2.1944 0.3060
5 6 25 0.7210 0.5728
5 6 27 5.1582 0.7056
5 6 29 4.5836 0.3508
5 7 2 21.9191 -0.5290
5 7 4 -0.0387 -0.2816
5 7 6 -2.0308 0.1058
5 7 8 -5.7320 0.0715
5 7 10 -3.1264 0.0980
5 7 12 1.1234 0.0376
5 7 14 3.1489 0.0409
5 7 16 4.7740 0.0534
5 7 18 -4.2214 -0.0049
5 7 20 0.4742 0.0136
5 7 22 -1.6294 -0.0572
5 7 24 6.7215 -0.0816
5 7 26 1.5160 0.1747
5 7 28 7.2106 0.3255
5 7 30 1.2931 0.2844
5 8 1 -10.1201 0.3680
5 8 3 5.4831 0.7412
5 8 5 8.2870 0.8180
5 8 7 14.6088 0.5392
5 8 9 9.8985 0.1427
5 8 11 1.8008 -0.2638
5 8 13 -0.6150 -0.4605
5 8 15 0.2051 -0.7209
5 8 17 0.7592 -0.5139
5 8 19 -3.2082 -0.4559
5 8 21 -2.8939 -0.0411
5 8 23 -1.2137 0.2305
5 8 25 0.2921 0.4158
5 8 27 -3.3024 0.4496
5 8 29 -4.3482 0.5957
5 9 2 -11.7805 -0.1235
5 9 4 2.5571 -0.1694
5 9 6 -1.8610 -0.2295
5 9 8 -1.0591 -0.0479
5 9 10 4.8218 -0.0324
5 9 12 5.6124 -0.0414
5 9 14 2.4501 -0.0402
5 9 16 -6.8494 -0.0639
5 9 18 -2.0098 -0.0515
5 9 20 -2.5402 -0.0702
5 9 22 1.4521 -0.0955
5 9 24 -3.5142 -0.0503
5 9 26 1.5220 -0.1645
5 9 28 -5.9011 -0.1836
5 10 1 5.6696 -0.2999
5 10 3 1.7537 -0.4681
5 10 5 -1.2929 -0.4367
5 10 7 -4.1386 -0.2493
5 10 9 -2.4765 0.0477
5 10 11 -2.1968 0.3315
5 10 13 3.1554 0.4169
5 10 15 -1.9313 0.5657
5 10 17 -0.9761 0.3854
5 10 19 0.5519 0.3788
5 10 21 0.2055 0.0117
5 10 23 -0.1621 -0.3714
5 10 25 -0.6480 -0.5351
5 10 27 0.1046 -0.5461
5 10 29 1.5139 -0.4846
5 11 2 3.5840 0.4480
5 11 4 -4.0250 0.2954
5 11 6 1.9628 0.0509
5 11 8 1.5845 -0.0597
5 11 10 -5.6195 -0.0210
5 11 12 -6.7667 0.0843
5 11 14 -5.4026 0.0535
5 11 16 3.9895 0.0362
5 11 18 3.6877 0.0405
5 11 20 2.9160 0.0541
5 11 22 -0.6643 0.0467
5 11 24 -3.1685 0.0621
5 11 26 -6.1158 -0.0506
5 11 28 2.8263 -0.0664
5 12 1 -0.7767 -0.1148
5 12 3 -5.7363 -0.2717
5 12 5 -1.7191 -0.2991
5 12 7 -0.1163 -0.1229
5 12 9 0.4188 0.0401
5 12 11 4.5267 0.0691
5 12 13 -2.0132 0.2105
5 12 15 1.7280 0.3236
5 12 17 -0.0305 0.5140
5 12 19 1.1222 0.3533
5 12 21 3.2990 0.1471
5 12 23 2.6236 0.0530
5 12 25 1.0960 -0.2322
5 12 27 1.5925 -0.3229
5 13 2 -1.5068 0.0445
5 13 4 2.4953 -0.0859
5 13 6 0.5887 0.0363
5 13 8 3.1299 -0.0574
5 13 10 6.2488 -0.0689
5 13 12 2.9395 -0.1525
5 13 14 3.2364 -0.0738
5 13 16 -0.0792 0.0319
5 13 18 -2.8835 0.0971
5 13 20 -3.7918 0.1276
5 13 22 -1.5374 0.3192
5 13 24 8.0520 0.1083
5 13 26 9.5501 0.2832
5 14 1 -2.3969 0.1907
5 14 3 4.7055 0.1745
5 14 5 -0.0629 0.1315
5 14 7 -0.8426 -0.0518
5 14 9 -0.6230 -0.2722
5 14 11 -4.6341 -0.2121
5 14 13 -1.4073 -0.2204
5 14 15 -1.7195 -0.2652
5 14 17 -0.4826 -0.4054
5 14 19 -1.2246 -0.3426
5 14 21 -3.9682 0.0294
5 14 23 -2.5718 0.1868
5 14 25 -0.4961 0.5350
5 15 2 2.0834 -0.3789
5 15 4 -0.0960 0.0273
5 15 6 -0.5231 0.0776
5 15 8 -5.3810 0.2013
5 15 10 -6.9855 0.1029
5 15 12 -0.3486 0.0832
5 15 14 1.7993 0.0294
5 15 16 -0.0459 -0.0869
5 15 18 4.3565 -0.1526
5 15 20 7.0470 -0.0742
5 15 22 4.6096 -0.3878
5 15 24 -7.7076 0.0482
5 15 26 -9.7831 -0.1962
5 16 1 1.8046 -0.0278
5 16 3 -2.6027 0.1504
5 16 5 0.5718 0.1569
5 16 7 0.3037 0.0917
5 16 9 -0.3243 0.1870
5 16 11 1.5358 0.0367
5 16 13 3.7563 -0.0515
5 16 15 0.9117 -0.2192
5 16 17 1.5729 -0.2451
5 16 19 0.1874 -0.1649
5 16 21 1.8375 -0.3852
5 16 23 -0.3839 -0.1942
5 16 25 -1.2070 -0.1216
5 17 2 -3.0105 0.0723
5 17 4 -1.4163 -0.0878
5 17 6 -2.4276 -0.0619
5 17 8 3.3249 -0.0711
5 17 10 7.9851 -0.0413
5 17 12 2.0957 -0.0029
5 17 14 -5.7130 -0.0653
5 17 16 -1.7601 0.0129
5 17 18 -6.2755 0.0455
5 17 20 -9.7999 -0.2329
5 17 22 -6.4559 0.0658
5 17 24 3.0623 -0.4915
5 18 1 1.8520 -0.0664
5 18 3 1.9047 -0.1000
5 18 5 2.5060 -0.0488
5 18 7 4.0503 0.1998
5 18 9 1.8295 0.2147
5 18 11 2.2563 0.2942
5 18 13 -2.9014 0.1600
5 18 15 2.2647 0.1770
5 18 17 -0.5457 0.1314
5 18 19 1.0541 -0.0543
5 18 21 -0.5098 0.2617
5 18 23 1.9274 0.1493
5 19 2 3.9293 0.1467
5 19 4 0.2667 -0.0281
5 19 6 1.9437 -0.0984
5 19 8 -2.4454 -0.2218
5 19 10 -8.4037 -0.0674
5 19 12 -4.8367 -0.0417
5 19 14 6.7601 0.2423
5 19 16 0.2400 0.2439
5 19 18 3.4509 0.1336
5 19 20 7.9987 0.3478
5 19 22 5.4013 -0.0162
5 20 1 -3.8085 0.0036
5 20 3 -0.4073 -0.0830
5 20 5 -5.3976 0.0313
5 20 7 -9.2969 -0.1514
5 20 9 -2.2902 -0.2646
5 20 11 -4.6382 -0.4185
5 20 13 0.1997 -0.2568
5 20 15 -4.7396 -0.1173
5 20 17 -0.9036 0.1588
5 20 19 -1.1327 0.6408
5 20 21 1.0638 0.2506
5 21 2 -3.0559 0.0745
5 21 4 4.9052 0.1203
5 21 6 5.2852 0.0070
5 21 8 5.8905 0.3528
5 21 10 6.9821 0.2716
5 21 12 4.5983 0.3103
5 21 14 -6.3855 -0.2117
5 21 16 3.9246 -0.4132
5 21 18 2.5630 -0.2908
5 22 1 1.5898 0.0634
5 22 3 -2.7324 0.1731
5 22 5 5.2662 -0.1421
5 22 7 11.8852 -0.1747
5 22 9 0.6645 -0.1954
5 22 11 4.7049 -0.0258
5 22 13 1.6814 0.1306
5 22 15 3.2943 0.3945
5 22 17 -0.1435 0.3422
5 23 2 -0.7407 -0.1033
5 23 4 -11.1333 0.1180
5 23 6 -12.7169 0.3838
5 23 8 -9.0500 -0.1720
5 23 10 -3.4465 -0.3575
5 23 12 -2.1244 -0.6588
5 23 14 5.9951 -0.1874
5 23 16 -5.2069 0.1491
5 24 1 1.1470 0.1944
5 24 3 4.0759 0.1076
5 24 5 -3.5927 0.2658
5 24 7 -10.6793 0.1960
5 24 9 3.1042 0.4249
5 24 11 -2.3227 0.5705
5 24 13 -1.8780 0.3970
5 25 2 4.5781 -0.3651
5 25 4 12.2615 -0.4443
5 25 6 11.7558 -0.6293
5 25 8 6.5424 -0.1730
5 25 10 -0.9116 0.0176
5 26 1 -1.2158 -0.6923
5 26 3 -1.8913 -0.8127
5 26 5 2.4979 -0.6528
5 26 7 7.6298 -0.1108
6 0 0 -16.0810 1.9520
6 0 2 -27.9092 3.2750
6 0 4 13.7181 2.3216
6 0 6 14.5528 1.4754
6 0 8 19.2130 -0.1702
6 0 10 -1.3870 -1.7293
6 0 12 -0.0830 -2.9891
6 0 14 -6.0939 -3.8063
6 0 16 -1.3927 -3.8192
6 0 18 0.2249 -3.2190
6 0 20 0.1579 -2.0577
6 0 22 -6.1209 -0.6706
6 0 24 -2.3424 0.6369
6 0 26 3.7026 1.7333
6 0 28 -3.8892 2.1599
6 0 30 1.1190 1.6556
6 1 1 -0.2267 -1.0370
6 1 3 -4.6017 -2.5572
6 1 5 -0.1522 -3.9733
6 1 7 6.0552 -4.8889
6 1 9 3.3005 -4.6351
6 1 11 0.7822 -3.7148
6 1 13 -1.7463 -1.9465
6 1 15 -3.2070 -0.1460
6 1 17 -0.0696 1.5997
6 1 19 -1.9447 3.0247
6 1 21 -2.5195 3.6866
6 1 23 -2.2883 3.8092
6 1 25 -0.3153 3.1268
6 1 27 2.1329 1.9669
6 1 29 0.4626 0.7589
6 2 0 8.2744 -1.2611
6 2 2 24.1192 -1.3491
6 2 4 -9.6478 -0.4182
6 2 6 -12.0233 -0.4051
6 2 8 -19.4282 -0.1729
6 2 10 -1.6970 0.1787
6 2 12 -0.9738 0.3612
6 2 14 7.0315 0.5929
6 2 16 3.1088 0.5346
6 2 18 -0.3638 0.4214
6 2 20 -2.1380 0.2234
6 2 22 2.8803 0.0033
6 2 24 -0.2262 -0.2451
6 2 26 -3.4634 -0.3336
6 2 28 3.4278 -0.3219
6 2 30 0.7686 -0.0984
6 3 1 -2.2344 0.5444
6 3 3 6.4998 1.1135
6 3 5 -1.2044 1.5618
6 3 7 -12.8328 2.0103
6 3 9 -5.3805 1.8831
6 3 11 -0.6382 1.6317
6 3 13 4.5739 0.8227
6 3 15 8.7714 0.0209
6 3 17 1.3407 -0.7218
6 3 19 3.7607 -1.2235
6 3 21 3.5735 -1.5038
6 3 23 3.2369 -1.5454
6 3 25 1.0373 -1.2069
6 3 27 -4.4531 -0.6014
6 3 29 -0.9466 -0.0422
6 4 0 9.0696 -0.1036
6 4 2 -14.6871 -0.0673
6 4 4 1.9065 -0.3836
6 4 6 6.6166 -0.0371
6 4 8 17.6952 0.3693
6 4 10 6.7118 0.5744
6 4 12 3.9495 0.9206
6 4 14 -6.2396 1.0220
6 4 16 -4.5570 1.0987
6 4 18 0.3738 1.0004
6 4 20 4.6961 0.7457
6 4 22 1.8494 0.3584
6 4 24 3.6048 0.0325
6 4 26 1.4086 -0.4214
6 4 28 -2.2790 -0.7003
6 4 30 -4.8433 -0.7180
6 5 1 8.1270 0.4102
6 5 3 2.6775 0.4705
6 5 5 4.1608 0.6982
6 5 7 9.7795 0.6340
6 5 9 0.8815 0.6382
6 5 11 -1.0353 0.3698
6 5 13 -4.2200 0.2462
6 5 15 -10.3916 0.1273
6 5 17 -4.4501 -0.0832
6 5 19 -3.6342 -0.4838
6 5 21 -0.3277 -0.5771
6 5 23 1.2138 -0.6570
6 5 25 -0.7804 -0.5871
6 5 27 4.5784 -0.5273
6 5 29 0.5761 -0.4347
6 6 0 -22.6871 0.6104
6 6 2 5.0814 0.2654
6 6 4 2.1455 0.0971
6 6 6 -2.4211 0.0660
6 6 8 -11.5667 -0.0561
6 6 10 -7.2708 -0.0590
6 6 12 -7.5932 -0.2404
6 6 14 0.0492 -0.2954
6 6 16 1.3120 -0.2776
6 6 18 0.6679 -0.2470
6 6 20 -3.2910 -0.2114
6 6 22 -1.2590 -0.0933
6 6 24 -1.9256 -0.0235
6 6 26 3.4401 0.2042
6 6 28 1.2462 0.4657
6 6 30 8.1759 0.4447
6 7 1 -10.8732 -0.6690
6 7 3 -11.3547 -0.6331
6 7 5 -5.3317 -0.7050
6 7 7 -3.1639 -0.5901
6 7 9 2.6815 -0.6462
6 7 11 1.2599 -0.5263
6 7 13 0.2372 -0.3312
6 7 15 6.0617 -0.1851
6 7 17 6.8282 0.0926
6 7 19 4.7666 0.4967
6 7 21 0.4167 0.5186
6 7 23 -4.7628 0.6307
6 7 25 -0.9241 0.5676
6 7 27 -5.1127 0.4213
6 7 29 0.6990 0.3194
6 8 0 23.6294 -0.0899
6 8 2 -1.0016 -0.1344
6 8 4 -1.2105 -0.0610
6 8 6 0.9295 -0.3306
6 8 8 3.8609 -0.3818
6 8 10 3.4191 -0.4564
6 8 12 9.3412 -0.4569
6 8 14 7.0097 -0.4663
6 8 16 4.1981 -0.5573
6 8 18 -2.4024 -0.5343
6 8 20 -0.1903 -0.3557
6 8 22 -2.9461 -0.2061
6 8 24 -3.2456 -0.0969
6 8 26 -7.9227 -0.0825
6 8 28 -0.7326 -0.2346
6 9 1 6.6635 -0.2946
6 9 3 10.6132 -0.3526
6 9 5 4.4584 -0.2726
6 9 7 1.0059 -0.3537
6 9 9 -0.4824 -0.1665
6 9 11 -1.1821 -0.0100
6 9 13 1.6925 0.0404
6 9 15 -0.1353 0.1555
6 9 17 -5.3116 0.0970
6 9 19 -5.2531 0.1070
6 9 21 -4.6168 0.2972
6 9 23 2.4303 0.3264
6 9 25 1.1085 0.1967
6 9 27 4.8495 0.2294
6 9 29 -2.7900 0.1045
6 10 0 -14.8609 -0.3277
6 10 2 2.8849 0.0599
6 10 4 -0.6559 0.1080
6 10 6 -0.0765 0.2565
6 10 8 0.8687 0.1644
6 10 10 0.0870 0.1435
6 10 12 -7.8062 0.2135
6 10 14 -8.2031 0.2218
6 10 16 -7.1877 0.2282
6 10 18 2.1852 0.1667
6 10 20 0.4941 0.0256
6 10 22 4.8750 0.0268
6 10 24 6.6523 0.2304
6 10 26 7.5419 0.3566
6 10 28 -0.3438 0.4059
6 11 1 0.0376 0.8033
6 11 3 -4.5893 0.7237
6 11 5 -4.2343 0.3918
6 11 7 -2.7740 0.3406
6 11 9 -3.1744 0.1610
6 11 11 3.3833 0.0298
6 11 13 2.2358 -0.0683
6 11 15 -1.0132 -0.1752
6 11 17 0.9889 -0.0025
6 11 19 1.8765 -0.1090
6 11 21 5.7465 -0.1688
6 11 23 2.8537 -0.3731
6 11 25 1.5415 -0.1445
6 11 27 -1.6749 -0.3286
6 12 0 6.2119 0.0750
6 12 2 -5.6276 0.0834
6 12 4 1.1785 0.2196
6 12 6 -1.9473 0.2943
6 12 8 -2.1526 0.3928
6 12 10 -0.7295 0.3671
6 12 12 5.3563 0.2207
6 12 14 4.6302 0.1279
6 12 16 7.0736 0.1969
6 12 18 1.1790 0.2832
6 12 20 2.2437 0.3662
6 12 22 -4.0246 0.2544
6 12 24 -7.5850 -0.1388
6 12 26 -2.7321 -0.4157
6 13 1 -2.9373 0.0308
6 13 3 0.4922 0.0321
6 13 5 4.7959 0.2272
6 13 7 2.3614 0.1475
6 13 9 3.1714 0.1220
6 13 11 -5.0229 0.0519
6 13 13 -6.2753 0.0895
6 13 15 -2.0185 0.1394
6 13 17 2.0660 -0.1449
6 13 19 2.1301 -0.0879
6 13 21 -1.6704 -0.3419
6 13 23 -5.7169 -0.0734
6 13 25 -3.0335 -0.4481
6 14 0 -3.2981 0.2181
6 14 2 4.8720 -0.1325
6 14 4 -1.8217 -0.2943
6 14 6 3.8447 -0.3252
6 14 8 2.7738 -0.2646
6 14 10 0.2156 -0.2185
6 14 12 -5.4617 -0.1683
6 14 14 -2.4041 -0.0297
6 14 16 -5.2764 -0.0772
6 14 18 -4.3502 -0.1017
6 14 20 -2.7103 -0.1361
6 14 22 3.9227 -0.1107
6 14 24 8.7782 0.0646
6 14 26 -1.0925 0.2849
6 15 1 1.1093 -0.5648
6 15 3 1.2598 -0.5244
6 15 5 -4.1170 -0.4619
6 15 7 1.4353 -0.2499
6 15 9 -1.0022 -0.0826
6 15 11 2.3134 0.1099
6 15 13 4.0353 0.1508
6 15 15 3.2371 0.0699
6 15 17 -3.2385 0.1850
6 15 19 -2.7115 -0.0106
6 15 21 -2.5264 0.2977
6 15 23 5.7818 -0.0647
6 15 25 1.0278 0.4981
6 16 0 4.2448 -0.0544
6 16 2 -1.4830 0.0080
6 16 4 3.0603 -0.0806
6 16 6 -3.6853 -0.2023
6 16 8 -4.1955 -0.3328
6 16 10 -1.0202 -0.3142
6 16 12 7.6723 -0.1878
6 16 14 2.9160 -0.2105
6 16 16 1.7080 -0.1023
6 16 18 3.9808 -0.0736
6 16 20 -0.7577 -0.1338
6 16 22 -4.8546 -0.2048
6 16 24 -10.2273 -0.1959
6 17 1 2.4821 -0.0537
6 17 3 -3.1678 0.1040
6 17 5 2.1755 0.0789
6 17 7 -4.1859 0.0213
6 17 9 0.1878 -0.0095
6 17 11 1.6517 -0.0551
6 17 13 1.2081 -0.1336
6 17 15 -0.2723 -0.1111
6 17 17 5.3737 -0.1622
6 17 19 2.1867 0.0179
6 17 21 3.8001 -0.1796
6 17 23 -5.7755 0.4300
6 18 0 -4.7208 -0.1672
6 18 2 -0.4262 0.0813
6 18 4 -1.9099 0.2003
6 18 6 2.0988 0.2783
6 18 8 4.6121 0.3114
6 18 10 2.3522 0.3113
6 18 12 -8.9222 0.2685
6 18 14 -2.5707 0.2724
6 18 16 3.0887 0.1312
6 18 18 -1.7436 -0.0193
6 18 20 3.6102 0.0282
6 18 22 4.0888 0.1918
6 19 1 -5.7215 0.4328
6 19 3 4.6451 0.1603
6 19 5 -0.2591 0.1594
6 19 7 4.1362 0.1462
6 19 9 -0.1304 0.0447
6 19 11 -1.3089 -0.1988
6 19 13 -3.0416 -0.2344
6 19 15 -3.9141 -0.2129
6 19 17 -8.1672 -0.0366
6 19 19 -3.2868 0.1732
6 19 21 -3.3424 0.4882
6 20 0 2.0009 0.0814
6 20 2 -1.8929 -0.0507
6 20 4 -3.5372 0.0269
6 20 6 -0.5313 -0.0087
6 20 8 -1.0724 0.1132
6 20 10 -0.4839 0.1947
6 20 12 8.9989 0.1287
6 20 14 0.3277 -0.0167
6 20 16 -6.2943 -0.1365
6 20 18 0.8158 -0.0479
6 20 20 -2.5932 0.0063
6 21 1 7.8580 -0.0521
6 21 3 -4.1332 0.1892
6 21 5 -1.6709 0.1350
6 21 7 -3.7485 -0.0135
6 21 9 -1.0567 -0.1046
6 21 11 -2.5981 0.1226
6 21 13 1.8221 0.2363
6 21 15 6.5515 0.3715
6 21 17 7.8903 0.3603
6 22 0 3.6567 0.0265
6 22 2 6.7491 -0.0797
6 22 4 9.3800 -0.1098
6 22 6 -1.5399 0.2369
6 22 8 -5.9989 0.1311
6 22 10 -5.2393 -0.2213
6 22 12 -9.6371 -0.4170
6 22 14 0.7873 -0.3738
6 22 16 5.7104 -0.0315
6 23 1 -7.8582 0.0286
6 23 3 2.8014 -0.1795
6 23 5 3.8221 -0.2702
6 23 7 3.5786 -0.1784
6 23 9 1.8435 0.0986
6 23 11 4.8082 0.1686
6 23 13 -1.3143 0.2305
6 23 15 -7.3154 -0.0153
6 24 0 -8.2094 0.0541
6 24 2 -8.9370 0.2542
6 24 4 -9.5031 0.0771
6 24 6 4.5466 -0.5933
6 24 8 11.0873 -0.7079
6 24 10 9.1651 -0.3398
6 24 12 9.3991 0.0743
6 25 1 5.1935 -0.4105
6 25 3 -2.7183 -0.4688
6 25 5 -5.1177 -0.3317
6 25 7 -1.8020 -0.1008
6 25 9 -0.0515 -0.1269
6 26 0 7.2290 -0.0573
6 26 2 5.5023 -0.2121
6 26 4 3.7475 -0.0990
7 1 2 10.8951 -0.4033
7 1 4 17.7477 -0.9105
7 1 6 6.3512 -0.4298
7 1 8 -1.7270 -0.5376
7 1 10 -6.7852 -0.3817
7 1 12 -5.9214 -0.1789
7 1 14 -3.0429 -0.0770
7 1 16 -0.5022 0.0880
7 1 18 4.8299 0.1736
7 1 20 0.5179 0.2771
7 1 22 1.1379 0.5642
7 1 24 7.6570 0.6234
7 1 26 2.8088 0.5051
7 1 28 5.3517 0.0569
7 1 30 11.7794 -0.1654
7 2 1 -7.3536 0.1653
7 2 3 -1.4990 -0.0723
7 2 5 9.5049 -0.0309
7 2 7 2.3381 0.0716
7 2 9 -5.3801 0.0428
7 2 11 -3.5811 0.0021
7 2 13 -5.0654 -0.0950
7 2 15 1.9974 -0.2636
7 2 17 -0.5173 -0.1042
7 2 19 -2.0552 -0.0910
7 2 21 -1.0007 -0.0430
7 2 23 2.6080 -0.1440
7 2 25 6.5553 -0.2579
7 2 27 2.3554 -0.0559
7 2 29 -1.7167 0.0383
7 3 2 -7.6378 0.6653
7 3 4 -19.0290 0.4369
7 3 6 -9.1581 -0.3227
7 3 8 0.9673 -0.3446
7 3 10 7.7419 -0.2893
7 3 12 7.5444 -0.2074
7 3 14 2.7222 -0.0408
7 3 16 -0.5844 0.0663
7 3 18 -6.9445 0.1701
7 3 20 -2.7535 0.2754
7 3 22 -3.9136 0.0693
7 3 24 -4.3193 -0.0175
7 3 26 -0.3041 -0.1475
7 3 28 -0.0672 -0.2768
7 3 30 -8.7954 -0.4433
7 4 1 7.0441 -0.4678
7 4 3 5.1380 -0.5119
7 4 5 -8.3342 -0.4036
7 4 7 -0.0480 -0.1864
7 4 9 7.8758 0.2541
7 4 11 6.7417 0.4738
7 4 13 10.9884 0.6278
7 4 15 0.4525 0.6040
7 4 17 -0.7493 0.5489
7 4 19 -1.0540 0.2578
7 4 21 -0.8166 -0.0300
7 4 23 -1.7605 -0.1678
7 4 25 -6.4891 -0.1745
7 4 27 -1.5047 -0.2841
7 4 29 2.5537 -0.1944
7 5 2 0.4884 0.9411
7 5 4 16.1730 0.5952
7 5 6 9.2801 0.4125
7 5 8 0.1285 0.2270
7 5 10 -5.1716 0.0917
7 5 12 -5.7260 0.1101
7 5 14 -0.3950 0.0305
7 5 16 -0.0534 -0.0144
7 5 18 5.3585 0.0358
7 5 20 1.0012 -0.0389
7 5 22 4.0348 0.0195
7 5 24 -0.0006 -0.1095
7 5 26 0.6529 -0.2055
7 5 28 -3.8126 -0.1452
7 6 1 -0.8872 0.1743
7 6 3 -8.8909 0.1956
7 6 5 -0.3442 0.1357
7 6 7 -4.0828 0.0836
7 6 9 -5.5550 -0.2188
7 6 11 -6.9307 -0.2964
7 6 13 -13.1581 -0.3822
7 6 15 -6.2016 -0.1583
7 6 17 0.5454 -0.2380
7 6 19 4.7800 0.0753
7 6 21 5.0959 0.2166
7 6 23 1.5908 0.2174
7 6 25 3.8040 0.1386
7 6 27 -1.3761 0.1238
7 6 29 -3.3591 -0.0516
7 7 2 7.3595 -1.1498
7 7 4 -8.7420 -0.6768
7 7 6 -5.1356 -0.0998
7 7 8 -1.1087 -0.0094
7 7 10 -0.7377 0.0656
7 7 12 1.4832 -0.0460
7 7 14 -2.0953 0.0084
7 7 16 3.2510 0.0515
7 7 18 -0.5458 -0.1454
7 7 20 3.4943 -0.1962
7 7 22 -0.3485 -0.1407
7 7 24 3.5956 0.1369
7 7 26 -3.9666 0.3592
7 7 28 3.5257 0.4043
7 8 1 -3.4648 0.1769
7 8 3 8.5876 0.3114
7 8 5 5.0775 0.3112
7 8 7 4.6272 0.0981
7 8 9 0.7057 0.0318
7 8 11 3.8563 -0.1536
7 8 13 7.0844 -0.1598
7 8 15 8.2486 -0.4082
7 8 17 2.0312 -0.2339
7 8 19 -2.6336 -0.3618
7 8 21 -7.4465 -0.2181
7 8 23 -4.8380 0.0454
7 8 25 -4.6559 0.2056
7 8 27 2.5963 0.2091
7 9 2 -10.0533 -0.3601
7 9 4 2.9391 -0.1469
7 9 6 0.8982 -0.1230
7 9 8 1.2911 0.1638
7 9 10 4.4030 0.1996
7 9 12 -0.5903 0.2298
7 9 14 2.1632 0.0572
7 9 16 -5.5835 -0.1726
7 9 18 -0.9500 -0.1168
7 9 20 -3.6072 -0.1154
7 9 22 -2.9234 -0.2738
7 9 24 -5.6527 -0.4397
7 9 26 5.3358 -0.2300
7 9 28 -2.4944 0.0452
7 10 1 2.7180 -0.1287
7 10 3 -3.7034 -0.1889
7 10 5 -1.9722 -0.1998
7 10 7 -1.7982 -0.0749
7 10 9 1.6594 0.0277
7 10 11 -1.5501 0.2370
7 10 13 2.8298 0.2133
7 10 15 -2.6654 0.2914
7 10 17 -1.9831 0.1369
7 10 19 -2.8523 0.1462
7 10 21 4.3335 0.0426
7 10 23 6.0769 -0.2011
7 10 25 6.6972 -0.2417
7 10 27 -1.1452 -0.1314
7 11 2 6.1740 0.8369
7 11 4 -1.9710 0.4439
7 11 6 0.8422 0.1289
7 11 8 -0.4016 -0.1231
7 11 10 -4.2376 -0.2080
7 11 12 2.1902 -0.1718
7 11 14 -1.7957 -0.0645
7 11 16 4.0634 0.1430
7 11 18 -1.3952 0.1714
7 11 20 0.0537 0.2173
7 11 22 4.0086 0.4222
7 11 24 4.9062 0.5060
7 11 26 -4.3605 -0.1064
7 12 1 0.1720 -0.0416
7 12 3 -1.2352 -0.0983
7 12 5 -2.1364 -0.0965
7 12 7 -0.1793 -0.0383
7 12 9 -0.6512 0.0129
7 12 11 2.2069 -0.0609
7 12 13 -6.7537 0.0512
7 12 15 -4.4097 0.1295
7 12 17 -1.8723 0.1604
7 12 19 5.0214 0.1665
7 12 21 1.9106 0.0272
7 12 23 -1.4016 0.1400
7 12 25 -4.9272 0.0202
7 13 2 -0.5051 0.1063
7 13 4 2.4285 0.0489
7 13 6 -1.6028 0.1040
7 13 8 -0.4594 0.0082
7 13 10 4.6908 0.0705
7 13 12 -0.4534 -0.0441
7 13 14 2.8660 -0.0416
7 13 16 -0.8157 -0.0457
7 13 18 1.7420 0.0620
7 13 20 0.5109 0.1406
7 13 22 -4.6982 0.0426
7 13 24 -1.4961 -0.1707
7 13 26 4.4077 0.3201
7 14 1 -2.4413 0.0231
7 14 3 2.0188 0.0286
7 14 5 1.4317 0.0442
7 14 7 0.1604 -0.0200
7 14 9 0.2434 -0.0783
7 14 11 -2.4330 -0.0168
7 14 13 2.3689 -0.1024
7 14 15 5.4104 -0.1299
7 14 17 3.5363 -0.0580
7 14 19 -3.7480 -0.1084
7 14 21 -6.6265 0.1283
7 14 23 -4.6768 -0.0475
7 14 25 0.7361 0.0617
7 15 2 -2.3319 -0.4668
7 15 4 -1.4085 -0.2542
7 15 6 2.5119 -0.2514
7 15 8 0.5480 -0.1181
7 15 10 -7.3195 -0.2037
7 15 12 -4.2221 -0.0537
7 15 14 -2.2665 -0.0127
7 15 16 -0.6283 -0.0208
7 15 18 0.9604 -0.0901
7 15 20 1.9780 -0.1434
7 15 22 5.1564 -0.2228
7 15 24 -1.4789 0.0670
7 16 1 4.1014 0.0692
7 16 3 0.3836 0.0910
7 16 5 1.6219 0.1174
7 16 7 -0.5141 0.1379
7 16 9 -2.0923 0.1200
7 16 11 -1.1422 -0.0048
7 16 13 1.8254 0.0200
7 16 15 -3.2448 -0.0941
7 16 17 -0.6120 -0.1248
7 16 19 3.3949 -0.0425
7 16 21 8.8235 -0.3077
7 16 23 7.0409 -0.0303
7 17 2 2.2357 -0.0096
7 17 4 0.7115 -0.0313
7 17 6 -2.2505 0.0070
7 17 8 -1.0679 0.0323
7 17 10 7.6230 0.0703
7 17 12 5.8717 0.1055
7 17 14 -2.0901 0.1218
7 17 16 1.1430 0.1097
7 17 18 -1.8219 -0.0432
7 17 20 -2.4330 -0.2927
7 17 22 -4.0665 -0.1244
7 18 1 -4.1020 -0.0978
7 18 3 -1.8639 -0.0138
7 18 5 -2.5820 -0.0908
7 18 7 2.1203 -0.0630
7 18 9 3.1537 0.0139
7 18 11 6.7004 0.0995
7 18 13 1.5074 -0.0182
7 18 15 5.3498 0.0782
7 18 17 -1.7350 -0.1026
7 18 19 -4.2015 -0.1518
7 18 21 -9.2108 0.2460
7 19 2 -0.9854 0.0594
7 19 4 -2.4519 -0.0155
7 19 6 -0.5865 0.1463
7 19 8 2.3320 0.0935
7 19 10 -3.2148 0.4246
7 19 12 -2.7769 0.2797
7 19 14 6.6874 0.1688
7 19 16 -3.2205 -0.0484
7 19 18 -0.6117 0.0075
7 19 20 0.4648 0.3656
7 20 1 -0.0644 0.0828
7 20 3 0.4978 -0.1081
7 20 5 1.8169 0.0015
7 20 7 -3.4820 -0.1140
7 20 9 -1.4849 -0.2785
7 20 11 -10.1240 -0.3205
7 20 13 -8.8231 -0.1198
7 20 15 -10.0151 -0.0930
7 20 17 0.6724 0.3665
7 20 19 3.0392 0.4845
7 21 2 -0.7179 0.2873
7 21 4 5.2141 0.3577
7 21 6 5.1544 0.1625
7 21 8 -2.0975 0.4694
7 21 10 -1.7845 -0.2346
7 21 12 -1.1179 -0.3323
7 21 14 -8.0838 -0.5452
7 21 16 5.2253 -0.2377
7 22 1 6.9287 -0.0273
7 22 3 2.0670 0.2596
7 22 5 -1.4711 0.0625
7 22 7 4.1562 0.1256
7 22 9 -0.9340 0.2984
7 22 11 9.5238 0.4259
7 22 13 11.5567 0.4268
7 22 15 9.3666 0.4491
7 23 2 2.3023 -0.1879
7 23 4 -6.1380 -0.1513
7 23 6 -8.0153 -0.2211
7 23 8 -0.0135 -1.1397
7 23 10 3.3562 -0.6298
7 23 12 2.5084 -0.4292
7 24 1 -10.3140 -0.0025
7 24 3 -3.4746 -0.3949
7 24 5 0.9906 -0.1100
7 24 7 -5.1257 0.0345
7 24 9 2.1407 0.0393
7 25 2 -2.5925 -0.2930
7 25 4 4.3741 -0.5272
7 25 6 6.0680 -0.3975
8 0 0 -5.4902 2.4524
8 0 2 -7.7877 4.6712
8 0 4 2.9762 3.3461
8 0 6 1.3401 1.9900
8 0 8 10.5739 -0.4174
8 0 10 0.9517 -2.6435
8 0 12 3.6147 -4.3537
8 0 14 -0.5407 -5.3918
8 0 16 -2.6949 -5.3087
8 0 18 1.9096 -4.4233
8 0 20 4.6041 -2.7610
8 0 22 -0.9804 -0.7897
8 0 24 -1.8546 1.0952
8 0 26 -2.5076 2.3313
8 0 28 -6.7046 2.3570
8 1 1 -1.4843 0.0607
8 1 3 -4.6911 0.0084
8 1 5 -0.4698 0.0555
8 1 7 2.3595 0.0773
8 1 9 0.3179 0.1764
8 1 11 -1.0217 0.1645
8 1 13 0.1442 0.2541
8 1 15 0.2268 0.1013
8 1 17 1.9139 0.0914
8 1 19 -0.6124 0.1628
8 1 21 -2.2875 0.1481
8 1 23 -2.8147 -0.1382
8 1 25 -0.6605 -0.3094
8 1 27 2.2093 -0.4172
8 1 29 -0.5254 -0.1189
8 2 0 7.6890 -1.4452
8 2 2 10.2357 -1.9148
8 2 4 -2.0230 -0.6069
8 2 6 -3.3271 -0.4773
8 2 8 -11.3540 -0.0918
8 2 10 -1.2475 0.3362
8 2 12 -2.7428 0.7080
8 2 14 1.8673 1.0947
8 2 16 4.5179 0.9755
8 2 18 1.2426 0.7216
8 2 20 -2.0568 0.3719
8 2 22 -0.1160 0.0061
8 2 24 -1.8068 -0.3786
8 2 26 -0.2610 -0.5418
8 2 28 5.2535 -0.3102
8 3 1 2.5128 -0.0768
8 3 3 10.4543 -0.0429
8 3 5 1.6949 -0.0519
8 3 7 -4.8918 -0.0284
8 3 9 -2.0438 -0.0889
8 3 11 0.3251 -0.0399
8 3 13 -0.9441 -0.1101
8 3 15 1.6719 -0.0427
8 3 17 -1.9319 -0.0370
8 3 19 1.5485 0.0133
8 3 21 3.3731 -0.0757
8 3 23 3.9020 0.0857
8 3 25 -0.1559 0.1079
8 3 27 -6.6964 0.1564
8 3 29 1.0813 -0.0323
8 4 0 -9.1637 -0.3264
8 4 2 -13.3578 -0.0573
8 4 4 0.0636 -0.6300
8 4 6 6.6948 -0.2738
8 4 8 11.3608 0.2254
8 4 10 1.2827 0.7367
8 4 12 1.2253 1.1714
8 4 14 -2.4767 1.2960
8 4 16 -4.1487 1.3549
8 4 18 -4.4068 1.2128
8 4 20 -2.2911 0.8314
8 4 22 -0.1757 0.3699
8 4 24 5.1604 -0.0570
8 4 26 3.4484 -0.4621
8 4 28 -1.3024 -0.7592
8 5 1 -0.0319 -0.0482
8 5 3 -8.7645 -0.0335
8 5 5 -2.5476 -0.0099
8 5 7 3.7612 -0.0169
8 5 9 5.3052 0.0554
8 5 11 4.4010 -0.0076
8 5 13 3.0180 -0.0228
8 5 15 -5.4818 -0.0331
8 5 17 -3.2453 -0.0405
8 5 19 -2.2582 -0.1593
8 5 21 -0.0689 0.0292
8 5 23 1.9008 0.0082
8 5 25 4.6503 0.0996
8 5 27 11.2700 0.1179
8 6 0 3.3446 0.8843
8 6 2 11.2673 0.2986
8 6 4 1.5721 0.1920
8 6 6 -7.4820 0.1882
8 6 8 -8.5830 0.1389
8 6 10 -1.6413 -0.0492
8 6 12 -1.3861 -0.2918
8 6 14 -0.5261 -0.4595
8 6 16 -2.7602 -0.3393
8 6 18 1.4434 -0.2281
8 6 20 2.9203 -0.0718
8 6 22 3.6705 -0.0020
8 6 24 -0.4108 0.1765
8 6 26 -0.8113 0.4069
8 6 28 -2.8723 0.5166
8 7 1 -3.4910 0.1127
8 7 3 2.4688 0.1153
8 7 5 1.3964 0.0688
8 7 7 -1.6460 0.0480
8 7 9 -7.5497 -0.1021
8 7 11 -7.6410 -0.0675
8 7 13 -5.4237 0.0236
8 7 15 5.1512 0.0320
8 7 17 6.1778 0.0650
8 7 19 2.9491 0.1023
8 7 21 -0.9815 -0.0040
8 7 23 -6.8442 -0.0096
8 7 25 -9.0678 0.0363
8 7 27 -14.3992 -0.1001
8 8 0 5.9071 -0.0371
8 8 2 -5.4883 -0.0383
8 8 4 -2.3515 0.0643
8 8 6 5.7502 -0.1833
8 8 8 5.5579 -0.4188
8 8 10 4.4985 -0.5674
8 8 12 3.5079 -0.7019
8 8 14 2.8054 -0.6499
8 8 16 7.8026 -0.9149
8 8 18 1.5616 -0.9210
8 8 20 0.9782 -0.7384
8 8 22 -3.9499 -0.4015
8 8 24 -5.4259 -0.4142
8 8 26 -4.3187 -0.4846
8 9 1 4.7043 0.0253
8 9 3 2.3870 -0.0511
8 9 5 1.3131 -0.0090
8 9 7 0.7143 -0.0512
8 9 9 6.2373 0.1089
8 9 11 4.3750 0.1088
8 9 13 5.1322 0.0520
8 9 15 -0.2110 0.0583
8 9 17 -2.2532 -0.0727
8 9 19 -2.8522 0.0211
8 9 21 -2.8353 -0.1341
8 9 23 4.5085 -0.0240
8 9 25 8.4705 -0.3009
8 9 27 12.9541 -0.0255
8 10 0 -9.0007 -0.6763
8 10 2 1.9033 -0.2040
8 10 4 1.7661 -0.1518
8 10 6 -4.1411 -0.0222
8 10 8 -3.6836 0.0855
8 10 10 -7.0561 0.2153
8 10 12 -4.2553 0.4026
8 10 14 -0.7128 0.3498
8 10 16 -4.9681 0.5519
8 10 18 1.1279 0.5639
8 10 20 -5.1500 0.3541
8 10 22 -1.5776 0.1395
8 10 24 4.4564 0.4667
8 10 26 5.1805 0.7166
8 11 1 -3.1945 -0.0934
8 11 3 -2.7262 0.0104
8 11 5 -3.0316 -0.0857
8 11 7 -0.0182 -0.0150
8 11 9 -2.4156 -0.1304
8 11 11 2.5095 -0.1308
8 11 13 -0.9000 -0.1130
8 11 15 -1.6616 -0.1338
8 11 17 -3.1207 0.1199
8 11 19 1.7090 -0.1137
8 11 21 5.6902 0.2755
8 11 23 1.6910 -0.1073
8 11 25 -3.3810 0.3836
8 12 0 4.4263 0.3704
8 12 2 -1.7828 0.3434
8 12 4 0.4522 0.4249
8 12 6 3.0027 0.4572
8 12 8 0.0603 0.3657
8 12 10 3.5270 0.2502
8 12 12 1.5767 0.1792
8 12 14 -1.6668 0.2240
8 12 16 1.3034 0.1948
8 12 18 -4.0314 0.1216
8 12 20 5.8852 0.3171
8 12 22 5.5362 0.3695
8 12 24 -1.4757 -0.1202
8 13 1 1.3765 -0.0493
8 13 3 0.5251 -0.1222
8 13 5 2.8958 0.0588
8 13 7 -1.6768 0.0645
8 13 9 -0.6119 0.1533
8 13 11 -5.9552 0.1700
8 13 13 -3.5711 0.1150
8 13 15 -2.8781 0.1688
8 13 17 3.9510 -0.1111
8 13 19 -0.5120 0.2379
8 13 21 -2.7598 -0.2387
8 13 23 -4.8841 0.3763
8 13 25 -0.7237 -0.3100
8 14 0 0.1588 0.1853
8 14 2 1.4208 -0.0328
8 14 4 -3.3413 -0.1047
8 14 6 -1.4533 -0.1882
8 14 8 5.2435 -0.0965
8 14 10 4.2479 -0.0472
8 14 12 1.2127 -0.1419
8 14 14 0.3203 -0.1342
8 14 16 -2.2546 -0.2635
8 14 18 1.6511 -0.1165
8 14 20 -3.7621 -0.2992
8 14 22 -3.6485 -0.2694
8 14 24 2.4235 0.0407
8 15 1 -1.2546 0.0969
8 15 3 0.8049 0.1451
8 15 5 -3.0076 -0.0057
8 15 7 3.2722 -0.0178
8 15 9 1.6540 -0.0251
8 15 11 4.5227 -0.1009
8 15 13 3.7722 0.0090
8 15 15 6.2107 -0.1616
8 15 17 -3.6361 0.0280
8 15 19 -0.7608 -0.2923
8 15 21 -2.9247 0.1472
8 15 23 4.2911 -0.5309
8 16 0 0.2417 -0.1710
8 16 2 0.9679 -0.3504
8 16 4 5.7873 -0.5229
8 16 6 1.7822 -0.4676
8 16 8 -5.9304 -0.4750
8 16 10 -7.7347 -0.4353
8 16 12 -0.4589 -0.2625
8 16 14 1.3656 -0.2247
8 16 16 2.4354 0.1088
8 16 18 2.4060 -0.0149
8 16 20 1.6822 0.0299
8 16 22 1.1682 -0.2507
8 17 1 2.5603 0.0895
8 17 3 -0.3796 0.0512
8 17 5 4.8405 0.1005
8 17 7 -3.0899 0.0210
8 17 9 -2.1306 -0.1129
8 17 11 -3.2917 -0.0157
8 17 13 -0.5646 -0.2324
8 17 15 -1.3662 0.0424
8 17 17 7.7277 -0.0484
8 17 19 2.9993 0.0789
8 17 21 5.7795 -0.2197
8 18 0 -2.8922 -0.0805
8 18 2 -3.0981 0.1638
8 18 4 -7.2951 0.2469
8 18 6 -6.6071 0.2142
8 18 8 -1.2964 0.2260
8 18 10 3.9473 0.3382
8 18 12 -2.4534 0.4505
8 18 14 0.4571 0.4266
8 18 16 1.5787 -0.0324
8 18 18 -3.7532 -0.1350
8 18 20 -0.9155 -0.1542
8 19 1 -4.0572 -0.2204
8 19 3 -0.6381 -0.1773
8 19 5 -6.6610 -0.2270
8 19 7 1.6437 -0.1680
8 19 9 2.7523 -0.0323
8 19 11 5.2377 -0.1041
8 19 13 -1.4809 0.3011
8 19 15 -7.0377 0.0740
8 19 17 -12.4633 0.1431
8 19 19 -4.6941 0.2563
8 20 0 4.3344 0.0475
8 20 2 2.9918 0.1555
8 20 4 6.5169 0.4179
8 20 6 12.2347 0.4593
8 20 8 10.1528 0.5474
8 20 10 1.9173 0.3672
8 20 12 4.7187 -0.1648
8 20 14 -2.8876 -0.3886
8 20 16 -4.3642 -0.1647
8 21 1 5.1588 0.1333
8 21 3 1.5694 0.0580
8 21 5 6.0315 0.2059
8 21 7 -0.8935 0.2752
8 21 9 -2.5798 0.2953
8 21 11 -7.3673 0.3832
8 21 13 0.7475 -0.0860
8 21 15 10.1883 0.0520
8 22 0 -4.8780 0.0522
8 22 2 -1.4943 -0.0516
8 22 4 -2.1694 -0.2336
8 22 6 -11.8716 -0.1125
8 22 8 -12.2600 -0.5062
8 22 10 -4.9180 -0.7478
8 22 12 -5.9870 -0.2781
8 23 1 -5.5570 0.0280
8 23 3 -2.2957 0.0876
8 23 5 -3.2249 -0.1535
8 23 7 1.2666 -0.2297
8 23 9 1.1960 -0.2737
8 23 11 6.4116 -0.3759
8 24 0 4.7939 0.0680
8 24 2 0.0772 0.0088
8 24 4 -3.3976 -0.2052
8 24 6 5.5954 -0.6915
8 24 8 7.0847 -0.2532
9 1 2 4.6875 -0.0236
9 1 4 1.8864 -0.7939
9 1 6 9.6640 -0.3976
9 1 8 -2.0879 -0.6554
9 1 10 -1.9978 -0.5265
9 1 12 -5.0647 -0.4007
9 1 14 -3.3635 -0.1693
9 1 16 -4.7138 0.1220
9 1 18 0.7948 0.2320
9 1 20 -4.3349 0.3986
9 1 22 -4.3594 0.5560
9 1 24 -0.9107 0.5437
9 1 26 -1.2922 0.2621
9 1 28 3.5433 -0.1568
9 2 1 -6.1236 -0.2008
9 2 3 -0.5220 -0.0243
9 2 5 1.6851 0.0682
9 2 7 -1.7113 -0.0409
9 2 9 -3.8830 -0.0589
9 2 11 1.4096 -0.0268
9 2 13 0.1177 0.0966
9 2 15 0.5912 0.1264
9 2 17 -1.4692 0.1955
9 2 19 -0.9971 0.0811
9 2 21 0.4527 -0.1373
9 2 23 1.1274 -0.1525
9 2 25 3.2738 -0.0201
9 2 27 -1.9481 0.1037
9 3 2 -6.4024 0.4086
9 3 4 -6.6215 0.3574
9 3 6 -9.5291 -0.3808
9 3 8 1.6304 -0.3187
9 3 10 0.7558 -0.2745
9 3 12 4.1013 -0.0999
9 3 14 4.4067 -0.0864
9 3 16 7.5777 -0.0593
9 3 18 1.3716 0.2053
9 3 20 0.8089 0.3222
9 3 22 -2.3457 0.1923
9 3 24 -0.5680 -0.0637
9 3 26 3.4865 -0.2252
9 3 28 3.3558 -0.2281
9 4 1 9.5341 0.4462
9 4 3 2.3260 0.6057
9 4 5 -2.4916 0.4808
9 4 7 0.2913 0.2060
9 4 9 3.5488 -0.1530
9 4 11 -0.1565 -0.5132
9 4 13 4.5052 -0.6865
9 4 15 4.2165 -0.7759
9 4 17 3.5063 -0.6249
9 4 19 0.8215 -0.4667
9 4 21 -2.4547 -0.0994
9 4 23 -3.0318 0.1901
9 4 25 -5.8885 0.3358
9 4 27 4.0112 0.4569
9 5 2 5.7729 0.9261
9 5 4 10.3471 0.4740
9 5 6 7.9015 0.3325
9 5 8 -1.1848 0.2053
9 5 10 1.0571 0.1666
9 5 12 -1.2338 0.1017
9 5 14 -0.8938 0.1027
9 5 16 -7.4243 0.1236
9 5 18 -5.1342 0.0546
9 5 20 -1.9554 0.0186
9 5 22 4.6724 -0.0192
9 5 24 1.7010 -0.0941
9 5 26 -0.7992 -0.0950
9 6 1 -8.8711 -0.0679
9 6 3 -4.2170 -0.1572
9 6 5 2.4983 -0.1552
9 6 7 2.5384 0.0250
9 6 9 -0.8535 0.1745
9 6 11 -3.5361 0.4364
9 6 13 -10.0162 0.4994
9 6 15 -10.3260 0.6487
9 6 17 -4.2809 0.4923
9 6 19 -0.5221 0.3574
9 6 21 4.1713 0.0443
9 6 23 4.2043 -0.2152
9 6 25 6.8621 -0.2450
9 6 27 -5.1642 -0.2853
9 7 2 -1.1735 -1.1110
9 7 4 -9.3367 -0.5694
9 7 6 -5.0961 0.0493
9 7 8 0.7255 0.1281
9 7 10 -1.5210 0.1336
9 7 12 0.1209 0.0231
9 7 14 -5.3809 -0.0097
9 7 16 2.5561 -0.0868
9 7 18 5.5508 -0.2644
9 7 20 5.2874 -0.3688
9 7 22 0.0224 -0.1900
9 7 24 -0.1757 0.1926
9 7 26 -5.2945 0.2395
9 8 1 4.9790 -0.2787
9 8 3 4.3958 -0.3619
9 8 5 -1.8618 -0.2543
9 8 7 -3.0145 -0.2043
9 8 9 -0.6614 0.0084
9 8 11 5.5177 0.0040
9 8 13 8.8842 0.0781
9 8 15 10.5566 -0.0615
9 8 17 3.0174 -0.1223
9 8 19 2.3761 -0.0183
9 8 21 -3.4031 0.0655
9 8 23 -3.9084 0.1423
9 8 25 -6.6527 -0.0572
9 9 2 -3.3828 -0.2939
9 9 4 5.7191 -0.0635
9 9 6 2.5719 -0.1505
9 9 8 -0.3902 0.0322
9 9 10 0.0815 0.0413
9 9 12 -3.7103 0.1195
9 9 14 7.1112 0.0091
9 9 16 1.5178 -0.1449
9 9 18 0.0176 -0.1055
9 9 20 -1.3353 -0.0480
9 9 22 -3.2693 -0.2323
9 9 24 -3.4802 -0.4514
9 9 26 6.2632 -0.0427
9 10 1 -0.6933 0.1390
9 10 3 -2.9175 0.1166
9 10 5 0.9635 0.0051
9 10 7 1.4871 -0.0222
9 10 9 1.5056 -0.2184
9 10 11 -2.7825 -0.2259
9 10 13 -1.9350 -0.2931
9 10 15 -5.5589 -0.2266
9 10 17 -1.4021 0.0721
9 10 19 -5.4577 -0.0818
9 10 21 1.7465 0.0651
9 10 23 3.7390 -0.0227
9 10 25 6.5598 0.0253
9 11 2 3.3438 0.7778
9 11 4 -3.0837 0.2908
9 11 6 -0.4496 0.0383
9 11 8 0.8308 -0.1323
9 11 10 0.3160 -0.1929
9 11 12 6.3340 -0.1889
9 11 14 -4.7542 -0.0284
9 11 16 -0.6949 0.2731
9 11 18 -4.8313 0.3751
9 11 20 -6.4753 0.3313
9 11 22 1.9133 0.4964
9 11 24 5.5574 0.5180
9 12 1 -1.3988 0.1124
9 12 3 0.7494 0.1744
9 12 5 -0.9607 0.1787
9 12 7 -1.4393 0.1484
9 12 9 -3.1269 0.2123
9 12 11 -1.6329 0.1344
9 12 13 -2.0862 0.1182
9 12 15 1.1603 0.0883
9 12 17 -0.1647 -0.2711
9 12 19 5.3901 0.0290
9 12 21 -1.9424 -0.2462
9 12 23 -3.9367 -0.0313
9 13 2 0.5911 0.1614
9 13 4 2.2575 0.1900
9 13 6 -1.2265 0.2053
9 13 8 -1.6584 0.0439
9 13 10 2.5489 0.1217
9 13 12 -1.9860 0.0456
9 13 14 4.3660 0.0177
9 13 16 -1.8436 -0.1424
9 13 18 2.6551 -0.1383
9 13 20 6.9138 -0.0000
9 13 22 -1.4578 -0.2257
9 14 1 1.4002 -0.1310
9 14 3 1.6143 -0.0196
9 14 5 1.6036 0.1017
9 14 7 2.7733 0.0640
9 14 9 3.5708 0.0163
9 14 11 3.6699 0.0830
9 14 13 0.4871 0.1026
9 14 15 1.5479 0.1588
9 14 17 2.5055 0.3203
9 14 19 -1.4549 -0.1043
9 14 21 2.8051 0.2280
9 14 23 2.6046 0.0336
9 15 2 -4.3008 -0.5392
9 15 4 -2.6980 -0.4360
9 15 6 0.9068 -0.3943
9 15 8 1.8136 -0.1203
9 15 10 -5.5117 -0.1597
9 15 12 -4.5320 -0.0282
9 15 14 -5.5795 -0.1154
9 15 16 0.9013 -0.0721
9 15 18 1.6007 -0.1003
9 15 20 -0.9458 -0.1839
9 15 22 3.6207 0.1062
9 16 1 -0.7596 0.0737
9 16 3 -3.3033 -0.0376
9 16 5 -0.4498 -0.1529
9 16 7 -1.8768 -0.0825
9 16 9 -0.7851 -0.1124
9 16 11 -4.7205 -0.1828
9 16 13 -0.6404 -0.1873
9 16 15 -5.7581 -0.3757
9 16 17 -3.9366 -0.2299
9 16 19 -1.1021 0.1558
9 16 21 -1.3913 -0.1508
9 17 2 5.5724 -0.1131
9 17 4 4.3802 0.0514
9 17 6 1.8420 0.1316
9 17 8 -1.8637 0.0669
9 17 10 4.1593 0.0421
9 17 12 5.1397 0.0463
9 17 14 3.6310 0.2449
9 17 16 3.3794 0.2325
9 17 18 -1.0713 0.1411
9 17 20 -1.9250 0.0051
9 18 1 -0.8344 -0.1012
9 18 3 2.8751 -0.1276
9 18 5 -3.0560 -0.1129
9 18 7 -1.0779 -0.1655
9 18 9 -3.1988 -0.0765
9 18 11 7.0523 -0.0364
9 18 13 6.2712 0.0356
9 18 15 10.5809 0.5003
9 18 17 2.2347 0.1897
9 19 2 -4.6213 0.3911
9 19 4 -6.3541 0.1621
9 19 6 -4.6492 0.2781
9 19 8 2.8501 0.1869
9 19 10 0.0493 0.4542
9 19 12 -1.0596 0.2307
9 19 14 0.8644 -0.1012
9 19 16 -6.2824 -0.2832
9 20 1 4.0194 0.1644
9 20 3 -0.3040 0.0430
9 20 5 5.9412 0.0147
9 20 7 1.6670 0.0696
9 20 9 5.1713 0.1396
9 20 11 -7.7673 0.3416
9 20 13 -10.3694 0.2451
9 20 15 -10.8698 -0.4103
9 21 2 1.7130 0.0819
9 21 4 6.3309 0.2693
9 21 6 5.3962 -0.0417
9 21 8 -3.5769 0.1478
9 21 10 -1.8893 -0.5712
9 21 12 -1.3148 -0.4375
9 22 1 -6.3075 -0.2044
9 22 3 -2.2833 0.2157
9 22 5 -6.3616 0.3333
9 22 7 0.8765 0.3249
9 22 9 -5.1860 0.1373
9 22 11 3.9621 -0.2810
9 23 2 2.1224 -0.4358
9 23 4 -3.7330 -0.6951
9 23 6 -4.4220 -0.5948
9 23 8 2.6541 -1.0412
9 24 1 4.6974 0.1701
10 0 0 -1.1650 1.5717
10 0 2 3.4287 3.0564
10 0 4 -4.3529 2.0650
10 0 6 -1.5753 1.1825
10 0 8 5.1501 -0.4018
10 0 10 -3.7144 -1.7416
10 0 12 -2.6337 -2.8737
10 0 14 -0.7462 -3.5350
10 0 16 0.0416 -3.5143
10 0 18 4.1262 -2.9354
10 0 20 5.4468 -1.7154
10 0 22 2.0126 -0.3842
10 0 24 3.2988 0.7731
10 0 26 0.5742 1.2625
10 1 1 -0.9435 0.8914
10 1 3 -0.8521 2.3759
10 1 5 1.4509 3.9345
10 1 7 1.1291 4.8607
10 1 9 -0.3585 4.6810
10 1 11 -0.7967 3.7291
10 1 13 0.8136 2.1932
10 1 15 0.5334 0.4214
10 1 17 0.0343 -1.3012
10 1 19 0.3244 -2.8846
10 1 21 1.6629 -3.5819
10 1 23 1.5036 -3.8757
10 1 25 0.8895 -2.5927
10 1 27 0.1480 -1.4914
10 2 0 2.7239 -0.9011
10 2 2 -1.6991 -1.2469
10 2 4 3.6909 -0.3304
10 2 6 1.0713 -0.2836
10 2 8 -3.4469 0.0630
10 2 10 4.2055 0.3334
10 2 12 1.9443 0.6084
10 2 14 0.8910 0.7691
10 2 16 1.9554 0.5218
10 2 18 0.8328 0.4367
10 2 20 -0.5210 0.4186
10 2 22 -0.7425 0.3353
10 2 24 -4.7019 0.0843
10 2 26 -2.5158 -0.2391
10 3 1 2.3398 -0.6661
10 3 3 2.8142 -1.1794
10 3 5 -2.4806 -1.6646
10 3 7 -2.0195 -2.0709
10 3 9 0.2863 -1.9863
10 3 11 0.9677 -1.6725
10 3 13 -2.6042 -0.9581
10 3 15 -0.5900 -0.1279
10 3 17 1.9589 0.6771
10 3 19 1.6460 1.4595
10 3 21 -1.4933 1.6356
10 3 23 -2.7880 1.8512
10 3 25 -3.7151 0.9960
10 4 0 -4.9158 -0.2464
10 4 2 -1.7502 -0.0299
10 4 4 -2.5371 -0.4069
10 4 6 0.2072 -0.1345
10 4 8 0.2500 0.0902
10 4 10 -4.4156 0.4427
10 4 12 -0.5401 0.6616
10 4 14 -0.6596 0.7520
10 4 16 -3.1656 0.9369
10 4 18 -7.9570 0.8262
10 4 20 -8.0605 0.3938
10 4 22 -3.1993 0.0470
10 4 24 4.4876 -0.2813
10 4 26 4.6678 -0.3112
10 5 1 -2.5911 -0.1173
10 5 3 -4.6913 -0.2118
10 5 5 0.9595 -0.5110
10 5 7 1.6030 -0.6040
10 5 9 1.7502 -0.6420
10 5 11 0.5769 -0.4436
10 5 13 3.1642 -0.3155
10 5 15 -1.5613 -0.1437
10 5 17 -5.6616 0.0258
10 5 19 -4.9077 0.1178
10 5 21 -2.1060 0.3063
10 5 23 1.7620 0.1288
10 5 25 6.6969 0.4033
10 6 0 3.9241 0.5500
10 6 2 3.5416 0.0893
10 6 4 1.6344 -0.0051
10 6 6 -2.5465 -0.0069
10 6 8 0.3741 0.0503
10 6 10 1.8504 -0.1373
10 6 12 -0.3216 -0.1903
10 6 14 0.2482 -0.2071
10 6 16 -1.2862 -0.1031
10 6 18 6.8386 -0.1452
10 6 20 9.4201 -0.0515
10 6 22 6.5576 -0.2215
10 6 24 0.7305 0.0268
10 6 26 -2.5193 0.2452
10 7 1 1.5328 0.5978
10 7 3 4.8891 0.5257
10 7 5 0.1244 0.6083
10 7 7 -2.0037 0.6879
10 7 9 -4.6311 0.7400
10 7 11 -1.2419 0.6340
10 7 13 -1.5042 0.4187
10 7 15 4.0776 0.1402
10 7 17 5.6229 -0.0992
10 7 19 2.9986 -0.3925
10 7 21 2.6495 -0.2946
10 7 23 -0.8128 -0.1961
10 7 25 -6.4888 -0.1349
10 8 0 0.1006 0.0287
10 8 2 -2.0464 0.1132
10 8 4 -0.2288 0.2051
10 8 6 6.1629 0.0404
10 8 8 2.7851 -0.1747
10 8 10 3.6358 -0.2029
10 8 12 0.4180 -0.3941
10 8 14 -0.9450 -0.3791
10 8 16 6.9061 -0.6635
10 8 18 -0.6196 -0.5402
10 8 20 -1.7124 -0.5130
10 8 22 -3.3989 -0.0748
10 8 24 -4.4966 -0.1651
10 9 1 0.3667 0.0933
10 9 3 -2.9602 0.1674
10 9 5 0.1575 0.2077
10 9 7 2.0249 0.1462
10 9 9 5.0687 0.1244
10 9 11 0.3504 0.0569
10 9 13 0.9148 0.0761
10 9 15 -3.7360 0.0035
10 9 17 -0.8307 -0.1713
10 9 19 1.6967 0.0439
10 9 21 -0.6064 -0.5447
10 9 23 0.4081 -0.3400
10 9 25 3.6373 -0.6560
10 10 0 -3.1890 -0.4369
10 10 2 -0.9765 -0.1296
10 10 4 -1.6345 -0.0730
10 10 6 -8.4397 -0.0509
10 10 8 -5.0754 -0.0110
10 10 10 -7.7724 0.0167
10 10 12 -0.6475 0.2142
10 10 14 1.3140 0.0708
10 10 16 -8.2142 0.2550
10 10 18 -1.2064 0.1718
10 10 20 -6.0228 0.3182
10 10 22 -4.6574 0.1824
10 10 24 1.7880 0.4072
10 11 1 -1.6568 -0.6421
10 11 3 1.3297 -0.4522
10 11 5 0.4490 -0.2865
10 11 7 0.4895 -0.1282
10 11 9 -2.3001 -0.1743
10 11 11 0.3133 -0.1767
10 11 13 -3.2032 -0.1786
10 11 15 2.2333 -0.0511
10 11 17 -2.6387 0.2165
10 11 19 -0.9057 -0.1459
10 11 21 1.2659 0.6759
10 11 23 0.6035 0.0207
10 12 0 1.7029 0.1838
10 12 2 1.7848 0.1653
10 12 4 1.8413 0.1476
10 12 6 6.0096 0.2583
10 12 8 1.8845 0.2700
10 12 10 6.0091 0.1937
10 12 12 0.6272 0.0642
10 12 14 0.6426 0.1883
10 12 16 6.9297 0.2263
10 12 18 -1.5090 0.3147
10 12 20 6.6056 0.3020
10 12 22 8.4808 0.1931
10 13 1 1.2282 -0.0492
10 13 3 -1.7894 -0.1744
10 13 5 -1.8735 -0.1845
10 13 7 -3.2289 -0.1879
10 13 9 -0.6686 -0.1104
10 13 11 -0.9132 0.0081
10 13 13 3.9150 -0.0320
10 13 15 -4.2412 0.0396
10 13 17 1.6529 -0.0258
10 13 19 -4.3748 0.4785
10 13 21 -3.0573 -0.3875
10 14 0 3.9187 0.1594
10 14 2 1.3831 -0.1430
10 14 4 0.4702 -0.1283
10 14 6 -0.4731 -0.2326
10 14 8 3.9369 -0.1850
10 14 10 0.4680 -0.0752
10 14 12 1.5609 -0.0456
10 14 14 -1.9126 -0.0044
10 14 16 -5.5708 -0.1634
10 14 18 1.8251 -0.1659
10 14 20 -3.1852 -0.4757
10 15 1 -0.0743 0.5211
10 15 3 2.0542 0.4769
10 15 5 0.6756 0.2563
10 15 7 2.6921 0.0877
10 15 9 2.0545 0.0796
10 15 11 3.4183 -0.1196
10 15 13 -0.4444 0.1309
10 15 15 7.4645 -0.0562
10 15 17 -1.1830 -0.0939
10 15 19 5.9474 -0.4495
10 16 0 -8.4465 -0.1171
10 16 2 -5.4460 -0.0114
10 16 4 -2.5926 -0.1752
10 16 6 -2.6833 -0.0946
10 16 8 -5.9354 -0.0804
10 16 10 -5.8646 -0.0662
10 16 12 -5.2528 0.0474
10 16 14 -1.1741 -0.0473
10 16 16 2.6370 0.1263
10 16 18 1.5834 -0.1199
10 17 1 -0.2615 0.2770
10 17 3 -0.0134 0.1278
10 17 5 3.4895 0.0843
10 17 7 0.0651 0.0723
10 17 9 -2.5406 -0.0688
10 17 11 -6.5835 0.1961
10 17 13 -2.2984 -0.2742
10 17 15 -4.8000 -0.0286
10 17 17 4.7584 0.0574
10 18 0 6.4797 -0.0192
10 18 2 5.6299 0.0706
10 18 4 1.8251 0.2094
10 18 6 1.3209 0.1234
10 18 8 3.2728 0.0522
10 18 10 6.5331 -0.0168
10 18 12 6.0874 -0.0946
10 18 14 5.2239 -0.0903
10 18 16 1.6040 -0.2793
10 19 1 0.2298 -0.8204
10 19 3 -1.5896 -0.4338
10 19 5 -5.7502 -0.1686
10 19 7 -1.6951 -0.0392
10 19 9 1.6148 0.1242
10 19 11 6.5617 -0.0851
10 19 13 0.7564 0.5511
10 19 15 -2.5124 0.2264
10 20 0 0.7570 -0.0797
10 20 2 -1.8785 -0.0669
10 20 4 0.4409 0.0520
10 20 6 1.6272 0.1291
10 20 8 -0.2953 0.1729
10 20 10 -3.7845 0.1395
10 20 12 -2.1411 -0.0604
10 21 1 -0.7988 0.1845
10 21 3 0.0105 -0.1542
10 21 5 3.1460 -0.1265
10 21 7 1.2651 0.0264
10 21 9 1.2333 0.0965
10 21 11 -3.3320 0.1714
10 22 0 -6.0216 0.2167
10 22 2 -1.0318 0.2214
10 22 4 -0.8588 -0.0109
10 22 6 -3.3182 -0.0467
10 22 8 -0.6435 -0.1551
10 23 1 1.0565 0.1946
11 1 2 -1.6201 -0.1529
11 1 4 -4.5755 -0.3864
11 1 6 8.3242 -0.2096
11 1 8 -2.6161 -0.3034
11 1 10 0.7939 -0.1862
11 1 12 -0.8336 -0.0763
11 1 14 2.6444 0.0551
11 1 16 -2.3702 0.0195
11 1 18 1.2136 -0.1362
11 1 20 0.4875 -0.1006
11 1 22 3.7983 0.0001
11 1 24 1.7087 0.1637
11 2 1 -1.4605 -0.2199
11 2 3 1.6483 0.2272
11 2 5 -0.5124 0.2202
11 2 7 0.5334 -0.1479
11 2 9 -1.2470 -0.1435
11 2 11 1.5210 -0.1164
11 2 13 -1.7051 0.0304
11 2 15 -2.7069 -0.0410
11 2 17 -2.6809 -0.2920
11 2 19 1.2560 -0.2324
11 2 21 0.0099 -0.0887
11 2 23 -2.7457 0.5050
11 2 25 -2.7439 0.7563
11 3 2 -0.2416 0.2178
11 3 4 1.3808 0.1231
11 3 6 -6.3592 -0.1636
11 3 8 0.2386 -0.0810
11 3 10 -4.2577 -0.1761
11 3 12 -1.5627 -0.0847
11 3 14 -1.3580 -0.1153
11 3 16 3.9196 0.1088
11 3 18 1.1145 0.5623
11 3 20 -1.2626 0.5491
11 3 22 -5.0403 0.3744
11 3 24 -2.0442 0.0241
11 4 1 3.6543 0.9537
11 4 3 -2.0970 1.2408
11 4 5 -0.4463 0.9884
11 4 7 -2.6395 0.5283
11 4 9 0.6310 -0.2575
11 4 11 -3.0066 -0.8456
11 4 13 1.9133 -1.2370
11 4 15 4.4888 -1.3270
11 4 17 4.5882 -0.9285
11 4 19 -0.9499 -0.4487
11 4 21 -1.2986 0.2359
11 4 23 -0.2558 0.4136
11 4 25 -0.9320 0.3653
11 5 2 0.9041 0.2747
11 5 4 1.9198 0.2577
11 5 6 3.5820 0.2365
11 5 8 2.6648 0.1736
11 5 10 6.7345 0.2081
11 5 12 2.5569 0.0629
11 5 14 0.1473 0.1019
11 5 16 -4.7548 0.0901
11 5 18 -4.3868 -0.1650
11 5 20 0.6896 -0.1569
11 5 22 4.3835 -0.2918
11 5 24 2.0109 -0.3953
11 6 1 -5.6119 -0.2521
11 6 3 1.1860 -0.3721
11 6 5 2.2746 -0.2899
11 6 7 4.7421 -0.0912
11 6 9 0.3838 0.2713
11 6 11 3.4167 0.6078
11 6 13 0.2290 0.7677
11 6 15 -2.4123 0.7542
11 6 17 -1.8995 0.5139
11 6 19 0.0896 0.0810
11 6 21 1.0324 -0.4131
11 6 23 3.0197 -0.5488
11 7 2 0.2414 -0.3428
11 7 4 -3.5176 -0.2608
11 7 6 -0.9612 -0.0383
11 7 8 -3.0387 -0.1067
11 7 10 -4.2412 -0.1317
11 7 12 0.2036 -0.0948
11 7 14 -0.8960 -0.0992
11 7 16 2.6353 -0.2149
11 7 18 5.5221 -0.1691
11 7 20 0.5962 -0.2213
11 7 22 -0.7348 -0.0320
11 7 24 -0.4801 0.3728
11 8 1 5.9228 -0.6299
11 8 3 0.6020 -0.9468
11 8 5 -3.0243 -0.7682
11 8 7 -4.8149 -0.3740
11 8 9 -0.4998 0.0399
11 8 11 -2.8669 0.2180
11 8 13 -2.7902 0.4162
11 8 15 -1.6888 0.6485
11 8 17 -3.9472 0.4915
11 8 19 0.7380 0.6028
11 8 21 1.7983 0.2747
11 8 23 -0.1740 -0.0585
11 9 2 -0.9909 -0.1933
11 9 4 3.6317 -0.0519
11 9 6 -0.8657 -0.0982
11 9 8 1.0034 0.1055
11 9 10 -0.4884 0.1087
11 9 12 -3.7938 0.1779
11 9 14 3.3827 0.1080
11 9 16 0.4111 0.1164
11 9 18 -3.6714 -0.0063
11 9 20 0.3604 0.0030
11 9 22 -2.5302 0.0685
11 10 1 -4.7997 0.4504
11 10 3 -2.4233 0.4861
11 10 5 2.1901 0.2523
11 10 7 3.6833 -0.0094
11 10 9 0.6825 -0.3259
11 10 11 2.4977 -0.4180
11 10 13 1.8124 -0.5528
11 10 15 1.1110 -0.7563
11 10 17 5.1923 -0.2731
11 10 19 -2.7037 -0.5516
11 10 21 -2.9623 0.0262
11 10 23 -2.5771 0.3032
11 11 2 0.2231 0.4588
11 11 4 -2.7843 0.2291
11 11 6 0.8063 0.1012
11 11 8 -0.7098 -0.0126
11 11 10 0.9470 0.0620
11 11 12 3.7627 -0.0145
11 11 14 -5.0720 -0.0339
11 11 16 -0.0295 -0.1000
11 11 18 2.1564 0.0387
11 11 20 -3.0621 0.1704
11 11 22 2.5352 0.1578
11 12 1 3.4560 0.1487
11 12 3 2.8596 0.4405
11 12 5 -1.2426 0.5098
11 12 7 -2.9787 0.3856
11 12 9 -0.5891 0.2680
11 12 11 -1.9020 0.0740
11 12 13 3.1654 -0.0159
11 12 15 4.0542 -0.0911
11 12 17 -0.5736 -0.6741
11 12 19 5.2019 0.1011
11 12 21 0.3849 -0.1620
11 13 2 1.8971 -0.0938
11 13 4 2.3729 -0.1285
11 13 6 1.6647 -0.0731
11 13 8 3.3593 -0.1667
11 13 10 2.7626 -0.2506
11 13 12 -0.5767 -0.2610
11 13 14 4.9722 -0.1101
11 13 16 -2.5391 0.1529
11 13 18 -2.8394 0.2617
11 13 20 3.4017 0.1478
11 14 1 -2.3622 -0.1623
11 14 3 -1.0983 -0.1696
11 14 5 0.9443 -0.0347
11 14 7 2.4123 0.0499
11 14 9 -1.4770 0.1260
11 14 11 0.7335 0.1382
11 14 13 -6.8220 0.0478
11 14 15 -5.3929 0.3288
11 14 17 -2.4453 0.8199
11 14 19 -5.7064 -0.0518
11 15 2 -4.8597 -0.2363
11 15 4 -3.7177 0.0105
11 15 6 -4.6660 0.0360
11 15 8 -4.7694 0.1423
11 15 10 -4.3165 0.1042
11 15 12 -1.6917 0.2224
11 15 14 -4.6486 0.1662
11 15 16 1.5743 0.0069
11 15 18 3.0636 -0.2923
11 16 1 1.7687 -0.1711
11 16 3 -1.5328 -0.3441
11 16 5 -0.3745 -0.4895
11 16 7 -1.6712 -0.4220
11 16 9 4.0842 -0.3866
11 16 11 -1.0423 -0.1044
11 16 13 4.7109 0.3591
11 16 15 -0.0063 0.0061
11 16 17 0.9712 -0.2597
11 17 2 6.4177 0.0222
11 17 4 5.0409 -0.0622
11 17 6 5.3584 -0.0306
11 17 8 3.0091 0.0609
11 17 10 2.7485 0.1824
11 17 12 2.0009 0.0674
11 17 14 4.4347 -0.0498
11 17 16 2.8131 -0.2257
11 18 1 -2.6125 0.1851
11 18 3 2.7362 0.0367
11 18 5 -0.8500 -0.0060
11 18 7 2.1058 -0.0204
11 18 9 -4.0315 0.1191
11 18 11 3.5048 -0.0994
11 18 13 0.3704 -0.5328
11 19 2 -4.3351 0.3995
11 19 4 -3.8371 0.1608
11 19 6 -3.6613 0.1084
11 19 8 -1.4499 -0.1601
11 19 10 -3.2927 -0.1694
11 19 12 -2.4627 -0.2092
11 20 1 4.7153 0.1059
11 20 3 -1.8920 0.3644
11 20 5 1.9829 0.5142
11 20 7 -3.9358 0.4994
11 20 9 1.9548 0.3453
11 21 2 0.5698 -0.4828
11 21 4 1.7959 -0.0818
11 21 6 2.2161 -0.1339
12 0 0 -3.3116 -0.1071
12 0 2 -0.2411 -0.1486
12 0 4 -10.8379 -0.2114
12 0 6 -6.9939 -0.1078
12 0 8 -3.9566 -0.1208
12 0 10 -6.2804 -0.0192
12 0 12 -2.9605 -0.0565
12 0 14 0.6104 0.1654
12 0 16 2.8521 0.1853
12 0 18 2.1098 0.3040
12 0 20 4.5866 0.3333
12 0 22 9.4663 0.2008
12 0 24 15.0048 0.2491
12 1 1 0.2863 1.2948
12 1 3 1.9649 3.2994
12 1 5 1.1473 5.2494
12 1 7 0.8578 6.3079
12 1 9 0.4454 5.9471
12 1 11 1.1839 4.8205
12 1 13 1.1162 2.7871
12 1 15 1.3635 0.4663
12 1 17 -0.3919 -1.8035
12 1 19 0.4610 -3.7882
12 1 21 1.8691 -4.0148
12 1 23 1.1882 -3.7684
12 2 0 1.7964 0.0414
12 2 2 -0.8867 -0.0298
12 2 4 7.8519 -0.0125
12 2 6 5.1539 -0.0759
12 2 8 3.4963 0.0341
12 2 10 4.9575 0.0262
12 2 12 1.6316 0.0670
12 2 14 0.1218 0.0334
12 2 16 -0.7625 0.0438
12 2 18 0.7251 0.2543
12 2 20 -1.3884 0.4467
12 2 22 -6.0848 0.3318
12 2 24 -11.0035 0.0009
12 3 1 0.0383 -0.9712
12 3 3 -3.3420 -1.6698
12 3 5 -1.9091 -2.2555
12 3 7 -2.2108 -2.7330
12 3 9 -0.9001 -2.4957
12 3 11 -1.8399 -2.0582
12 3 13 -1.4165 -1.0356
12 3 15 -2.2062 -0.0760
12 3 17 2.2667 0.7709
12 3 19 0.3256 1.6641
12 3 21 -2.5772 1.6984
12 3 23 -1.6485 1.9480
12 4 0 1.1036 0.0500
12 4 2 2.4695 -0.0175
12 4 4 -2.4012 -0.0147
12 4 6 -1.7203 0.0428
12 4 8 -2.4286 -0.0310
12 4 10 -1.4370 -0.0159
12 4 12 1.2073 -0.0921
12 4 14 -2.0152 -0.1885
12 4 16 -3.4936 -0.1879
12 4 18 -6.7286 -0.3304
12 4 20 -5.2769 -0.5244
12 4 22 -0.8766 -0.2556
12 5 1 -1.3254 -0.2103
12 5 3 1.0330 -0.3595
12 5 5 0.4786 -0.7168
12 5 7 2.5660 -0.7211
12 5 9 -0.2407 -0.7900
12 5 11 -1.3230 -0.5933
12 5 13 -1.6219 -0.5441
12 5 15 0.3704 -0.2629
12 5 17 -3.6619 0.0522
12 5 19 -1.1281 0.1889
12 5 21 0.2398 0.3317
12 5 23 -0.6219 -0.0962
12 6 0 -2.2224 -0.1072
12 6 2 -1.9372 0.0984
12 6 4 -0.3286 0.0843
12 6 6 -0.5819 0.0710
12 6 8 1.2834 0.1040
12 6 10 -2.3415 0.0258
12 6 12 -2.5918 0.1137
12 6 14 4.1319 0.1039
12 6 16 5.2282 0.0954
12 6 18 10.0531 -0.0696
12 6 20 9.0620 0.1164
12 6 22 5.4356 -0.1914
12 7 1 1.8014 1.0084
12 7 3 1.3562 0.9235
12 7 5 1.0872 0.9320
12 7 7 -1.8938 0.8208
12 7 9 2.6898 0.8231
12 7 11 5.9693 0.6532
12 7 13 4.3553 0.4201
12 7 15 1.0558 0.1784
12 7 17 0.5782 0.1317
12 7 19 -2.9430 -0.0175
12 7 21 -0.9254 0.0849
12 8 0 0.8512 0.0425
12 8 2 0.1828 -0.0606
12 8 4 0.1466 0.0165
12 8 6 1.6932 -0.0277
12 8 8 -0.5873 -0.0590
12 8 10 4.0266 0.0574
12 8 12 0.9478 -0.0315
12 8 14 -4.7312 0.1810
12 8 16 -1.6005 0.0835
12 8 18 -7.4129 0.4265
12 8 20 -6.6216 0.0845
12 8 22 -4.8835 0.3252
12 9 1 -1.1001 -0.1442
12 9 3 -2.1298 0.0453
12 9 5 -2.0220 0.2098
12 9 7 1.0467 0.2973
12 9 9 -3.4529 0.2484
12 9 11 -6.5642 0.2247
12 9 13 -2.0847 0.3253
12 9 15 -0.4721 0.1878
12 9 17 5.0465 -0.2735
12 9 19 8.5857 -0.3770
12 9 21 4.8475 -1.1120
12 10 0 0.4109 0.0908
12 10 2 -0.2808 0.0642
12 10 4 0.2922 -0.0335
12 10 6 -1.7811 -0.0209
12 10 8 0.9034 -0.0875
12 10 10 -3.7016 -0.2209
12 10 12 1.2709 -0.0795
12 10 14 2.5472 -0.2997
12 10 16 -4.3333 -0.0607
12 10 18 2.6008 -0.4810
12 10 20 1.4584 -0.1034
12 11 1 0.5901 -0.8867
12 11 3 2.6143 -0.7024
12 11 5 3.0621 -0.3902
12 11 7 -0.6786 -0.1830
12 11 9 1.3718 -0.1364
12 11 11 2.4438 -0.2255
12 11 13 -3.6906 -0.3316
12 11 15 0.0510 -0.2536
12 11 17 -7.6603 -0.0910
12 11 19 -8.1551 -0.3325
12 12 0 -0.4701 -0.1462
12 12 2 2.1641 -0.1349
12 12 4 -0.1022 -0.1560
12 12 6 0.3718 -0.1338
12 12 8 -1.9642 0.0687
12 12 10 2.8229 0.2250
12 12 12 -1.9777 0.0983
12 12 14 0.4420 0.1383
12 12 16 6.8039 -0.1588
12 12 18 -0.7607 0.2637
12 13 1 -0.8693 0.3614
12 13 3 -2.9272 0.1244
12 13 5 -3.8566 -0.2931
12 13 7 0.2683 -0.4311
12 13 9 0.0920 -0.3211
12 13 11 0.2396 0.0538
12 13 13 6.3410 -0.0368
12 13 15 -1.6319 -0.1497
12 13 17 6.8659 0.1113
12 14 0 1.7536 0.1365
12 14 2 -2.3029 0.0983
12 14 4 -0.3609 0.2531
12 14 6 1.3051 0.3160
12 14 8 2.6146 0.1521
12 14 10 -1.0512 -0.0044
12 14 12 3.3492 -0.0960
12 14 14 -0.4122 -0.0373
12 14 16 -4.5198 0.2418
12 15 1 1.4986 0.5256
12 15 3 2.2425 0.4348
12 15 5 3.6534 0.5392
12 15 7 0.6523 0.3984
12 15 9 1.2370 0.1785
12 15 11 1.5575 -0.4695
12 15 13 -3.6270 -0.0099
12 15 15 3.6837 0.4543
12 16 0 -4.5415 -0.1783
12 16 2 -0.4113 -0.0190
12 16 4 1.1971 -0.1728
12 16 6 -1.6967 -0.3091
12 16 8 -2.6659 -0.2880
12 16 10 -2.0061 -0.1700
12 16 12 -6.1936 0.1657
12 16 14 -2.3639 0.1881
12 17 1 -2.3464 -0.3064
12 17 3 -1.3675 -0.1183
12 17 5 -2.8776 -0.2698
12 17 7 -1.0431 -0.2393
12 17 9 -2.1621 -0.1375
12 17 11 -3.1241 0.7181
12 17 13 0.2908 0.2164
12 18 0 4.7321 0.2415
12 18 2 2.7379 0.1000
12 18 4 -2.1666 0.1846
12 18 6 1.5179 0.2321
12 18 8 3.0811 0.2160
12 18 10 3.8834 0.1241
12 19 1 3.0994 -0.0394
12 19 3 0.8858 -0.0771
12 19 5 1.8140 0.2955
12 19 7 -0.1015 0.4887
12 19 9 0.1752 0.5078
12 20 0 -0.8890 -0.2196
12 20 2 -2.4746 -0.2364
12 20 4 2.4509 -0.2846
13 1 2 -2.2843 0.2606
13 1 4 -3.2176 0.4146
13 1 6 0.1659 0.2163
13 1 8 -0.2713 0.2386
13 1 10 4.7003 0.2049
13 1 12 2.7718 0.1508
13 1 14 5.1799 0.0592
13 1 16 1.2800 -0.1105
13 1 18 3.4645 -0.1821
13 1 20 5.8311 -0.2442
13 1 22 6.9204 -0.1983
13 2 1 5.7836 -0.1542
13 2 3 3.5985 0.2586
13 2 5 1.1970 0.2144
13 2 7 4.1293 -0.1083
13 2 9 1.1320 -0.1145
13 2 11 2.0307 -0.2378
13 2 13 -2.2375 -0.1531
13 2 15 -3.9059 0.0260
13 2 17 -9.7110 0.0762
13 2 19 -7.1311 0.3712
13 2 21 -7.8864 0.2841
13 3 2 2.2521 -0.4111
13 3 4 1.1593 -0.2888
13 3 6 -1.1562 -0.0525
13 3 8 -4.3407 0.0631
13 3 10 -6.6695 -0.0128
13 3 12 -2.5712 0.1733
13 3 14 -1.9590 0.1315
13 3 16 -1.4245 0.1877
13 3 18 -3.5560 0.2270
13 3 20 -5.9033 -0.0568
13 3 22 -5.2711 -0.1268
13 4 1 -4.4834 0.8143
13 4 3 -3.5739 1.1043
13 4 5 -2.1617 0.8690
13 4 7 -6.4737 0.4521
13 4 9 -0.6078 -0.2765
13 4 11 -3.3954 -0.7206
13 4 13 1.7264 -1.1205
13 4 15 3.4355 -1.2678
13 4 17 11.7564 -0.8557
13 4 19 8.2036 -0.3883
13 4 21 9.9118 0.3581
13 5 2 -1.7175 -0.4386
13 5 4 1.8761 -0.1588
13 5 6 1.2092 0.0216
13 5 8 7.3898 0.0557
13 5 10 5.3470 0.1708
13 5 12 -0.2670 -0.0154
13 5 14 -3.3018 0.0495
13 5 16 0.2228 -0.0415
13 5 18 1.4832 -0.3382
13 5 20 4.6229 -0.1768
13 6 1 -0.7981 -0.2825
13 6 3 0.8307 -0.4702
13 6 5 1.9998 -0.3020
13 6 7 5.7178 -0.0830
13 6 9 -0.9498 0.2962
13 6 11 5.7024 0.5024
13 6 13 3.2507 0.6643
13 6 15 2.3545 0.5599
13 6 17 -5.2006 0.2355
13 6 19 -3.9767 -0.0617
13 6 21 -7.2579 -0.3752
13 7 2 0.9024 0.7197
13 7 4 -3.8610 0.3419
13 7 6 0.4299 0.0894
13 7 8 -5.6870 -0.0499
13 7 10 0.1927 -0.1158
13 7 12 4.7353 -0.1080
13 7 14 7.2373 -0.1894
13 7 16 2.5292 -0.1781
13 7 18 3.5930 0.2030
13 7 20 -1.0316 0.2816
13 8 1 2.7018 -0.4720
13 8 3 0.7294 -0.6899
13 8 5 -1.5847 -0.6707
13 8 7 -3.5743 -0.3118
13 8 9 1.6983 0.0553
13 8 11 -8.6560 0.3288
13 8 13 -8.7124 0.4747
13 8 15 -8.2322 0.7542
13 8 17 -3.7057 0.6411
13 8 19 -0.6252 0.5383
13 9 2 -0.4785 -0.0902
13 9 4 3.4033 -0.1175
13 9 6 -1.8220 -0.2392
13 9 8 3.0521 -0.1901
13 9 10 -4.0628 -0.2794
13 9 12 -6.3540 -0.1391
13 9 14 -6.8378 -0.0495
13 9 16 -4.8131 0.2457
13 9 18 -8.2904 0.2133
13 10 1 0.0449 0.3838
13 10 3 0.5300 0.3982
13 10 5 2.5295 0.3235
13 10 7 2.8183 0.0277
13 10 9 -1.6091 -0.2845
13 10 11 8.6885 -0.4520
13 10 13 7.9201 -0.5052
13 10 15 7.8446 -0.6479
13 10 17 7.7667 -0.2592
13 10 19 2.1160 -0.5586
13 11 2 -0.0265 -0.2356
13 11 4 -1.4606 -0.0389
13 11 6 1.0811 0.1741
13 11 8 -3.2772 0.1400
13 11 10 2.6657 0.3624
13 11 12 3.6852 0.3047
13 11 14 2.7785 0.3814
13 11 16 4.4426 -0.0749
13 11 18 8.0903 -0.4300
13 12 1 -3.3706 0.0641
13 12 3 -2.2436 0.4069
13 12 5 -3.1067 0.3689
13 12 7 -2.5068 0.2223
13 12 9 2.4406 0.0607
13 12 11 -4.9508 0.0160
13 12 13 -1.4070 0.0659
13 12 15 -2.4331 -0.1050
13 12 17 -5.5139 -0.7257
13 13 2 1.8491 0.0121
13 13 4 0.2233 0.0009
13 13 6 0.6493 0.0471
13 13 8 4.2024 0.1922
13 13 10 0.1541 0.0322
13 13 12 -0.1304 -0.0612
13 13 14 1.7898 -0.4065
13 13 16 -1.3613 -0.1852
13 14 1 4.0493 0.0036
13 14 3 1.8089 -0.2112
13 14 5 0.7002 -0.0821
13 14 7 0.5417 0.1640
13 14 9 -4.2287 0.4213
13 14 11 1.2891 0.2184
13 14 13 -3.6625 -0.3679
13 14 15 -1.1280 -0.0790
13 15 2 -4.5517 -0.1074
13 15 4 -0.3623 -0.1573
13 15 6 -0.9433 -0.2469
13 15 8 -2.5289 -0.3538
13 15 10 -0.1572 -0.3471
13 15 12 -1.2031 -0.2497
13 16 1 -1.6622 -0.4141
13 16 3 0.0671 -0.4238
13 16 5 2.5869 -0.4399
13 16 7 1.0256 -0.5053
13 16 9 4.6125 -0.7017
13 16 11 -0.3252 -0.2979
13 17 2 5.9873 0.4646
13 17 4 0.9377 0.4633
13 17 6 -0.1919 0.3959
13 17 8 -0.1237 0.3439
13 17 10 -0.9324 0.3377
13 18 1 -1.9099 0.5182
13 18 3 -0.8567 0.4661
13 18 5 -2.9669 0.2767
13 18 7 0.3439 0.2680
14 0 0 -9.5108 -1.7403
14 0 2 -6.1836 -2.8751
14 0 4 -3.1778 -2.1080
14 0 6 -3.3516 -1.2141
14 0 8 -5.7219 0.2630
14 0 10 -3.5731 1.6868
14 0 12 -1.2833 2.5956
14 0 14 -3.4110 3.1916
14 0 16 0.8293 2.5974
14 0 18 -1.6291 2.1867
14 0 20 -0.5394 1.3843
14 1 1 0.4287 0.9196
14 1 3 0.7415 2.1208
14 1 5 -1.9776 3.2099
14 1 7 -0.8072 3.9179
14 1 9 -2.4083 3.7231
14 1 11 -1.6441 2.9223
14 1 13 -2.4712 1.3247
14 1 15 0.8776 -0.3884
14 1 17 0.1257 -1.3537
14 1 19 -0.7981 -1.8791
14 2 0 5.0041 1.0985
14 2 2 3.4761 1.0577
14 2 4 1.9397 0.2871
14 2 6 2.8915 0.1473
14 2 8 3.8402 -0.1355
14 2 10 0.1885 -0.3894
14 2 12 -1.7291 -0.4199
14 2 14 2.9288 -0.3983
14 2 16 0.9709 -0.1316
14 2 18 3.1024 -0.1180
14 2 20 1.2897 -0.1158
14 3 1 -0.9652 -0.5022
14 3 3 -2.0099 -0.9133
14 3 5 4.2474 -1.1804
14 3 7 0.5556 -1.5067
14 3 9 5.4525 -1.4177
14 3 11 3.7948 -1.1451
14 3 13 5.6353 -0.4029
14 3 15 -2.5923 0.2478
14 3 17 -0.1891 0.4615
14 3 19 1.8171 0.7304
14 4 0 2.3127 0.1500
14 4 2 0.7600 0.0702
14 4 4 0.6724 0.3530
14 4 6 -0.9230 0.1217
14 4 8 0.4214 -0.1188
14 4 10 5.8317 -0.4285
14 4 12 6.3198 -0.8129
14 4 14 -2.5047 -1.0083
14 4 16 -4.0482 -0.9438
14 4 18 -5.2416 -0.7915
14 5 1 0.9358 -0.2192
14 5 3 2.8706 -0.3488
14 5 5 -3.2048 -0.6754
14 5 7 2.7502 -0.7143
14 5 9 -5.4452 -0.6961
14 5 11 -4.1826 -0.4718
14 5 13 -5.1626 -0.3513
14 5 15 4.1890 -0.0875
14 5 17 0.6732 0.1168
14 5 19 -1.0345 0.0034
14 6 0 -3.4851 -0.6727
14 6 2 -1.0011 -0.1218
14 6 4 -1.9089 -0.0003
14 6 6 -1.6602 0.1228
14 6 8 -3.5035 0.1407
14 6 10 -7.9405 0.2353
14 6 12 -6.3995 0.5159
14 6 14 2.7012 0.4352
14 6 16 4.3366 0.2361
14 6 18 4.7875 0.0165
14 7 1 -0.5871 0.5056
14 7 3 -3.1761 0.5583
14 7 5 0.5788 0.6610
14 7 7 -6.3349 0.6264
14 7 9 4.1628 0.5963
14 7 11 4.1964 0.4823
14 7 13 2.4294 0.3630
14 7 15 -4.6995 0.1372
14 7 17 -2.2164 0.1747
14 8 0 -0.5293 0.1505
14 8 2 -1.6428 0.0332
14 8 4 0.0932 0.1261
14 8 6 1.5662 0.1267
14 8 8 2.4946 0.1975
14 8 10 5.2799 0.2606
14 8 12 2.7983 0.0054
14 8 14 -2.1188 0.2768
14 8 16 -1.2685 0.2969
14 9 1 0.2330 0.0299
14 9 3 2.7947 0.0116
14 9 5 0.7180 0.0958
14 9 7 6.9995 0.2241
14 9 9 -3.3958 0.2424
14 9 11 -4.7049 0.1544
14 9 13 -0.0839 0.0119
14 9 15 2.5545 -0.0473
14 9 17 3.4224 -0.2798
14 10 0 2.8670 0.4960
14 10 2 1.9654 0.0521
14 10 4 2.4376 -0.4030
14 10 6 1.4952 -0.4051
14 10 8 1.4561 -0.4022
14 10 10 -1.3256 -0.4699
14 10 12 0.7865 -0.1783
14 10 14 0.8746 -0.3692
14 10 16 -1.5214 0.0907
14 11 1 -0.2522 -0.4389
14 11 3 -2.5186 -0.2560
14 11 5 0.0574 -0.0877
14 11 7 -4.1837 -0.1004
14 11 9 3.8063 -0.1904
14 11 11 5.4321 -0.3322
14 11 13 -0.8012 -0.2039
14 11 15 1.3534 -0.0945
14 12 0 -1.6867 -0.5483
14 12 2 1.2689 -0.3686
14 12 4 -1.7173 0.0422
14 12 6 -3.3652 0.0569
14 12 8 -4.3187 0.1775
14 12 10 -1.7966 0.3711
14 12 12 -3.9561 0.3171
14 12 14 -1.1615 0.4558
14 13 1 0.7434 0.0388
14 13 3 3.2932 -0.0451
14 13 5 -1.3301 -0.3941
14 13 7 0.0460 -0.4721
14 13 9 -5.0045 -0.3071
14 13 11 -5.7420 0.2891
14 13 13 0.8353 0.1925
14 14 0 0.2318 0.3532
14 14 2 -4.3000 0.6310
14 14 4 -2.2154 0.4036
14 14 6 1.9524 0.3243
14 14 8 3.9651 0.0706
14 14 10 3.5608 -0.1202
14 15 1 -0.9134 0.4036
14 15 3 -4.1771 0.1481
14 15 5 1.8225 0.4500
14 15 7 2.2660 0.5662
14 15 9 5.1071 0.4988
14 16 0 -0.1181 -0.4070
14 16 2 4.0772 -0.6415
14 16 4 5.4594 -0.4296
14 16 6 0.1336 -0.2779
14 17 1 -0.0594 -0.3036
14 17 3 3.4661 0.1025
15 1 2 2.4332 0.3196
15 1 4 1.4542 0.7439
15 1 6 -6.9878 0.6087
15 1 8 1.7793 0.6606
15 1 10 3.3791 0.4848
15 1 12 1.4772 0.1430
15 1 14 6.1568 -0.1551
15 1 16 6.5114 -0.1979
15 2 1 2.5712 0.0138
15 2 3 1.1729 0.0610
15 2 5 3.8398 0.0473
15 2 7 4.6627 0.0491
15 2 9 -0.0390 0.0286
15 2 11 2.0355 -0.1518
15 2 13 1.2051 -0.1498
15 2 15 3.2921 0.0531
15 2 17 -5.0394 0.2540
15 3 2 1.0098 -0.6909
15 3 4 0.1785 -0.3874
15 3 6 6.2786 0.0378
15 3 8 -3.8213 0.3562
15 3 10 -2.2905 0.2691
15 3 12 0.5339 0.2696
15 3 14 -0.7954 -0.2188
15 3 16 -4.1931 -0.4742
15 4 1 -3.3447 0.1154
15 4 3 -0.0367 0.3047
15 4 5 -2.9350 0.2773
15 4 7 -3.7959 0.0769
15 4 9 2.4463 -0.2208
15 4 11 -3.8576 -0.2891
15 4 13 -1.9308 -0.3499
15 4 15 -3.6817 -0.3113
15 4 17 8.8160 -0.0416
15 5 2 -3.7131 -0.5404
15 5 4 -0.7338 -0.3372
15 5 6 -5.6538 -0.0521
15 5 8 3.8822 -0.1871
15 5 10 -1.5885 -0.1091
15 5 12 -3.3301 -0.2121
15 5 14 -5.2448 0.2524
15 5 16 1.2228 0.3043
15 6 1 2.4600 0.0361
15 6 3 -1.3227 -0.2060
15 6 5 0.4947 -0.2485
15 6 7 0.0159 -0.1797
15 6 9 -6.4174 0.0337
15 6 11 4.1325 0.0934
15 6 13 1.5755 0.1788
15 6 15 2.1204 0.0894
15 7 2 3.1548 0.8746
15 7 4 -0.9211 0.5126
15 7 6 4.6640 -0.0185
15 7 8 -1.6769 -0.0712
15 7 10 6.1927 0.0198
15 7 12 4.9105 0.1896
15 7 14 8.3234 -0.0561
15 8 1 -2.6185 -0.1764
15 8 3 -0.4401 -0.0579
15 8 5 -1.4875 -0.0152
15 8 7 1.0626 0.1536
15 8 9 8.8167 0.2601
15 8 11 -2.7055 0.4173
15 8 13 -0.3353 0.3362
15 9 2 -0.7307 0.2729
15 9 4 2.8114 0.0409
15 9 6 -2.4892 -0.1062
15 9 8 0.7626 -0.1760
15 9 10 -7.0851 -0.4099
15 9 12 -3.9189 -0.3666
15 9 14 -7.9604 -0.1737
15 10 1 5.9684 0.0847
15 10 3 4.3751 0.0422
15 10 5 3.8958 0.1237
15 10 7 0.3612 -0.0170
15 10 9 -7.9778 -0.1583
15 10 11 1.6208 -0.4075
15 10 13 -0.5860 -0.4257
15 11 2 -1.4866 -0.9957
15 11 4 -2.8202 -0.6149
15 11 6 0.3121 -0.0504
15 11 8 -1.5649 0.0886
15 11 10 4.2537 0.3961
15 11 12 1.1330 0.2553
15 12 1 -10.1944 -0.0325
15 12 3 -6.2897 0.0502
15 12 5 -2.8395 -0.0597
15 12 7 -0.3333 -0.0473
15 12 9 5.4579 -0.1410
15 13 2 2.8069 0.6675
15 13 4 1.0504 0.7871
15 13 6 0.1209 0.4588
15 13 8 1.3820 0.3884
15 14 1 10.6192 0.2288
15 14 3 4.5173 0.0845
15 14 5 -0.8400 0.0245
16 0 0 -1.5737 -1.6875
16 0 2 0.7126 -3.1194
16 0 4 9.0126 -2.2638
16 0 6 2.4629 -1.4256
16 0 8 0.5033 0.2413
16 0 10 4.7511 1.7447
16 0 12 2.4711 2.6293
16 0 14 -5.3469 2.8237
16 1 1 -0.8044 0.3140
16 1 3 -2.7684 0.3019
16 1 5 -4.2618 0.1044
16 1 7 -1.1984 0.1491
16 1 9 -4.0661 0.1146
16 1 11 -4.3238 -0.0046
16 1 13 -6.2895 -0.0645
16 2 0 0.7026 1.0608
16 2 2 -0.5986 1.2873
16 2 4 -7.7258 0.4727
16 2 6 -1.8940 0.3495
16 2 8 -0.8127 0.0198
16 2 10 -4.6766 -0.0724
16 2 12 -2.7293 -0.0202
16 2 14 4.7623 -0.0423
16 3 1 0.8566 0.3037
16 3 3 4.1126 0.2183
16 3 5 8.1988 0.3051
16 3 7 1.2575 0.2459
16 3 9 9.4450 0.1770
16 3 11 8.6966 0.1852
16 3 13 12.0155 0.1273
16 4 0 1.8751 0.0978
16 4 2 0.8441 -0.0660
16 4 4 4.5580 0.2279
16 4 6 0.2874 0.0696
16 4 8 1.0281 -0.1186
16 4 10 4.0085 -0.6192
16 4 12 2.9509 -1.1716
16 5 1 0.9607 -0.4582
16 5 3 0.5891 -0.3750
16 5 5 -4.1614 -0.3902
16 5 7 3.5442 -0.3671
16 5 9 -8.2963 -0.2569
16 5 11 -5.5176 -0.2171
16 5 13 -6.6719 -0.1476
16 6 0 -4.4833 -0.5519
16 6 2 -1.7099 -0.1270
16 6 4 -1.3154 0.0583
16 6 6 1.2170 0.1106
16 6 8 -0.5031 -0.0042
16 6 10 -2.3203 0.0774
16 6 12 -2.2421 0.5417
16 7 1 -1.6988 -0.0061
16 7 3 -4.6297 0.0308
16 7 5 -1.8563 0.1070
16 7 7 -10.0059 0.2075
16 7 9 2.4200 0.1405
16 7 11 0.2626 0.1315
16 8 0 4.0517 0.0470
16 8 2 2.1671 0.1281
16 8 4 -0.1730 0.0928
16 8 6 -0.7762 0.0302
16 8 8 -0.1243 0.1446
16 8 10 0.1018 0.3404
16 9 1 0.3899 0.1895
16 9 3 4.0734 0.1304
16 9 5 3.1528 0.0901
16 9 7 11.2229 -0.0138
16 9 9 1.3348 0.0523
16 10 0 -0.6890 0.5979
16 10 2 -1.9223 0.0482
16 10 4 -0.3343 -0.3914
16 10 6 -1.2314 -0.3095
16 10 8 0.4945 -0.1746
16 11 1 0.7180 0.1003
16 11 3 -2.3718 0.0437
16 11 5 -0.3221 -0.0159
16 12 0 -1.7628 -0.7171
16 12 2 1.8973 -0.5228
17 1 2 0.3245 -0.0880
17 1 4 -1.0345 0.1837
17 1 6 -8.3682 0.1244
17 1 8 5.7470 -0.0180
17 2 1 -3.3532 0.2474
17 2 3 -3.2974 -0.0125
17 2 5 1.0789 -0.1517
17 2 7 -0.7119 -0.0382
17 2 9 -3.7154 0.0171
17 3 2 0.8013 0.0633
17 3 4 1.7128 0.1746
17 3 6 9.4765 0.2471
17 3 8 -1.3935 0.6704
17 4 1 4.2264 -0.5621
17 4 3 5.1335 -0.5328
17 4 5 -0.7042 -0.3471
17 4 7 2.0525 -0.2124
17 5 2 -4.1335 -0.6145
17 5 4 -4.0767 -0.4779
17 5 6 -9.7506 -0.0660
17 6 1 -1.5270 0.3069
17 6 3 -3.5284 0.1698
17 6 5 0.5177 0.0593
17 7 2 6.4162 0.5931
17 7 4 5.2390 0.4764
17 8 1 -2.7055 0.0091
0 0 0 0.0 0.0
;
_shelx_fab_checksum              6292
_olex2_submission_special_instructions 'No special instructions were received'
loop_
_space_group_symop_operation_xyz
'x, y, z'
'-x+1/2, -y, z+1/2'
'-x, y+1/2, -z+1/2'
'x+1/2, -y+1/2, -z'
'x+1/2, y+1/2, z+1/2'
'-x+1, -y+1/2, z+1'
'-x+1/2, y+1, -z+1'
'x+1, -y+1, -z+1/2'
'-x, -y, -z'
'x-1/2, y, -z-1/2'
'x, -y-1/2, z-1/2'
'-x-1/2, y-1/2, z'
'-x+1/2, -y+1/2, -z+1/2'
'x, y+1/2, -z'
'x+1/2, -y, z'
'-x, y, z+1/2'
loop_
_atom_site_label
_atom_site_type_symbol
_atom_site_fract_x
_atom_site_fract_y
_atom_site_fract_z
_atom_site_U_iso_or_equiv
_atom_site_adp_type
_atom_site_occupancy
_atom_site_site_symmetry_order
_atom_site_calc_flag
_atom_site_refinement_flags_posn
_atom_site_refinement_flags_adp
_atom_site_refinement_flags_occupancy
_atom_site_disorder_assembly
_atom_site_disorder_group
Co01 Co 0.93701(5) 0.49282(3) 0.53278(3) 0.0186(3) Uani 1 1 d . . . . .
O4 O 0.6300(3) 0.04200(18) 0.48726(16) 0.0267(10) Uani 1 1 d . . . A -2
O2 O 1.0040(3) 0.4382(2) 0.43947(16) 0.0316(11) Uani 1 1 d . . . . .
O1 O 0.9017(3) 0.42517(18) 0.49504(16) 0.0284(10) Uani 1 1 d . . . . .
O3 O 0.5264(3) 0.0551(2) 0.43191(17) 0.0380(12) Uani 1 1 d . . . . .
O5 O 0.8182(4) 0.2228(2) 0.35885(19) 0.0552(15) Uani 1 1 d . . . . .
C00A C 0.9406(4) 0.4115(3) 0.4571(2) 0.0217(12) Uani 1 1 d . . . . .
C00B C 0.6008(5) 0.0652(3) 0.4500(2) 0.0263(13) Uani 1 1 d . . . . .
C00E C 0.9085(3) 0.36171(16) 0.43179(14) 0.0258(13) Uani 1 1 d G . . . .
C00F C 0.8403(3) 0.33076(18) 0.45105(14) 0.0370(17) Uani 1 1 d G . . . .
H00F H 0.814865 0.341671 0.480315 0.044 Uiso 1 1 calc R U . . .
C2 C 0.8093(3) 0.28386(18) 0.42749(17) 0.045(2) Uani 1 1 d G . . . .
H2 H 0.762673 0.262711 0.440657 0.054 Uiso 1 1 calc R U . . .
C00G C 0.8465(3) 0.26790(17) 0.38467(16) 0.0390(18) Uani 1 1 d G . . . .
C3 C 0.9146(4) 0.2988(2) 0.36541(14) 0.055(3) Uani 1 1 d G . . . .
H3 H 0.940051 0.287941 0.336146 0.066 Uiso 1 1 calc R U . . .
C1 C 0.9456(3) 0.34575(19) 0.38897(16) 0.045(2) Uani 1 1 d G . . . .
H1 H 0.992244 0.366902 0.375805 0.054 Uiso 1 1 calc R U . . .
C00L C 0.7647(3) 0.1847(2) 0.38129(17) 0.0448(17) Uani 1 1 d G . . . .
C00I C 0.7992(2) 0.1495(2) 0.41566(18) 0.0423(17) Uani 1 1 d G . . . .
H00I H 0.859294 0.152141 0.424045 0.051 Uiso 1 1 calc R U . . .
C00D C 0.7458(3) 0.11045(18) 0.43776(15) 0.0332(15) Uani 1 1 d G . . . .
H00D H 0.769406 0.086408 0.461256 0.040 Uiso 1 1 calc R U . . .
C00C C 0.6579(3) 0.10659(19) 0.42550(16) 0.0314(14) Uani 1 1 d G . . . .
C4 C 0.6235(3) 0.1418(3) 0.3911(2) 0.074(3) Uani 1 1 d G . . . .
H4 H 0.563388 0.139130 0.382739 0.088 Uiso 1 1 calc R U . . .
C00P C 0.6768(4) 0.1808(2) 0.36902(19) 0.081(3) Uani 1 1 d G . . . .
H00P H 0.653276 0.204863 0.345526 0.098 Uiso 1 1 calc R U . . .
O6 O 0.2507(9) 0.3248(7) 0.7895(4) 0.081(5) Uani 0.5 1 d . . P B -2
C00V C 0.6086(9) 0.4665(6) 0.7991(4) 0.025(3) Uani 0.5 1 d . . P B -2
H00V H 0.584283 0.462896 0.829897 0.030 Uiso 0.5 1 d R U P B -2
C00O C 0.6839(11) 0.4778(8) 0.7122(6) 0.032(3) Uani 0.5 1 d . . P B -2
C00W C 0.4790(5) 0.4133(4) 0.7667(3) 0.029(3) Uani 0.5 1 d G . P B -2
C00Z C 0.4487(6) 0.4010(4) 0.8119(3) 0.040(3) Uani 0.5 1 d G . P B -2
H00Z H 0.480367 0.413424 0.838822 0.048 Uiso 0.5 1 calc R U P B -2
C011 C 0.3720(6) 0.3706(4) 0.8176(3) 0.040(3) Uani 0.5 1 d G . P B -2
H011 H 0.351285 0.362174 0.848526 0.049 Uiso 0.5 1 calc R U P B -2
C00R C 0.3257(6) 0.3524(4) 0.7782(3) 0.041(3) Uani 0.5 1 d G . P B -2
C012 C 0.3560(7) 0.3647(5) 0.7330(3) 0.074(7) Uani 0.5 1 d G . P B -2
H012 H 0.324339 0.352291 0.706029 0.088 Uiso 0.5 1 calc R U P B -2
C010 C 0.4327(6) 0.3951(5) 0.7272(2) 0.044(4) Uani 0.5 1 d G . P B -2
H010 H 0.453421 0.403541 0.696324 0.053 Uiso 0.5 1 calc R U P B -2
C00X C 0.5632(9) 0.4444(6) 0.7597(4) 0.025(3) Uani 0.5 1 d . . P B -2
C00Y C 0.6039(8) 0.4529(5) 0.7157(4) 0.022(2) Uani 0.5 1 d . . P B -2
H00Y H 0.575052 0.441064 0.687706 0.027 Uiso 0.5 1 calc R U P B -2
C8 C 0.6882(9) 0.5066(8) 0.7069(5) 0.026(3) Uani 0.5 1 d . . P B -2
N1A N 0.8550(9) 0.4789(2) 0.5890(6) 0.020(2) Uani 0.5 1 d . . P B 2
C6 C 0.7664(8) 0.47601(19) 0.5830(5) 0.010(2) Uani 0.5 1 d . U P B 2
H6 H 0.742985 0.470831 0.552154 0.012 Uiso 0.5 1 calc R U P B 2
C00K C 0.7102(9) 0.4805(2) 0.6212(4) 0.010(2) Uani 0.5 1 d . U P B 2
H00K H 0.649028 0.478222 0.615410 0.012 Uiso 0.5 1 calc R U P B 2
C7 C 0.7387(17) 0.4883(4) 0.6688(9) 0.027(7) Uani 0.5 1 d . . P B 2
C5 C 0.8347(9) 0.4908(4) 0.6708(5) 0.035(4) Uani 0.5 1 d . . P B 2
H5 H 0.862255 0.495917 0.700614 0.043 Uiso 0.5 1 calc R U P B 2
C0 C 0.8858(9) 0.4860(3) 0.6314(5) 0.033(4) Uani 0.5 1 d . . P B 2
H0 H 0.947502 0.488009 0.635231 0.039 Uiso 0.5 1 calc R U P B 2
N2 N 0.7262(5) 0.500000 0.750000 0.0276(17) Uani 1 2 d S T P . .
N1B N 0.8432(7) 0.4926(3) 0.5866(5) 0.016(2) Uani 0.5 1 d . . P B 3
C6A C 0.7698(6) 0.4630(3) 0.5870(4) 0.021(3) Uani 0.5 1 d . U P B 3
H6A H 0.754982 0.442867 0.559140 0.025 Uiso 0.5 1 calc R U P B 3
C9 C 0.7133(7) 0.4594(3) 0.6253(4) 0.027(3) Uani 0.5 1 d . . P B 3
H9 H 0.661126 0.437872 0.624522 0.033 Uiso 0.5 1 calc R U P B 3
C7A C 0.7380(16) 0.4890(6) 0.6637(9) 0.026(6) Uani 0.5 1 d . . P B 3
C5A C 0.8086(9) 0.5192(5) 0.6667(5) 0.031(4) Uani 0.5 1 d . . P B 3
H5A H 0.822611 0.539079 0.694754 0.037 Uiso 0.5 1 calc R U P B 3
C0A C 0.8618(9) 0.5211(5) 0.6278(5) 0.038(4) Uani 0.5 1 d . . P B 3
H0A H 0.913611 0.542865 0.629277 0.046 Uiso 0.5 1 calc R U P B 3
C10 C 0.1963(15) 0.3046(13) 0.7500(7) 0.115(11) Uani 0.5 1 d . . P B -2
H10A H 0.177111 0.336283 0.730704 0.173 Uiso 0.5 1 calc R U P B -2
H10B H 0.144945 0.285072 0.762599 0.173 Uiso 0.5 1 calc R U P B -2
H10C H 0.230526 0.278875 0.730365 0.173 Uiso 0.5 1 calc R U P B -2
loop_
_atom_site_aniso_label
_atom_site_aniso_U_11
_atom_site_aniso_U_22
_atom_site_aniso_U_33
_atom_site_aniso_U_23
_atom_site_aniso_U_13
_atom_site_aniso_U_12
Co01 0.0139(4) 0.0238(5) 0.0180(5) 0.0006(4) 0.0029(4) -0.0012(4)
O4 0.029(2) 0.025(2) 0.026(2) -0.0028(16) 0.0048(17) -0.007(2)
O2 0.030(2) 0.037(3) 0.028(2) -0.005(2) 0.0017(18) -0.0143(19)
O1 0.036(2) 0.020(2) 0.029(2) 0.0005(16) 0.0040(17) -0.0038(19)
O3 0.033(2) 0.049(3) 0.032(3) 0.007(2) 0.0018(18) -0.013(2)
O5 0.093(4) 0.041(3) 0.032(3) -0.0041(18) 0.014(3) -0.039(3)
C00A 0.020(2) 0.021(2) 0.023(2) 0.0038(17) -0.0045(18) -0.0002(18)
C00B 0.031(2) 0.025(3) 0.023(3) -0.005(2) 0.0071(18) -0.004(2)
C00E 0.034(3) 0.022(2) 0.021(2) 0.0041(18) -0.002(2) -0.007(2)
C00F 0.044(3) 0.026(3) 0.042(4) -0.005(2) 0.014(3) -0.012(3)
C2 0.062(5) 0.030(3) 0.042(3) -0.004(3) 0.018(3) -0.023(3)
C00G 0.059(4) 0.026(3) 0.032(3) 0.001(2) 0.006(3) -0.017(3)
C3 0.085(5) 0.053(4) 0.028(4) -0.013(3) 0.019(3) -0.041(4)
C1 0.063(4) 0.041(3) 0.030(3) -0.009(3) 0.015(3) -0.027(3)
C00L 0.071(3) 0.030(3) 0.033(4) -0.003(2) 0.007(3) -0.025(3)
C00I 0.051(3) 0.033(3) 0.043(4) 0.001(3) 0.018(3) -0.015(3)
C00D 0.038(2) 0.022(3) 0.040(4) 0.000(2) 0.011(2) -0.007(2)
C00C 0.043(2) 0.034(3) 0.018(3) -0.005(2) 0.006(2) -0.014(2)
C4 0.070(4) 0.085(6) 0.067(6) 0.045(5) -0.029(4) -0.042(4)
C00P 0.086(4) 0.096(7) 0.062(6) 0.047(5) -0.022(4) -0.049(4)
O6 0.079(6) 0.124(11) 0.040(5) -0.014(6) 0.016(5) -0.071(7)
C00V 0.033(6) 0.031(7) 0.011(4) 0.009(4) 0.000(4) -0.005(5)
C00O 0.026(4) 0.057(8) 0.014(4) 0.002(4) -0.002(3) -0.005(5)
C00W 0.028(4) 0.030(6) 0.027(4) 0.000(4) 0.002(3) 0.000(4)
C00Z 0.042(5) 0.049(8) 0.028(4) 0.000(4) 0.005(3) -0.016(5)
C011 0.042(5) 0.045(8) 0.035(4) -0.011(5) 0.013(4) -0.014(5)
C00R 0.047(5) 0.037(8) 0.038(4) -0.012(5) 0.014(4) -0.019(5)
C012 0.072(8) 0.114(15) 0.034(4) -0.013(5) 0.009(4) -0.062(10)
C010 0.046(6) 0.060(9) 0.028(4) -0.001(5) 0.002(4) -0.024(6)
C00X 0.027(4) 0.033(6) 0.015(4) 0.003(3) 0.000(3) 0.002(4)
C00Y 0.022(4) 0.031(6) 0.014(4) 0.002(4) -0.003(3) 0.005(4)
C8 0.010(6) 0.057(8) 0.012(3) 0.001(4) 0.002(3) -0.003(4)
N1A 0.009(2) 0.029(7) 0.021(3) 0.006(3) -0.0020(18) 0.000(2)
C6 0.010(2) 0.010(2) 0.010(2) 0.0000(10) -0.0001(9) 0.0004(10)
C00K 0.010(2) 0.010(2) 0.010(2) 0.0001(10) -0.0001(10) 0.0003(10)
C7 0.012(4) 0.058(19) 0.012(3) -0.008(4) -0.003(2) 0.009(5)
C5 0.012(4) 0.074(13) 0.021(3) 0.002(5) -0.005(3) 0.007(5)
C0 0.010(4) 0.065(11) 0.023(3) 0.000(4) -0.004(2) 0.002(5)
N2 0.017(3) 0.053(5) 0.013(3) 0.002(3) 0.000 0.000
N1B 0.019(3) 0.015(4) 0.016(4) 0.006(3) -0.004(3) 0.003(3)
C6A 0.021(3) 0.021(3) 0.020(3) 0.0001(10) 0.0000(10) 0.0000(10)
C9 0.025(4) 0.034(7) 0.023(4) -0.001(4) 0.004(3) -0.005(5)
C7A 0.026(6) 0.032(13) 0.021(4) 0.000(5) 0.004(4) -0.002(7)
C5A 0.031(6) 0.039(8) 0.021(4) -0.005(5) 0.005(4) -0.008(5)
C0A 0.034(6) 0.057(9) 0.023(4) -0.013(4) 0.007(4) -0.021(6)
C10 0.100(13) 0.21(3) 0.035(7) -0.015(12) 0.022(8) -0.120(17)
loop_
_atom_type_symbol
_atom_type_description
_atom_type_scat_dispersion_real
_atom_type_scat_dispersion_imag
_atom_type_scat_source
C C 0.0033 0.0016 'International Tables Vol C Tables 4.2.6.8 and 6.1.1.4'
Co Co 0.3494 0.9721 'International Tables Vol C Tables 4.2.6.8 and 6.1.1.4'
H H 0.0000 0.0000 'International Tables Vol C Tables 4.2.6.8 and 6.1.1.4'
N N 0.0061 0.0033 'International Tables Vol C Tables 4.2.6.8 and 6.1.1.4'
O O 0.0106 0.0060 'International Tables Vol C Tables 4.2.6.8 and 6.1.1.4'
loop_
_geom_angle_atom_site_label_1
_geom_angle_atom_site_label_2
_geom_angle_atom_site_label_3
_geom_angle
_geom_angle_site_symmetry_1
_geom_angle_site_symmetry_3
_geom_angle_publ_flag
O2 Co01 Co01 81.06(13) 9_766 9_766 ?
O2 Co01 O3 88.5(2) 9_766 4_556 ?
O2 Co01 N1A 96.0(3) 9_766 . ?
O2 Co01 N1B 91.5(3) 9_766 . ?
O1 Co01 Co01 86.03(14) . 9_766 ?
O1 Co01 O2 166.99(19) . 9_766 ?
O1 Co01 O3 89.1(2) . 4_556 ?
O1 Co01 N1A 96.6(3) . . ?
O1 Co01 N1B 101.5(3) . . ?
O3 Co01 Co01 85.98(15) 4_556 9_766 ?
O3 Co01 N1A 86.5(4) 4_556 . ?
O3 Co01 N1B 95.9(3) 4_556 . ?
C00A O2 Co01 126.8(4) . 9_766 ?
C00A O1 Co01 122.0(4) . . ?
C00B O3 Co01 120.6(4) . 4_456 ?
C00G O5 C00L 117.6(5) . . ?
O2 C00A O1 124.0(6) . . ?
O2 C00A C00E 118.4(5) . . ?
O1 C00A C00E 117.5(5) . . ?
O4 C00B C00C 118.0(6) . . ?
O3 C00B O4 124.3(6) . . ?
O3 C00B C00C 117.6(6) . . ?
C00F C00E C00A 119.5(4) . . ?
C00F C00E C1 120.0 . . ?
C1 C00E C00A 120.5(4) . . ?
C00E C00F H00F 120.0 . . ?
C2 C00F C00E 120.0 . . ?
C2 C00F H00F 120.0 . . ?
C00F C2 H2 120.0 . . ?
C00F C2 C00G 120.0 . . ?
C00G C2 H2 120.0 . . ?
O5 C00G C2 123.4(4) . . ?
O5 C00G C3 116.6(4) . . ?
C3 C00G C2 120.0 . . ?
C00G C3 H3 120.0 . . ?
C00G C3 C1 120.0 . . ?
C1 C3 H3 120.0 . . ?
C00E C1 H1 120.0 . . ?
C3 C1 C00E 120.0 . . ?
C3 C1 H1 120.0 . . ?
O5 C00L C00I 119.9(4) . . ?
O5 C00L C00P 120.1(4) . . ?
C00I C00L C00P 120.0 . . ?
C00L C00I H00I 120.0 . . ?
C00D C00I C00L 120.0 . . ?
C00D C00I H00I 120.0 . . ?
C00I C00D H00D 120.0 . . ?
C00I C00D C00C 120.0 . . ?
C00C C00D H00D 120.0 . . ?
C00D C00C C00B 119.6(4) . . ?
C4 C00C C00B 120.4(4) . . ?
C4 C00C C00D 120.0 . . ?
C00C C4 H4 120.0 . . ?
C00P C4 C00C 120.0 . . ?
C00P C4 H4 120.0 . . ?
C00L C00P H00P 120.0 . . ?
C4 C00P C00L 120.0 . . ?
C4 C00P H00P 120.0 . . ?
C00R O6 C10 117.3(11) . . ?
C00X C00V H00V 119.7 . . ?
C00Y C00O C7 129.1(15) . . ?
N2 C00O C00Y 122.8(14) 8_456 . ?
N2 C00O C00Y 122.8(14) . . ?
N2 C00O C7 108.1(15) . . ?
N2 C00O C7 108.1(15) 8_456 . ?
N2 C00O N2 0.000(1) . 8_456 ?
C00Z C00W C010 120.0 . . ?
C00Z C00W C00X 120.8(7) . . ?
C010 C00W C00X 119.2(7) . . ?
C00W C00Z H00Z 120.0 . . ?
C00W C00Z C011 120.0 . . ?
C011 C00Z H00Z 120.0 . . ?
C00Z C011 H011 120.0 . . ?
C00R C011 C00Z 120.0 . . ?
C00R C011 H011 120.0 . . ?
O6 C00R C011 113.2(8) . . ?
O6 C00R C012 126.8(8) . . ?
C011 C00R C012 120.0 . . ?
C00R C012 H012 120.0 . . ?
C010 C012 C00R 120.0 . . ?
C010 C012 H012 120.0 . . ?
C00W C010 H010 120.0 . . ?
C012 C010 C00W 120.0 . . ?
C012 C010 H010 120.0 . . ?
C00V C00X C00W 120.2(10) . . ?
C00Y C00X C00V 115.0(12) . . ?
C00Y C00X C00W 124.7(11) . . ?
C00O C00Y C00X 121.7(13) . . ?
C00O C00Y H00Y 119.1 . . ?
C00X C00Y H00Y 119.1 . . ?
C00V C8 C7 122.6(14) 8_456 . ?
N2 C8 C00V 122.5(13) . 8_456 ?
N2 C8 C7 114.7(14) . . ?
C6 N1A Co01 121.2(11) . . ?
C0 N1A Co01 118.1(10) . . ?
C0 N1A C6 118.7(13) . . ?
N1A C6 H6 119.5 . . ?
N1A C6 C00K 121.0(12) . . ?
C00K C6 H6 119.5 . . ?
C6 C00K H00K 118.1 . . ?
C6 C00K C7 123.8(15) . . ?
C7 C00K H00K 118.1 . . ?
C8 C7 C00O 28.1(10) . . ?
C8 C7 C00K 126.8(19) . . ?
C8 C7 C5 120.7(18) . . ?
C00K C7 C00O 125.2(19) . . ?
C00K C7 C5 110(2) . . ?
C5 C7 C00O 122.0(17) . . ?
C7 C5 H5 118.8 . . ?
C0 C5 C7 122.5(16) . . ?
C0 C5 H5 118.8 . . ?
N1A C0 C5 123.8(13) . . ?
N1A C0 H0 118.1 . . ?
C5 C0 H0 118.1 . . ?
C00O N2 C8 117.1(8) 8_456 . ?
C00O N2 C8 30.4(8) . . ?
N2 N2 C00O 0(10) 8_456 . ?
N2 N2 C00O 0(10) 8_456 8_456 ?
N2 N2 C8 0(10) 8_456 . ?
C6A N1B Co01 125.9(9) . . ?
C6A N1B C0A 115.6(12) . . ?
C0A N1B Co01 118.2(9) . . ?
N1B C6A H6A 117.8 . . ?
N1B C6A C9 124.4(11) . . ?
C9 C6A H6A 117.8 . . ?
C6A C9 H9 122.6 . . ?
C7A C9 C6A 114.9(14) . . ?
C7A C9 H9 122.6 . . ?
C5A C7A C9 125(2) . . ?
C7A C5A H5A 121.3 . . ?
C7A C5A C0A 117.3(17) . . ?
C0A C5A H5A 121.3 . . ?
N1B C0A H0A 118.7 . . ?
C5A C0A N1B 122.7(13) . . ?
C5A C0A H0A 118.7 . . ?
O6 C10 H10A 109.5 . . ?
O6 C10 H10B 109.5 . . ?
O6 C10 H10C 109.5 . . ?
H10A C10 H10B 109.5 . . ?
H10A C10 H10C 109.5 . . ?
H10B C10 H10C 109.5 . . ?
loop_
_geom_bond_atom_site_label_1
_geom_bond_atom_site_label_2
_geom_bond_distance
_geom_bond_site_symmetry_2
_geom_bond_publ_flag
Co01 Co01 2.6933(16) 9_766 ?
Co01 O2 2.040(4) 9_766 ?
Co01 O1 2.015(4) . ?
Co01 O3 2.045(5) 4_556 ?
Co01 N1A 2.050(14) . ?
Co01 N1B 2.089(13) . ?
O4 C00B 1.271(8) . ?
O2 C00A 1.263(8) . ?
O1 C00A 1.270(8) . ?
O3 C00B 1.269(8) . ?
O5 C00G 1.374(6) . ?
O5 C00L 1.380(6) . ?
C00A C00E 1.474(7) . ?
C00B C00C 1.492(7) . ?
C00E C00F 1.3900 . ?
C00E C1 1.3900 . ?
C00F H00F 0.9500 . ?
C00F C2 1.3900 . ?
C2 H2 0.9500 . ?
C2 C00G 1.3900 . ?
C00G C3 1.3900 . ?
C3 H3 0.9500 . ?
C3 C1 1.3900 . ?
C1 H1 0.9500 . ?
C00L C00I 1.3900 . ?
C00L C00P 1.3900 . ?
C00I H00I 0.9500 . ?
C00I C00D 1.3900 . ?
C00D H00D 0.9500 . ?
C00D C00C 1.3900 . ?
C00C C4 1.3900 . ?
C4 H4 0.9500 . ?
C4 C00P 1.3900 . ?
C00P H00P 0.9500 . ?
O6 C00R 1.361(13) . ?
O6 C10 1.47(2) . ?
C00V H00V 0.9501 . ?
C00V C00X 1.415(18) . ?
C00O C00Y 1.36(2) . ?
C00O C7 1.51(3) . ?
C00O N2 1.356(17) . ?
C00O N2 1.356(17) 8_456 ?
C00W C00Z 1.3900 . ?
C00W C010 1.3900 . ?
C00W C00X 1.499(15) . ?
C00Z H00Z 0.9500 . ?
C00Z C011 1.3900 . ?
C011 H011 0.9500 . ?
C011 C00R 1.3900 . ?
C00R C012 1.3900 . ?
C012 H012 0.9500 . ?
C012 C010 1.3900 . ?
C010 H010 0.9500 . ?
C00X C00Y 1.404(17) . ?
C00Y H00Y 0.9500 . ?
C8 C7 1.40(3) . ?
C8 N2 1.360(15) . ?
N1A C6 1.367(18) . ?
N1A C0 1.30(2) . ?
C6 H6 0.9500 . ?
C6 C00K 1.383(18) . ?
C00K H00K 0.9500 . ?
C00K C7 1.42(3) . ?
C7 C5 1.47(3) . ?
C5 H5 0.9500 . ?
C5 C0 1.36(2) . ?
C0 H0 0.9500 . ?
N2 N2 0.00000(5) 8_456 ?
N1B C6A 1.328(13) . ?
N1B C0A 1.379(18) . ?
C6A H6A 0.9500 . ?
C6A C9 1.387(17) . ?
C9 H9 0.9500 . ?
C9 C7A 1.35(3) . ?
C7A C5A 1.30(3) . ?
C5A H5A 0.9500 . ?
C5A C0A 1.366(19) . ?
C0A H0A 0.9500 . ?
C10 H10A 0.9800 . ?
C10 H10B 0.9800 . ?
C10 H10C 0.9800 . ?
loop_
_geom_torsion_atom_site_label_1
_geom_torsion_atom_site_label_2
_geom_torsion_atom_site_label_3
_geom_torsion_atom_site_label_4
_geom_torsion
_geom_torsion_site_symmetry_1
_geom_torsion_site_symmetry_2
_geom_torsion_site_symmetry_3
_geom_torsion_site_symmetry_4
_geom_torsion_publ_flag
Co01 O2 C00A O1 2.3(9) 9_766 . . . ?
Co01 O2 C00A C00E -178.7(4) 9_766 . . . ?
Co01 O1 C00A O2 0.0(9) . . . . ?
Co01 O1 C00A C00E -179.0(4) . . . . ?
Co01 O3 C00B O4 8.9(9) 4_456 . . . ?
Co01 O3 C00B C00C -171.9(4) 4_456 . . . ?
Co01 N1A C6 C00K -163.9(5) . . . . ?
Co01 N1A C0 C5 164.4(5) . . . . ?
Co01 N1B C6A C9 173.1(6) . . . . ?
Co01 N1B C0A C5A -173.7(6) . . . . ?
O4 C00B C00C C00D 12.8(8) . . . . ?
O4 C00B C00C C4 -166.1(5) . . . . ?
O2 C00A C00E C00F 178.4(5) . . . . ?
O2 C00A C00E C1 -1.8(7) . . . . ?
O1 C00A C00E C00F -2.6(7) . . . . ?
O1 C00A C00E C1 177.3(4) . . . . ?
O3 C00B C00C C00D -166.5(5) . . . . ?
O3 C00B C00C C4 14.6(8) . . . . ?
O5 C00G C3 C1 178.7(6) . . . . ?
O5 C00L C00I C00D -179.0(5) . . . . ?
O5 C00L C00P C4 179.0(5) . . . . ?
C00A C00E C00F C2 179.8(5) . . . . ?
C00A C00E C1 C3 -179.8(5) . . . . ?
C00B C00C C4 C00P 178.9(5) . . . . ?
C00E C00F C2 C00G 0.0 . . . . ?
C00F C00E C1 C3 0.0 . . . . ?
C00F C2 C00G O5 -178.6(6) . . . . ?
C00F C2 C00G C3 0.0 . . . . ?
C2 C00G C3 C1 0.0 . . . . ?
C00G O5 C00L C00I -71.5(7) . . . . ?
C00G O5 C00L C00P 109.5(6) . . . . ?
C00G C3 C1 C00E 0.0 . . . . ?
C1 C00E C00F C2 0.0 . . . . ?
C00L O5 C00G C2 -15.2(8) . . . . ?
C00L O5 C00G C3 166.2(5) . . . . ?
C00L C00I C00D C00C 0.0 . . . . ?
C00I C00L C00P C4 0.0 . . . . ?
C00I C00D C00C C00B -178.9(5) . . . . ?
C00I C00D C00C C4 0.0 . . . . ?
C00D C00C C4 C00P 0.0 . . . . ?
C00C C4 C00P C00L 0.0 . . . . ?
C00P C00L C00I C00D 0.0 . . . . ?
O6 C00R C012 C010 177.6(14) . . . . ?
C00V C00X C00Y C00O 4(2) . . . . ?
C00V C8 C7 C00O -115(3) 8_456 . . . ?
C00V C8 C7 C00K -17(2) 8_456 . . . ?
C00V C8 C7 C5 144.1(13) 8_456 . . . ?
C00V C8 N2 C00O -1.6(17) 8_456 . . 8_456 ?
C00V C8 N2 C00O 108(3) 8_456 . . . ?
C00V C8 N2 N2 0.0(7) 8_456 . . 8_456 ?
C00O C7 C5 C0 162.9(12) . . . . ?
C00W C00Z C011 C00R 0.0 . . . . ?
C00W C00X C00Y C00O -174.8(14) . . . . ?
C00Z C00W C010 C012 0.0 . . . . ?
C00Z C00W C00X C00V -6.3(16) . . . . ?
C00Z C00W C00X C00Y 172.2(11) . . . . ?
C00Z C011 C00R O6 -178.0(12) . . . . ?
C00Z C011 C00R C012 0.0 . . . . ?
C011 C00R C012 C010 0.0 . . . . ?
C00R C012 C010 C00W 0.0 . . . . ?
C010 C00W C00Z C011 0.0 . . . . ?
C010 C00W C00X C00V 175.8(10) . . . . ?
C010 C00W C00X C00Y -5.7(17) . . . . ?
C00X C00W C00Z C011 -177.9(11) . . . . ?
C00X C00W C010 C012 177.9(10) . . . . ?
C00Y C00O C7 C8 113(3) . . . . ?
C00Y C00O C7 C00K 9(2) . . . . ?
C00Y C00O C7 C5 -151.0(15) . . . . ?
C00Y C00O N2 C00O -30.2(12) . . . 8_456 ?
C00Y C00O N2 C8 -118(3) . . . . ?
C00Y C00O N2 N2 0.0(4) . . . 8_456 ?
C8 C7 C5 C0 -164.2(12) . . . . ?
N1A C6 C00K C7 0.00(3) . . . . ?
C6 N1A C0 C5 0.00(8) . . . . ?
C6 C00K C7 C00O -162.2(12) . . . . ?
C6 C00K C7 C8 163.0(14) . . . . ?
C6 C00K C7 C5 0.00(6) . . . . ?
C00K C7 C5 C0 0.00(8) . . . . ?
C7 C00O C00Y C00X 177.4(15) . . . . ?
C7 C00O N2 C00O 147.2(15) . . . 8_456 ?
C7 C00O N2 C8 59(2) . . . . ?
C7 C00O N2 N2 0.0(6) . . . 8_456 ?
C7 C8 N2 C00O -77(3) . . . . ?
C7 C8 N2 C00O 173.5(15) . . . 8_456 ?
C7 C8 N2 N2 0.0(5) . . . 8_456 ?
C7 C5 C0 N1A 0.00(10) . . . . ?
C0 N1A C6 C00K 0.00(3) . . . . ?
N2 C00O C00Y C00X -6(2) 8_456 . . . ?
N2 C00O C00Y C00X -6(2) . . . . ?
N2 C00O C7 C8 -64(2) 8_456 . . . ?
N2 C00O C7 C8 -64(2) . . . . ?
N2 C00O C7 C00K -168.1(8) . . . . ?
N2 C00O C7 C00K -168.1(8) 8_456 . . . ?
N2 C00O C7 C5 31.7(16) 8_456 . . . ?
N2 C00O C7 C5 31.7(16) . . . . ?
N2 C00O N2 C00O 0(100) 8_456 . . 8_456 ?
N2 C00O N2 C8 0(100) 8_456 . . . ?
N2 C8 C7 C00O 70(2) . . . . ?
N2 C8 C7 C00K 167.6(9) . . . . ?
N2 C8 C7 C5 -31.0(17) . . . . ?
N1B C6A C9 C7A 0.00(3) . . . . ?
C6A N1B C0A C5A 0.00(7) . . . . ?
C6A C9 C7A C5A 0.00(8) . . . . ?
C9 C7A C5A C0A 0.00(11) . . . . ?
C7A C5A C0A N1B 0.00(10) . . . . ?
C0A N1B C6A C9 0.00(3) . . . . ?
C10 O6 C00R C011 179.2(18) . . . . ?
C10 O6 C00R C012 1(3) . . . . ?
loop_
_smtbx_masks_void_nr
_smtbx_masks_void_average_x
_smtbx_masks_void_average_y
_smtbx_masks_void_average_z
_smtbx_masks_void_volume
_smtbx_masks_void_count_electrons
_smtbx_masks_void_content
1 0.000 0.250 0.081 189.9 24.5 '1 MeCN'
2 0.000 0.250 0.581 189.9 24.8 '1 MeCN'
3 0.000 0.750 0.419 189.9 25.1 '1 MeCN'
4 0.000 0.750 0.919 189.9 25.4 '1 MeCN'
5 0.500 0.250 -0.081 189.9 25.1 '1 MeCN'
6 0.500 0.250 0.419 189.9 25.4 '1 MeCN'
7 0.500 0.750 0.081 189.9 24.8 '1 MeCN'
8 0.500 0.750 0.581 189.9 24.5 '1 MeCN'
