#------------------------------------------------------------------------------
#$Date: 2020-03-05 02:13:51 +0200 (Thu, 05 Mar 2020) $
#$Revision: 248965 $
#$URL: file:///home/coder/svn-repositories/cod/cif/7/70/32/7703288.cif $
#------------------------------------------------------------------------------
#
# This file is available in the Crystallography Open Database (COD),
# http://www.crystallography.net/
#
# All data on this site have been placed in the public domain by the
# contributors.
#
data_7703288
loop_
_publ_author_name
'Zhang, Rui'
'Meng, De-Xian'
'Ge, Fa-Yuan'
'Huang, Jv-Hua'
'Wang, Li-Fei'
'Xv, Yong-Kai'
'Liu, Xing-Gui'
'Meng, Mei-Mei'
'Yan, Hong'
'Lu, Zhen-Zhong'
'Zheng, He-Gen'
'Huang, Wei'
_publ_section_title
;
 Tetrazole-based porous metal-organic frameworks for selective
 CO<sub>2</sub> adsorption and isomerization studies.
;
_journal_issue                   7
_journal_name_full
'Dalton transactions (Cambridge, England : 2003)'
_journal_page_first              2145
_journal_page_last               2150
_journal_paper_doi               10.1039/c9dt04068d
_journal_volume                  49
_journal_year                    2020
_chemical_formula_moiety         'C30 H18 Cu3 N36, 2[C3H7NO]'
_chemical_formula_sum            'C36 H32 Cu3 N38 O2'
_chemical_formula_weight         1219.54
_space_group_crystal_system      triclinic
_space_group_IT_number           2
_space_group_name_Hall           '-P 1'
_space_group_name_H-M_alt        'P -1'
_atom_sites_solution_hydrogens   geom
_audit_creation_date             2019-11-10
_audit_creation_method
;
Olex2 1.2
(compiled 2018.05.29 svn.r3508 for OlexSys, GUI svn.r5506)
;
_audit_update_record
;
2019-12-23 deposited with the CCDC.	2020-01-13 downloaded from the CCDC.
;
_cell_angle_alpha                61.304(3)
_cell_angle_beta                 86.912(3)
_cell_angle_gamma                88.272(4)
_cell_formula_units_Z            1
_cell_length_a                   9.2798(16)
_cell_length_b                   12.302(2)
_cell_length_c                   12.377(2)
_cell_measurement_reflns_used    1232
_cell_measurement_temperature    295(2)
_cell_measurement_theta_max      22.681
_cell_measurement_theta_min      2.826
_cell_volume                     1237.6(4)
_computing_cell_refinement       'SAINT v6.28A (Bruker, 2002)'
_computing_data_collection       'SMART (Bruker, 2000)'
_computing_data_reduction        'SAINT v6.28A (Bruker, 2002)'
_computing_molecular_graphics    'Olex2 (Dolomanov et al., 2009)'
_computing_publication_material  'Olex2 (Dolomanov et al., 2009)'
_computing_structure_refinement  'SHELXL-2018/3 (Sheldrick, 2018)'
_computing_structure_solution    'SHELXS-2018/3 (Sheldrick, 2018)'
_diffrn_ambient_temperature      295.15
_diffrn_measured_fraction_theta_full 0.978
_diffrn_measured_fraction_theta_max 0.889
_diffrn_measurement_device_type  'Bruker Smart Apex II CCD'
_diffrn_measurement_method       'phi and omega scans'
_diffrn_radiation_type           MoK\a
_diffrn_radiation_wavelength     0.71073
_diffrn_reflns_av_R_equivalents  0.0381
_diffrn_reflns_av_unetI/netI     0.1266
_diffrn_reflns_Laue_measured_fraction_full 0.978
_diffrn_reflns_Laue_measured_fraction_max 0.889
_diffrn_reflns_limit_h_max       12
_diffrn_reflns_limit_h_min       -7
_diffrn_reflns_limit_k_max       16
_diffrn_reflns_limit_k_min       -15
_diffrn_reflns_limit_l_max       16
_diffrn_reflns_limit_l_min       -15
_diffrn_reflns_number            7457
_diffrn_reflns_point_group_measured_fraction_full 0.978
_diffrn_reflns_point_group_measured_fraction_max 0.889
_diffrn_reflns_theta_full        25.242
_diffrn_reflns_theta_max         28.298
_diffrn_reflns_theta_min         1.878
_diffrn_source                   'sealed tube'
_exptl_absorpt_coefficient_mu    1.356
_exptl_absorpt_correction_T_max  0.871
_exptl_absorpt_correction_T_min  0.815
_exptl_absorpt_correction_type   multi-scan
_exptl_absorpt_process_details   'SADABS; Bruker, 2000'
_exptl_crystal_colour            BLUE
_exptl_crystal_density_diffrn    1.636
_exptl_crystal_description       BLOCK
_exptl_crystal_F_000             617
_exptl_crystal_size_max          0.15
_exptl_crystal_size_mid          0.15
_exptl_crystal_size_min          0.10
_refine_diff_density_max         0.727
_refine_diff_density_min         -0.390
_refine_diff_density_rms         0.089
_refine_ls_extinction_method     none
_refine_ls_goodness_of_fit_ref   0.886
_refine_ls_hydrogen_treatment    constr
_refine_ls_matrix_type           full
_refine_ls_number_parameters     316
_refine_ls_number_reflns         5476
_refine_ls_number_restraints     117
_refine_ls_restrained_S_all      0.877
_refine_ls_R_factor_all          0.0943
_refine_ls_R_factor_gt           0.0625
_refine_ls_shift/su_max          0.001
_refine_ls_shift/su_mean         0.000
_refine_ls_structure_factor_coef Fsqd
_refine_ls_weighting_details
'w=1/[\s^2^(Fo^2^)+(0.0319P)^2^] where P=(Fo^2^+2Fc^2^)/3'
_refine_ls_weighting_scheme      calc
_refine_ls_wR_factor_gt          0.1031
_refine_ls_wR_factor_ref         0.1116
_reflns_Friedel_coverage         0.000
_reflns_number_gt                3339
_reflns_number_total             5476
_reflns_threshold_expression     'I > 2\s(I)'
_cod_data_source_file            c9dt04068d2.cif
_cod_data_source_block           2
_cod_depositor_comments
;
The following automatic conversions were performed:

data item '_exptl_absorpt_correction_type' value 'MULTI-SCAN' was
changed to 'multi-scan' in accordance with the
/home/data/users/saulius/crontab/automatic-downloads/rss-feeds/RSC/lib/dictionaries/cif_core.dic
dictionary named 'cif_core.dic' version 2.4.2 last updated on
2011-04-26.

Automatic conversion script
Id: cif_fix_values 7556 2019-12-06 15:28:31Z antanas 

 Adding full bibliography for 7703287--7703289.cif.
;
_cod_database_code               7703288
_shelx_shelxl_version_number     2018/3
_shelx_space_group_comment
;
The symmetry employed for this shelxl refinement is uniquely defined
by the following loop, which should always be used as a source of
symmetry information in preference to the above space-group names.
They are only intended as comments.
;
_olex2_refinement_description
;
1. Fixed Uiso
 At 1.2 times of:
  All C(H) groups
2. Rigid bond restraints
 All non-hydrogen atoms
 with sigma for 1-2 distances of 0.02 and sigma for 1-3 distances of 0.02
3.a Aromatic/amide H refined with riding coordinates:
 C7(H7), C8(H8), C9(H9), C10(H10), C11(H11), C12(H12), C13(H13), C14(H14),
 C15(H15)
;
_smtbx_masks_special_details
;
A solvent mask was calculated and 79 electrons were
found in a volume of 343\%A^3 in 1 void per unit cell.
This is consistent with the presence of 2[C3H7NO]
per Formula Unit which account for 80 electrons 
per unit cell.
;
_shelx_res_file
;
TITL 81212Dm in P-1
    81212dm.res
    created by SHELXL-2018/3 at 20:51:54 on 10-Nov-2019
CELL 0.71073 9.2798 12.3018 12.3773 61.304 86.912 88.2724
ZERR 1 0.0016 0.0021 0.0021 0.003 0.003 0.004
LATT 1
SFAC C H N Cu
UNIT 30 18 36 3
DELU 0.02 0.02

L.S. 4
PLAN  3
TEMP 22
BOND $H
HTAB
ABIN
fmap 2
ACTA
REM <olex2.extras>
REM <HklSrc "%.\\81212Dm.hkl">
REM </olex2.extras>

WGHT    0.031900
FVAR       0.57203
C1    1    0.819466    0.823242    0.497500    11.00000    0.03474    0.03325 =
         0.03128   -0.01949   -0.00181   -0.00898
C2    1    0.740246    0.529384    0.370199    11.00000    0.02401    0.02619 =
         0.03263   -0.01233   -0.00836    0.00091
C3    1    1.186106    0.984159    0.176888    11.00000    0.02743    0.02770 =
         0.02831   -0.00974   -0.00872   -0.00434
C4    1    1.275528    0.931994    0.113748    11.00000    0.02711    0.02588 =
         0.02924   -0.00493    0.00174   -0.00633
C5    1    0.731588    0.933876    0.441004    11.00000    0.02866    0.03869 =
         0.02796   -0.01978    0.00425   -0.00891
C6    1    0.836671    0.630963    0.290915    11.00000    0.02574    0.02843 =
         0.02490   -0.00672   -0.00530   -0.00299
C7    1    0.590779    1.148610    0.333606    11.00000    0.03872    0.04189 =
         0.04948   -0.01550   -0.01420    0.00515
AFIX  43
H7    2    0.539993    1.222976    0.295631    11.00000   -1.20000
AFIX   0
C8    1    0.714012    0.357075    0.557924    11.00000    0.03738    0.02794 =
         0.03406   -0.00778   -0.00354   -0.00454
AFIX  43
H8    2    0.748780    0.302398    0.634651    11.00000   -1.20000
AFIX   0
C9    1    0.582942    0.334130    0.528442    11.00000    0.03894    0.03533 =
         0.05144   -0.01525    0.00164   -0.01926
AFIX  43
H9    2    0.527561    0.266174    0.582922    11.00000   -1.20000
AFIX   0
C10   1    0.537010    1.040767    0.345544    11.00000    0.03210    0.06412 =
         0.05073   -0.02901   -0.00790   -0.00175
AFIX  43
H10   2    0.446781    1.043660    0.314976    11.00000   -1.20000
AFIX   0
C11   1    0.723663    1.141263    0.380642    11.00000    0.03377    0.04050 =
         0.04826   -0.02295   -0.00580   -0.00141
AFIX  43
H11   2    0.764580    1.212315    0.374261    11.00000   -1.20000
AFIX   0
C12   1    1.285317    0.886252   -0.043611    11.00000    0.04184    0.05682 =
         0.03166   -0.01764   -0.00522    0.00671
AFIX  43
H12   2    1.245604    0.887492   -0.111598    11.00000   -1.20000
AFIX   0
C13   1    0.537706    0.416812    0.414176    11.00000    0.03564    0.05064 =
         0.05107   -0.02340   -0.00357   -0.01652
AFIX  43
H13   2    0.448953    0.403457    0.391158    11.00000   -1.20000
AFIX   0
C14   1    1.471896    0.832981    0.092652    11.00000    0.03045    0.07077 =
         0.05512   -0.01938   -0.01075    0.00984
AFIX  43
H14   2    1.561725    0.796668    0.118250    11.00000   -1.20000
AFIX   0
C15   1    1.417042    0.832466   -0.007769    11.00000    0.04799    0.06956 =
         0.05115   -0.03031   -0.00689    0.02080
AFIX  43
H15   2    1.467767    0.796794   -0.049784    11.00000   -1.20000
AFIX   0
CU1   4    1.000000    1.000000    0.000000    10.50000    0.02712    0.03717 =
         0.02329   -0.01311   -0.01187    0.00679
CU2   4    1.000000    0.500000    0.500000    10.50000    0.02759    0.01990 =
         0.02742    0.00184   -0.01179   -0.00650
CU3   4    1.000000    1.000000    0.500000    10.50000    0.02966    0.02770 =
         0.04201   -0.01939   -0.01414   -0.00201
N1    3    0.965543    0.631863    0.331075    11.00000    0.03129    0.01910 =
         0.02095    0.00423   -0.00722   -0.00552
N2    3    1.031293    0.732997    0.243767    11.00000    0.03513    0.03264 =
         0.03365   -0.00131   -0.01202   -0.00466
N3    3    0.941428    0.789838    0.153465    11.00000    0.03960    0.03529 =
         0.02997   -0.00106   -0.00570   -0.00643
N4    3    0.817136    0.726311    0.181521    11.00000    0.03668    0.03335 =
         0.02964   -0.00111   -0.01146   -0.00449
N5    3    0.794386    0.454388    0.481604    11.00000    0.02669    0.02441 =
         0.02829   -0.00778   -0.00689   -0.00602
N6    3    0.614204    0.516193    0.333337    11.00000    0.03222    0.04744 =
         0.03841   -0.01458   -0.01177   -0.00678
N7    3    1.054824    1.026864    0.135829    11.00000    0.03085    0.03192 =
         0.02307   -0.01153   -0.00603   -0.00223
N8    3    0.992067    1.059870    0.213865    11.00000    0.04005    0.04413 =
         0.02936   -0.01712   -0.00643    0.00290
N9    3    1.084674    1.038105    0.299468    11.00000    0.04779    0.04780 =
         0.03536   -0.02210   -0.01023   -0.00238
N10   3    1.207212    0.989006    0.279602    11.00000    0.03389    0.05399 =
         0.03499   -0.02216   -0.00898   -0.00688
N11   3    1.212801    0.936657    0.016052    11.00000    0.02916    0.02480 =
         0.02307   -0.00633   -0.00366   -0.00188
N12   3    1.403779    0.882187    0.154213    11.00000    0.02937    0.05380 =
         0.03830   -0.01662   -0.00928    0.00434
N13   3    0.949318    0.831184    0.534606    11.00000    0.03328    0.02646 =
         0.03876   -0.01815   -0.01023    0.00019
N14   3    0.914164    0.645726    0.568158    11.00000    0.04748    0.03362 =
         0.06213   -0.02533   -0.00823   -0.00736
N15   3    0.793375    0.709681    0.517282    11.00000    0.03879    0.04119 =
         0.05649   -0.02699   -0.00697   -0.00851
N16   3    1.006919    0.720377    0.577374    11.00000    0.04235    0.03825 =
         0.04896   -0.02492   -0.00982   -0.00090
N17   3    0.794891    1.033762    0.435327    11.00000    0.02592    0.03134 =
         0.03140   -0.01733   -0.00441    0.00005
N18   3    0.604578    0.933299    0.397418    11.00000    0.02715    0.04792 =
         0.05739   -0.03004   -0.01125   -0.00350
HKLF 4




REM  81212Dm in P-1
REM wR2 = 0.1116, GooF = S = 0.886, Restrained GooF = 0.877 for all data
REM R1 = 0.0625 for 3339 Fo > 4sig(Fo) and 0.0943 for all 5476 data
REM 316 parameters refined using 117 restraints

END

WGHT      0.0319      0.0000

REM Instructions for potential hydrogen bonds
EQIV $1 -x+2, -y+1, -z+1
HTAB C8 N2_$1
EQIV $4 -x+1, -y+1, -z+1
HTAB C9 N18_$4
EQIV $5 x-1, y, z
HTAB C10 N10_$5
EQIV $3 -x+2, -y+2, -z+1
HTAB C11 N16_$3
EQIV $2 -x+2, -y+2, -z
HTAB C12 N8_$2
HTAB C13 N15_$4
EQIV $6 x+1, y, z
HTAB C14 N4_$6

REM Highest difference peak  0.727,  deepest hole -0.390,  1-sigma level  0.089
Q1    1   1.0919  0.5426  0.4740  11.00000  0.05    0.73
Q2    1   1.0149  1.0315  0.0601  11.00000  0.05    0.65
Q3    1   0.9014  1.0303  0.0115  11.00000  0.05    0.64
;
_shelx_res_checksum              34886
_shelx_fab_file
;
-12 2 3 -0.9246 -0.1298
-12 3 2 2.3189 -0.1442
-11 -5 1 -1.6726 -0.4969
-11 -5 2 -1.6002 -0.2408
-11 -4 1 0.3831 0.3845
-11 -4 2 2.1573 0.0653
-11 -3 1 -0.8575 -0.3524
-11 -1 4 4.0562 -0.0199
-11 -1 5 3.1491 0.0019
-11 0 3 -1.7759 -0.0964
-11 0 4 -2.8029 0.0418
-11 0 5 -4.0582 0.0330
-11 1 2 3.1855 -0.0453
-11 1 3 4.7172 0.0675
-11 1 4 3.1941 -0.0229
-11 1 5 2.2961 -0.0541
-11 2 1 -2.5909 0.3162
-11 2 2 -2.9471 0.0374
-11 2 3 -4.6166 -0.0551
-11 2 4 -5.0253 0.0168
-11 2 5 -2.7356 0.0276
-11 2 6 -1.0359 -0.0858
-11 3 1 6.6503 -0.3541
-11 3 2 5.1811 -0.0151
-11 3 5 2.5501 -0.0068
-11 4 1 -5.1648 0.3556
-11 4 2 -5.2653 0.0525
-11 4 3 -2.6173 -0.1392
-11 4 4 0.8592 0.0194
-11 4 5 1.3904 0.0901
-11 5 1 3.0504 -0.2838
-11 5 2 1.5715 -0.0324
-11 5 3 1.4344 0.1483
-11 5 4 -0.2902 -0.0004
-11 5 5 -2.8833 -0.2021
-11 6 1 -3.2147 0.2863
-11 6 2 -0.0175 0.0301
-11 6 3 0.9811 -0.1726
-10 -7 1 0.2181 -0.3118
-10 -6 1 -1.0801 0.3560
-10 -6 2 -0.0696 0.0031
-10 -6 3 0.1388 -0.0470
-10 -5 1 2.0936 -0.3854
-10 -5 2 0.9355 -0.0401
-10 -5 3 -0.1570 0.1133
-10 -5 4 -0.4055 -0.1018
-10 -4 1 -1.4320 0.3542
-10 -4 2 -1.9629 0.0770
-10 -4 3 -0.8601 -0.0880
-10 -4 4 1.0359 0.0077
-10 -4 5 1.4583 0.1776
-10 -3 1 -1.7231 -0.3733
-10 -3 2 1.5377 -0.0458
-10 -3 3 2.2645 0.1041
-10 -3 4 -0.1076 0.0212
-10 -3 5 -1.6101 -0.0537
-10 -3 6 -0.6001 0.0377
-10 -2 1 3.1687 0.3945
-10 -2 2 -0.0276 0.0660
-10 -2 3 -2.6840 -0.1435
-10 -2 4 -1.5510 -0.0384
-10 -2 5 0.2928 0.0539
-10 -2 6 0.3156 -0.0691
-10 -1 2 -0.0750 -0.0790
-10 -1 3 1.7450 0.1076
-10 -1 4 2.4901 0.0287
-10 -1 5 1.5583 -0.0606
-10 -1 6 0.7918 0.0014
-10 -1 7 0.0999 -0.0406
-10 0 1 -3.3928 0.3580
-10 0 2 -2.1137 0.0382
-10 0 3 -0.6587 -0.1096
-10 0 4 -1.1547 0.0222
-10 0 6 -2.1983 -0.0206
-10 1 1 2.9189 -0.3846
-10 1 2 3.7730 -0.0469
-10 1 3 1.9838 0.1575
-10 1 4 -0.3987 -0.0054
-10 1 5 0.2096 -0.1029
-10 1 6 2.0587 0.0417
-10 1 7 2.7538 0.0192
-10 2 1 -2.0604 0.3565
-10 2 2 -2.6001 0.0831
-10 2 3 -3.6464 -0.1376
-10 2 4 -1.4555 -0.0323
-10 2 5 0.9376 0.0974
-10 2 6 -0.2223 -0.0083
-10 2 7 -2.0287 -0.0773
-10 3 1 3.9029 -0.2865
-10 3 2 2.3365 -0.0526
-10 3 3 2.2050 0.1006
-10 3 4 2.4849 0.0235
-10 3 5 0.5660 -0.0731
-10 3 6 -0.5454 -0.0142
-10 4 1 -2.9265 0.3059
-10 4 2 -4.3261 0.0473
-10 4 3 -1.9302 -0.0891
-10 4 4 -0.0981 -0.0028
-10 4 5 0.0256 0.0498
-10 4 6 0.5031 -0.0112
-10 4 7 0.5958 -0.0338
-10 5 1 -0.6542 -0.3168
-10 5 2 3.9040 -0.0907
-10 5 3 4.6110 0.0692
-10 5 4 0.8950 -0.0141
-10 5 5 -1.1876 -0.0660
-10 5 6 -1.0602 0.0302
-10 5 7 -1.3303 0.0617
-10 6 1 -0.0963 0.2177
-10 6 2 -2.9032 0.0313
-10 6 3 -5.4033 -0.0925
-10 6 4 -4.1027 -0.0212
-10 6 5 -1.8703 0.0674
-10 6 6 -0.7102 0.0246
-10 6 7 0.2837 -0.0167
-10 7 1 1.3892 -0.2270
-10 7 2 3.9107 0.0221
-10 7 3 4.7677 0.1175
-10 7 4 3.3726 0.0500
-10 7 5 3.3446 0.0219
-10 7 6 3.6235 0.0122
-10 8 1 0.9307 0.3180
-10 8 2 -2.0940 0.0767
-10 8 3 -3.8154 -0.0325
-10 8 4 -1.3782 0.0576
-9 -8 1 0.8192 0.3746
-9 -7 1 -1.2237 -0.5268
-9 -7 2 -0.6168 -0.1070
-9 -7 3 0.2795 0.2302
-9 -6 1 1.2415 0.4211
-9 -6 2 0.9057 0.1066
-9 -6 3 -0.9604 -0.1453
-9 -6 4 -0.3515 -0.0492
-9 -5 1 0.2021 -0.4149
-9 -5 2 -0.9791 -0.0215
-9 -5 3 -0.4292 0.1770
-9 -5 4 0.4229 -0.0073
-9 -5 5 -0.8922 -0.1085
-9 -5 6 -2.1931 -0.0418
-9 -4 1 -2.4233 0.4568
-9 -4 2 -0.8104 0.0803
-9 -4 3 1.7701 -0.1947
-9 -4 4 1.5511 0.0102
-9 -4 5 0.0221 0.1352
-9 -4 6 1.7833 -0.0352
-9 -4 7 3.6704 -0.0198
-9 -3 1 1.9596 -0.4451
-9 -3 2 2.2886 -0.0984
-9 -3 3 -0.4815 0.1350
-9 -3 4 -2.1665 0.0011
-9 -3 5 0.2090 -0.0945
-9 -3 6 0.7448 0.0374
-9 -3 7 -2.5324 0.0684
-9 -2 1 0.0422 0.4412
-9 -2 2 -0.8646 0.0465
-9 -2 3 -0.6084 -0.1406
-9 -2 4 0.5797 0.0195
-9 -2 5 -0.5262 0.0574
-9 -2 6 -2.1461 -0.0571
-9 -2 7 -1.2288 -0.0637
-9 -1 1 0.1208 -0.4281
-9 -1 2 -0.4095 -0.0454
-9 -1 3 0.0731 0.1556
-9 -1 4 0.1169 -0.0109
-9 -1 5 0.2747 -0.0730
-9 -1 6 1.0945 0.0173
-9 -1 7 1.9241 0.0268
-9 -1 8 2.2042 0.0553
-9 0 1 -0.4327 0.4211
-9 0 2 -0.0225 0.0522
-9 0 3 -0.0101 -0.1327
-9 0 4 -0.0013 0.0132
-9 0 5 0.6231 0.0642
-9 0 6 0.5479 0.0047
-9 0 7 -0.5352 0.0174
-9 0 8 -1.1033 0.0012
-9 1 1 -0.5324 -0.4337
-9 1 2 0.0237 -0.0506
-9 1 3 0.1354 0.1478
-9 1 4 0.0480 -0.0101
-9 1 5 -0.7780 -0.0636
-9 1 6 -1.2474 0.0339
-9 1 7 0.2043 0.0289
-9 1 8 0.9671 -0.0215
-9 1 9 -0.2666 -0.0306
-9 2 1 0.5398 0.4214
-9 2 2 -0.1885 0.0691
-9 2 3 -0.4879 -0.1461
-9 2 4 -0.1400 -0.0121
-9 2 5 0.3896 0.0668
-9 2 6 1.3249 -0.0291
-9 2 7 0.6697 -0.0738
-9 2 8 -1.3813 -0.0027
-9 2 9 -1.4791 0.0379
-9 3 1 0.0474 -0.3846
-9 3 2 1.0740 -0.0621
-9 3 3 1.7862 0.1151
-9 3 4 1.2482 -0.0137
-9 3 5 0.4294 -0.0792
-9 3 6 -0.9560 0.0030
-9 3 7 -2.2541 0.0416
-9 3 8 -1.1881 -0.0103
-9 3 9 1.1093 -0.0442
-9 4 1 0.4283 0.3617
-9 4 2 -1.4665 0.0237
-9 4 3 -2.6261 -0.1363
-9 4 4 -2.2301 0.0161
-9 4 5 -1.2157 0.0884
-9 4 6 0.2074 0.0025
-9 4 7 2.1255 -0.0216
-9 4 8 3.0811 0.0413
-9 4 9 1.9250 0.0473
-9 5 1 -0.7474 -0.3725
-9 5 2 1.4888 -0.0226
-9 5 3 3.1243 0.1550
-9 5 4 2.5218 0.0117
-9 5 5 0.6588 -0.0452
-9 5 6 -0.6419 0.0421
-9 5 7 -1.2670 0.0449
-9 5 8 -2.0048 -0.0389
-9 5 9 -2.4157 -0.0443
-9 6 1 -1.8725 0.3616
-9 6 2 -2.5761 0.0522
-9 6 3 -3.5256 -0.1233
-9 6 4 -3.6699 0.0242
-9 6 5 -0.9863 0.0651
-9 6 6 1.6650 -0.0690
-9 6 7 1.3107 -0.0794
-9 6 8 0.8139 0.0235
-9 6 9 1.6786 0.0294
-9 7 1 4.7183 -0.3202
-9 7 2 5.1085 -0.0595
-9 7 3 3.2218 0.1026
-9 7 4 3.1286 -0.0376
-9 7 5 2.2033 -0.1247
-9 7 6 -0.7765 -0.0131
-9 7 7 -0.9231 0.0372
-9 7 8 0.4077 -0.0302
-9 7 9 -1.2498 -0.0107
-9 8 1 -2.1084 0.2909
-9 8 2 -4.7703 0.0679
-9 8 3 -2.8993 -0.0924
-9 8 4 -0.2359 -0.0090
-9 8 5 0.1293 0.0636
-9 8 6 0.4173 0.0224
-9 8 7 0.1495 0.0155
-9 8 8 -1.5865 0.0644
-9 9 1 -1.5776 -0.1722
-9 9 2 0.0493 -0.0347
-9 9 3 1.3295 0.1015
-9 9 4 -0.7324 0.0361
-9 9 5 -3.1625 0.0087
-9 9 6 -2.5647 0.0829
-9 9 7 -0.6485 0.0844
-8 -9 1 -2.7188 -0.5407
-8 -9 2 -1.1258 -0.3131
-8 -8 1 1.3233 0.4102
-8 -8 2 1.0350 0.0687
-8 -8 3 -0.1892 -0.1197
-8 -7 1 0.3795 -0.4899
-8 -7 2 0.4960 0.0001
-8 -7 3 0.2789 0.2001
-8 -7 4 0.9138 -0.0016
-8 -7 5 1.8331 0.0057
-8 -6 1 -0.4827 0.5044
-8 -6 2 -0.8945 0.0857
-8 -6 3 -1.2056 -0.1912
-8 -6 4 -1.4276 0.0347
-8 -6 5 -2.7002 0.1690
-8 -6 6 -2.6099 -0.0885
-8 -5 1 -0.0604 -0.4903
-8 -5 2 -0.6968 -0.0622
-8 -5 3 0.6351 0.1508
-8 -5 4 2.9231 0.0085
-8 -5 5 3.5034 -0.1096
-8 -5 6 2.3411 0.0054
-8 -5 7 1.1644 0.1665
-8 -4 1 -0.1978 0.5301
-8 -4 2 1.6401 0.0401
-8 -4 3 1.6136 -0.1644
-8 -4 4 -2.5465 0.0085
-8 -4 5 -4.1859 0.0523
-8 -4 6 -0.8071 -0.0302
-8 -4 7 1.0077 -0.0731
-8 -3 1 0.8887 -0.4991
-8 -3 2 -0.4644 -0.0702
-8 -3 3 -2.2250 0.1579
-8 -3 4 0.2953 -0.0031
-8 -3 5 3.0084 -0.0951
-8 -3 6 0.3012 -0.0056
-8 -3 7 -2.6383 0.0496
-8 -3 8 -1.7382 0.0205
-8 -2 1 -0.3378 0.4687
-8 -2 2 -0.4315 0.0567
-8 -2 3 0.9017 -0.1339
-8 -2 4 0.9593 -0.0136
-8 -2 5 -0.3486 0.0778
-8 -2 6 -0.0766 0.0329
-8 -2 7 0.8675 -0.0511
-8 -2 8 0.9938 -0.0242
-8 -1 1 -0.2144 -0.4969
-8 -1 2 -0.1971 -0.0514
-8 -1 3 -0.5918 0.1481
-8 -1 4 -1.2426 0.0095
-8 -1 5 -1.5377 -0.0667
-8 -1 6 -1.2144 0.0063
-8 -1 7 0.4541 0.0765
-8 -1 8 1.7750 0.0119
-8 -1 9 1.0689 -0.0787
-8 0 1 -0.1630 0.5036
-8 0 2 0.3512 0.0696
-8 0 3 1.0107 -0.1566
-8 0 4 1.6516 -0.0119
-8 0 5 1.8470 0.0863
-8 0 6 1.6963 -0.0088
-8 0 7 0.8786 -0.0881
-8 0 8 -0.8410 0.0249
-8 0 9 -2.2396 0.1060
-8 1 1 -0.0347 -0.4846
-8 1 2 -0.3683 -0.0678
-8 1 3 -0.7687 0.1583
-8 1 4 -1.2471 0.0040
-8 1 5 -1.1197 -0.1001
-8 1 6 -0.2393 0.0091
-8 1 7 -0.6262 0.0776
-8 1 8 -1.9413 -0.0393
-8 1 9 -0.7618 -0.0806
-8 1 10 1.7034 0.0679
-8 2 1 -0.4532 0.4461
-8 2 2 0.6241 0.0591
-8 2 3 0.9467 -0.1639
-8 2 4 0.5741 -0.0132
-8 2 5 0.2855 0.1156
-8 2 6 -0.7661 -0.0000
-8 2 7 -1.3729 -0.0822
-8 2 8 0.8747 0.0380
-8 2 9 2.6534 0.0352
-8 2 10 0.8225 -0.1053
-8 3 1 1.5097 -0.4263
-8 3 2 0.4817 -0.0490
-8 3 3 -0.7835 0.1452
-8 3 4 -0.6391 0.0206
-8 3 5 -0.2200 -0.0864
-8 3 6 0.1589 -0.0041
-8 3 7 1.1888 0.0673
-8 3 8 0.7887 -0.0394
-8 3 9 -1.0387 -0.0524
-8 3 10 -1.0778 0.0715
-8 4 1 -0.1926 0.4432
-8 4 2 -0.9147 0.0555
-8 4 3 -0.3512 -0.1314
-8 4 4 0.3351 0.0102
-8 4 5 0.3261 0.0745
-8 4 6 0.1535 -0.0412
-8 4 7 -0.3576 -0.0810
-8 4 8 -0.2354 0.0424
-8 4 9 0.7076 0.0646
-8 4 10 0.2802 -0.0340
-8 4 11 -1.0416 0.0597
-8 5 1 -2.1141 -0.4139
-8 5 2 -0.8261 -0.0681
-8 5 3 0.6969 0.1320
-8 5 4 0.2765 -0.0106
-8 5 5 -0.3959 -0.1050
-8 5 6 0.3113 0.0279
-8 5 7 1.3349 0.1014
-8 5 8 0.9617 -0.0264
-8 5 9 -0.5371 -0.0544
-8 5 10 -0.5944 0.0790
-8 5 11 1.2057 0.0597
-8 6 1 2.4237 0.3673
-8 6 2 2.0426 0.0523
-8 6 3 -0.7408 -0.1303
-8 6 4 -1.3157 -0.0181
-8 6 5 0.6111 0.0838
-8 6 6 0.2669 0.0131
-8 6 7 -1.6321 -0.0470
-8 6 8 -1.7755 0.0384
-8 6 9 -1.1331 0.0597
-8 6 10 -1.0096 -0.0691
-8 6 11 -1.1388 -0.1174
-8 7 1 -0.4589 -0.3498
-8 7 2 -1.1768 -0.0439
-8 7 3 1.0048 0.1310
-8 7 4 2.8543 0.0266
-8 7 5 0.7370 -0.0497
-8 7 6 -0.8486 0.0135
-8 7 7 0.3011 0.0289
-8 7 8 0.0703 -0.0584
-8 7 9 -0.1698 -0.0598
-8 7 10 2.0328 0.0159
-8 7 11 2.6413 -0.0073
-8 8 1 -1.5427 0.3196
-8 8 2 -1.1878 0.0393
-8 8 3 -1.0936 -0.1093
-8 8 4 -1.9928 -0.0076
-8 8 5 -1.8807 0.0573
-8 8 6 -0.5097 -0.0320
-8 8 7 -0.2601 -0.0717
-8 8 8 0.6675 0.0182
-8 8 9 2.5753 0.0205
-8 8 10 1.0102 -0.0369
-8 9 1 0.7901 -0.3501
-8 9 2 2.4498 -0.0160
-8 9 3 1.9173 0.0920
-8 9 4 -0.2522 -0.0432
-8 9 5 -0.5061 -0.0925
-8 9 6 0.6253 0.0115
-8 9 7 1.3929 0.0680
-8 9 8 1.2150 0.0010
-8 9 9 -0.8504 0.0154
-8 9 10 -2.4958 0.0967
-8 10 1 0.7010 0.4366
-8 10 2 -1.1271 0.0460
-8 10 3 -2.0355 -0.1271
-8 10 4 0.0190 0.0320
-8 10 5 2.3202 0.1062
-8 10 6 1.7262 0.0100
-8 10 7 -0.7089 -0.0162
-8 10 8 -2.5196 0.0631
-8 10 9 -2.1237 0.0125
-8 11 3 0.5172 0.1409
-8 11 4 0.7767 0.0820
-8 11 5 -0.4798 -0.0146
-8 11 6 -2.0887 0.0281
-8 11 7 -0.8722 -0.0177
-8 11 8 1.9516 -0.1559
-7 -10 1 -2.9181 0.3991
-7 -10 2 -0.1326 0.0351
-7 -9 1 3.1108 -0.5784
-7 -9 2 2.5067 -0.1260
-7 -9 3 0.7397 0.1231
-7 -8 1 -2.8386 0.4764
-7 -8 2 -2.6445 0.0952
-7 -8 3 -2.8202 -0.1868
-7 -8 4 -2.5707 -0.0212
-7 -7 1 3.1557 -0.4727
-7 -7 2 1.8887 -0.0156
-7 -7 3 1.8418 0.1830
-7 -7 4 4.0064 0.0592
-7 -7 5 3.5053 -0.0559
-7 -7 6 0.7691 -0.0714
-7 -6 1 -2.2915 0.5455
-7 -6 2 -1.9417 0.0646
-7 -6 3 -0.6878 -0.1652
-7 -6 4 -2.4704 0.0231
-7 -6 5 -3.8854 0.0605
-7 -6 6 -1.4018 -0.0518
-7 -6 7 0.2428 0.0478
-7 -5 1 0.6443 -0.5121
-7 -5 2 1.0735 -0.1025
-7 -5 3 1.2269 0.1482
-7 -5 4 1.7188 -0.0047
-7 -5 5 2.5587 -0.1343
-7 -5 6 1.9394 0.0165
-7 -5 7 0.2097 0.0650
-7 -4 1 0.6634 0.5010
-7 -4 2 0.5934 0.0627
-7 -4 3 -1.0428 -0.1533
-7 -4 4 -2.1957 -0.0390
-7 -4 5 -1.8441 0.0901
-7 -4 6 -2.4180 0.0307
-7 -4 7 -2.5017 -0.0796
-7 -4 8 0.0478 -0.0241
-7 -3 1 -1.2236 -0.5258
-7 -3 2 -1.2422 -0.0629
-7 -3 3 0.2276 0.1771
-7 -3 4 1.5831 0.0246
-7 -3 5 0.8890 -0.0866
-7 -3 6 1.7700 0.0114
-7 -3 7 3.8503 0.0689
-7 -3 8 1.8978 -0.0011
-7 -3 9 -1.1426 0.0181
-7 -2 1 0.6149 0.5227
-7 -2 2 0.5938 0.0839
-7 -2 3 -0.1841 -0.1747
-7 -2 4 -0.7216 -0.0151
-7 -2 5 0.5451 0.1262
-7 -2 6 0.2972 -0.0223
-7 -2 7 -1.9115 -0.1068
-7 -2 8 -1.4258 0.0639
-7 -2 9 0.7384 0.0879
-7 -1 1 0.3987 -0.5353
-7 -1 2 0.3017 -0.0826
-7 -1 3 0.2721 0.1704
-7 -1 4 0.5033 0.0070
-7 -1 5 -0.6463 -0.1292
-7 -1 6 -1.3189 0.0220
-7 -1 7 -0.4391 0.1076
-7 -1 8 -0.7328 -0.0543
-7 -1 9 -1.6171 -0.0911
-7 -1 10 -1.1549 0.0273
-7 0 1 -1.2375 0.5255
-7 0 2 -0.9819 0.0803
-7 0 3 0.0351 -0.1815
-7 0 4 -0.0763 -0.0162
-7 0 5 -0.4268 0.1277
-7 0 6 -0.0841 -0.0198
-7 0 7 0.2121 -0.0858
-7 0 8 0.6755 0.0679
-7 0 9 1.0849 0.0286
-7 0 10 0.8816 -0.1035
-7 1 1 1.1127 -0.5049
-7 1 2 1.5350 -0.0711
-7 1 3 0.2603 0.1752
-7 1 4 -0.4863 0.0275
-7 1 5 0.8447 -0.1038
-7 1 6 2.1473 0.0141
-7 1 7 1.6729 0.0722
-7 1 8 0.7527 -0.0642
-7 1 9 0.7579 -0.0428
-7 1 10 0.8285 0.1055
-7 1 11 0.4625 0.0300
-7 2 1 0.0990 0.5195
-7 2 2 -0.9493 0.0750
-7 2 3 -1.1018 -0.1690
-7 2 4 0.0970 -0.0031
-7 2 5 -0.2106 0.1042
-7 2 6 -2.4495 -0.0341
-7 2 7 -3.0012 -0.0802
-7 2 8 -1.4027 0.0334
-7 2 9 -0.6375 0.0340
-7 2 10 -0.8977 -0.0222
-7 2 11 -1.0957 -0.0088
-7 3 1 -0.1257 -0.4960
-7 3 2 -0.1979 -0.0790
-7 3 3 0.9274 0.1745
-7 3 4 0.7992 0.0029
-7 3 5 -0.2532 -0.1318
-7 3 6 0.9988 0.0240
-7 3 7 2.4775 0.0899
-7 3 8 1.2479 -0.0340
-7 3 9 -0.3431 -0.0246
-7 3 10 -0.7269 0.0225
-7 3 11 -0.4205 -0.0266
-7 3 12 0.7024 0.0599
-7 4 1 -0.9665 0.4590
-7 4 2 -0.1247 0.0602
-7 4 3 -0.1439 -0.1782
-7 4 4 -0.8096 -0.0196
-7 4 5 0.1007 0.1159
-7 4 6 0.2308 -0.0173
-7 4 7 -1.0639 -0.0773
-7 4 8 -0.6071 0.0595
-7 4 9 0.4711 0.0519
-7 4 10 0.4450 -0.0473
-7 4 11 0.8174 -0.0037
-7 4 12 0.7831 0.0022
-7 5 1 1.0580 -0.4632
-7 5 2 1.2581 -0.0770
-7 5 3 0.2266 0.1703
-7 5 4 0.0121 0.0164
-7 5 5 0.0851 -0.1136
-7 5 6 -0.2464 0.0289
-7 5 7 0.2569 0.0875
-7 5 8 0.5407 -0.0646
-7 5 9 0.1575 -0.0620
-7 5 10 0.7907 0.0698
-7 5 11 1.0807 0.0305
-7 5 12 -0.2404 -0.0546
-7 6 1 0.2646 0.4386
-7 6 2 -1.5602 0.0930
-7 6 3 -1.1453 -0.1397
-7 6 4 0.5066 -0.0182
-7 6 5 0.2839 0.1170
-7 6 6 -0.3997 -0.0044
-7 6 7 0.0037 -0.0918
-7 6 8 -0.5810 0.0361
-7 6 9 -1.9029 0.0584
-7 6 10 -2.0633 -0.0677
-7 6 11 -1.6641 -0.0498
-7 6 12 -0.8308 0.0605
-7 7 1 -2.1854 -0.3992
-7 7 2 0.2962 -0.0432
-7 7 3 1.6080 0.1345
-7 7 4 0.2542 0.0080
-7 7 5 -0.6645 -0.0881
-7 7 6 0.4151 0.0132
-7 7 7 0.0877 0.0763
-7 7 8 -0.4468 -0.0171
-7 7 9 2.2076 -0.0435
-7 7 10 3.9570 0.0250
-7 7 11 1.9672 0.0151
-7 7 12 0.0498 -0.0297
-7 8 1 1.5302 0.3807
-7 8 2 1.0454 0.0274
-7 8 3 -0.4113 -0.1520
-7 8 4 -1.3247 0.0042
-7 8 5 -0.4486 0.0929
-7 8 6 0.0485 -0.0368
-7 8 7 -0.1782 -0.0773
-7 8 8 0.6443 0.0308
-7 8 9 -0.1535 0.0301
-7 8 10 -3.0970 -0.0318
-7 8 11 -3.1326 0.0039
-7 8 12 -0.2522 0.0205
-7 9 1 2.0783 -0.3489
-7 9 2 0.4894 -0.0742
-7 9 3 -0.2283 0.1149
-7 9 4 1.1578 0.0037
-7 9 5 1.7220 -0.0958
-7 9 6 0.2090 0.0174
-7 9 7 -0.0166 0.0530
-7 9 8 0.6719 -0.0705
-7 9 9 -0.0946 -0.0587
-7 9 10 0.1009 0.0502
-7 9 11 1.8464 0.0513
-7 9 12 1.4646 0.0358
-7 10 1 -3.1059 0.3169
-7 10 2 -2.2559 0.0871
-7 10 3 -1.4687 -0.0810
-7 10 4 -1.7062 -0.0165
-7 10 5 -1.4721 0.0546
-7 10 6 0.0341 -0.0270
-7 10 7 0.3849 -0.0439
-7 10 8 -1.2041 0.0715
-7 10 9 -1.3251 0.0666
-7 10 10 0.3316 -0.0258
-7 10 11 0.2194 -0.0394
-7 11 1 0.9952 -0.2245
-7 11 2 0.5027 -0.0433
-7 11 3 1.7487 0.1145
-7 11 4 3.2704 0.0377
-7 11 5 1.8048 -0.0319
-7 11 6 -0.7789 0.0333
-7 11 7 -1.0472 0.0578
-7 11 8 0.3690 0.0035
-7 11 9 0.9237 0.0324
-7 11 10 0.2205 0.0677
-7 11 11 -0.1159 -0.0081
-7 12 3 0.1966 -0.1442
-7 12 4 -2.5142 -0.0126
-7 12 5 -2.3975 0.0751
-7 12 6 -0.0668 0.0218
-7 12 7 0.7632 0.0080
-7 12 8 0.3371 -0.0003
-7 12 9 0.3631 -0.1092
-7 12 10 0.4807 -0.1554
-6 -11 1 -3.1705 -0.5976
-6 -10 1 2.5904 0.4495
-6 -9 1 -0.7555 -0.4745
-6 -9 3 1.8526 0.2105
-6 -9 4 4.3382 0.0547
-6 -9 5 3.1971 0.0291
-6 -8 1 0.1529 0.5214
-6 -8 2 -1.2332 0.0629
-6 -8 3 -2.1492 -0.1808
-6 -8 4 -2.4226 0.0562
-6 -8 5 -2.2701 0.1665
-6 -8 6 -1.2514 -0.0697
-6 -7 1 -0.2126 -0.5189
-6 -7 2 0.5776 -0.0974
-6 -7 3 2.8494 0.1371
-6 -7 4 3.0865 -0.0069
-6 -7 5 1.1064 -0.1563
-6 -7 6 0.6813 -0.0019
-6 -7 7 0.8202 0.1938
-6 -6 1 -0.2269 0.5580
-6 -6 2 0.3186 0.0679
-6 -6 3 -0.8015 -0.1534
-6 -6 4 -3.1786 -0.0163
-6 -6 5 -2.4590 0.0590
-6 -6 6 -0.8422 -0.0292
-6 -6 7 -0.3461 -0.1185
-6 -5 1 0.7523 -0.5674
-6 -5 2 0.4916 -0.0708
-6 -5 3 -0.3872 0.2035
-6 -5 4 0.3292 0.0094
-6 -5 5 1.8635 -0.1035
-6 -5 6 1.9061 0.0463
-6 -5 7 -0.0885 0.0804
-6 -5 8 -2.0722 -0.0816
-6 -4 1 -1.5013 0.5651
-6 -4 2 -0.9450 0.0829
-6 -4 3 -0.5011 -0.2082
-6 -4 4 0.9069 -0.0285
-6 -4 5 0.6420 0.1447
-6 -4 6 -1.3414 0.0022
-6 -4 7 -0.2216 -0.0988
-6 -4 8 2.6203 0.0952
-6 -4 9 2.3174 0.2446
-6 -3 1 1.9520 -0.5928
-6 -3 2 0.7767 -0.0940
-6 -3 3 0.7345 0.1874
-6 -3 4 -0.1554 0.0117
-6 -3 5 -1.1675 -0.1218
-6 -3 6 0.0256 0.0153
-6 -3 7 0.1990 0.0943
-6 -3 8 -1.5068 -0.0228
-6 -3 9 -1.3184 -0.0944
-6 -2 1 -1.3969 0.5794
-6 -2 2 -0.7203 0.0941
-6 -2 3 -0.6004 -0.1890
-6 -2 4 -0.3442 0.0023
-6 -2 5 0.2969 0.1308
-6 -2 6 0.3632 -0.0394
-6 -2 7 0.7301 -0.0905
-6 -2 8 0.8240 0.0469
-6 -2 9 -0.3058 0.0011
-6 -2 10 -0.7071 -0.1221
-6 -1 1 0.4020 -0.5750
-6 -1 2 0.2134 -0.0806
-6 -1 3 0.5356 0.1998
-6 -1 4 0.6367 0.0196
-6 -1 5 0.3597 -0.1191
-6 -1 6 0.0245 0.0190
-6 -1 7 -1.2704 0.0708
-6 -1 8 -1.4965 -0.0610
-6 -1 9 0.4614 -0.0523
-6 -1 10 1.0236 0.0825
-6 -1 11 -0.0590 0.0786
-6 0 1 -0.3569 0.5957
-6 0 2 0.4221 0.0943
-6 0 3 0.0920 -0.2016
-6 0 4 -0.5330 -0.0187
-6 0 5 -0.5312 0.1070
-6 0 6 -0.5442 -0.0339
-6 0 7 0.2070 -0.0625
-6 0 8 0.9578 0.0450
-6 0 9 0.0878 0.0307
-6 0 10 -0.5052 -0.0025
-6 0 11 0.0648 0.0217
-6 1 1 1.8504 -0.5639
-6 1 2 0.2506 -0.1015
-6 1 3 -0.6558 0.1957
-6 1 4 -0.1851 0.0128
-6 1 5 0.1644 -0.1400
-6 1 6 0.4989 0.0291
-6 1 7 0.9009 0.0971
-6 1 8 1.0442 -0.0408
-6 1 9 0.9915 -0.0268
-6 1 10 0.4727 0.0495
-6 1 11 0.1237 -0.0119
-6 1 12 0.4843 0.0050
-6 2 1 -2.5700 0.5453
-6 2 2 -1.8397 0.0784
-6 2 3 0.1392 -0.1975
-6 2 4 1.0402 -0.0196
-6 2 5 0.6159 0.1389
-6 2 6 0.0476 -0.0025
-6 2 7 -0.4064 -0.0961
-6 2 8 -1.2188 0.0311
-6 2 9 -1.7723 0.0715
-6 2 10 -1.3040 -0.0355
-6 2 11 -0.8576 -0.0547
-6 2 12 -1.0810 -0.0057
-6 3 1 1.1185 -0.5523
-6 3 2 1.8359 -0.0847
-6 3 3 1.0694 0.2027
-6 3 4 -0.8895 0.0210
-6 3 5 -1.1371 -0.1172
-6 3 6 -0.2839 0.0249
-6 3 7 -0.5959 0.0771
-6 3 8 -0.6062 -0.0457
-6 3 9 0.3463 -0.0621
-6 3 10 0.8610 0.0272
-6 3 11 1.4496 0.0338
-6 3 12 1.8636 -0.0370
-6 4 1 0.4159 0.5080
-6 4 2 -0.1631 0.0985
-6 4 3 -1.1777 -0.1812
-6 4 4 -0.3859 -0.0174
-6 4 5 0.3014 0.1218
-6 4 6 -0.5793 -0.0368
-6 4 7 0.2422 -0.0882
-6 4 8 1.6889 0.0602
-6 4 9 0.8559 0.0515
-6 4 10 -0.1905 -0.0740
-6 4 11 -0.9712 -0.0517
-6 4 12 -2.1818 0.0731
-6 4 13 -1.4257 0.1189
-6 5 1 -0.6451 -0.4800
-6 5 2 -0.7363 -0.0827
-6 5 3 0.0662 0.1626
-6 5 4 0.7656 0.0080
-6 5 5 0.8772 -0.1306
-6 5 6 1.5441 0.0137
-6 5 7 1.0877 0.0879
-6 5 8 -0.8313 -0.0415
-6 5 9 -0.6312 -0.0526
-6 5 10 1.0991 0.0592
-6 5 11 1.4793 0.0543
-6 5 12 1.6216 -0.0385
-6 5 13 1.6249 -0.0759
-6 6 1 -0.4503 0.4769
-6 6 2 0.1837 0.0759
-6 6 3 0.3071 -0.1673
-6 6 4 0.0625 -0.0210
-6 6 5 -0.5936 0.1146
-6 6 6 -0.8710 -0.0063
-6 6 7 -0.7046 -0.0742
-6 6 8 -0.3119 0.0288
-6 6 9 -0.2690 0.0376
-6 6 10 -1.5096 -0.0367
-6 6 11 -2.5900 -0.0079
-6 6 12 -1.9204 0.0531
-6 6 13 -1.0252 0.0380
-6 7 1 1.6192 -0.4221
-6 7 2 0.5136 -0.0593
-6 7 3 0.4528 0.1563
-6 7 4 -0.1282 0.0249
-6 7 5 -0.5148 -0.0803
-6 7 6 -0.4711 0.0326
-6 7 7 -0.8516 0.0727
-6 7 8 -0.2503 -0.0376
-6 7 9 0.8949 -0.0408
-6 7 10 1.2441 0.0430
-6 7 11 1.8755 0.0211
-6 7 12 2.0791 -0.0588
-6 7 13 0.9784 -0.0701
-6 8 1 -1.3285 0.4015
-6 8 2 -0.1354 0.0450
-6 8 3 -0.7308 -0.1476
-6 8 4 -0.9567 0.0126
-6 8 5 0.8040 0.1009
-6 8 6 1.2848 -0.0394
-6 8 7 0.6024 -0.0761
-6 8 8 0.3425 0.0455
-6 8 9 -0.4170 0.0538
-6 8 10 -1.1905 -0.0350
-6 8 11 -1.1946 -0.0383
-6 8 12 -1.0078 0.0221
-6 8 13 -0.6102 0.0563
-6 9 1 1.5407 -0.4297
-6 9 2 -0.0149 -0.0881
-6 9 3 0.3255 0.1422
-6 9 4 1.5389 -0.0087
-6 9 5 0.3226 -0.1273
-6 9 6 -0.9905 -0.0003
-6 9 7 0.2980 0.0550
-6 9 8 1.1970 -0.0439
-6 9 9 0.4715 -0.0498
-6 9 10 0.6391 0.0301
-6 9 11 1.2872 0.0255
-6 9 12 0.5947 -0.0340
-6 9 13 -0.3264 -0.0371
-6 10 1 -2.5746 0.3830
-6 10 2 -1.7012 0.0737
-6 10 3 -1.2647 -0.1284
-6 10 4 -0.8903 -0.0204
-6 10 5 -0.8682 0.0727
-6 10 6 -1.0764 -0.0213
-6 10 7 -1.2006 -0.0532
-6 10 8 -1.0315 0.0320
-6 10 9 -0.6135 0.0352
-6 10 10 -0.7786 -0.0312
-6 10 11 -1.1849 -0.0345
-6 10 12 -0.4206 0.0264
-6 10 13 0.6655 0.0483
-6 11 1 1.0078 -0.3190
-6 11 2 2.4523 0.0261
-6 11 3 3.1954 0.1504
-6 11 4 0.4562 0.0080
-6 11 5 -0.9685 -0.0534
-6 11 6 1.8196 0.0608
-6 11 7 3.0302 0.0935
-6 11 8 0.0377 -0.0013
-6 11 9 -1.5590 -0.0201
-6 11 10 0.7258 0.0353
-6 11 11 2.1598 0.0561
-6 11 12 0.3927 0.0396
-6 12 1 1.4256 0.2939
-6 12 2 -0.6134 -0.0115
-6 12 3 -3.2834 -0.0974
-6 12 4 -0.8536 0.0307
-6 12 5 2.5641 0.0808
-6 12 6 0.3726 0.0019
-6 12 7 -2.9558 -0.0290
-6 12 8 -0.7164 0.0356
-6 12 9 2.9480 0.0427
-6 12 10 1.2219 -0.0340
-6 12 11 -2.4231 -0.0780
-6 12 12 -1.6189 -0.0817
-6 13 3 2.0387 -0.0936
-6 13 4 1.1197 -0.1337
-6 13 5 -1.8466 -0.0576
-6 13 6 -1.4513 -0.0016
-6 13 7 1.0150 -0.0741
-6 13 8 0.9678 -0.1677
-6 13 9 -1.3461 -0.1414
-6 13 10 -1.7957 -0.0158
-5 -12 1 -0.3832 0.2805
-5 -10 3 -2.2756 -0.1515
-5 -10 4 -1.0506 -0.1705
-5 -9 1 -1.4461 -0.4749
-5 -9 2 -1.5910 -0.0250
-5 -9 3 1.1790 0.1541
-5 -9 4 3.2544 0.0645
-5 -9 5 1.6873 0.0276
-5 -8 1 0.3771 0.5802
-5 -8 2 2.9921 0.0519
-5 -8 3 3.4862 -0.1910
-5 -8 4 -0.1449 0.0301
-5 -8 6 -1.0768 -0.0377
-5 -7 1 0.8868 -0.5828
-5 -7 2 -0.6843 -0.1167
-5 -7 3 -3.0440 0.1823
-5 -7 4 -3.5358 -0.0043
-5 -7 5 -0.1811 -0.1732
-5 -7 6 1.8213 0.0037
-5 -7 7 -0.4463 0.0742
-5 -6 1 -1.0286 0.5613
-5 -6 2 -0.4030 0.0742
-5 -6 3 -0.1939 -0.1909
-5 -6 4 1.3792 -0.0358
-5 -6 5 1.5211 0.1145
-5 -6 6 -0.5270 -0.0249
-5 -6 7 -0.4637 -0.1215
-5 -6 8 0.7981 0.0508
-5 -5 1 0.0868 -0.5987
-5 -5 2 -0.1398 -0.0633
-5 -5 3 0.2881 0.2165
-5 -5 4 0.5859 0.0198
-5 -5 5 0.6006 -0.1150
-5 -5 6 0.6270 0.0470
-5 -5 7 0.4169 0.1078
-5 -5 8 0.4758 -0.0460
-5 -5 9 0.7778 -0.0329
-5 -4 1 1.1109 0.6084
-5 -4 2 0.4722 0.0969
-5 -4 3 -0.1998 -0.2012
-5 -4 4 -0.1834 -0.0037
-5 -4 5 -1.0766 0.1559
-5 -4 6 -1.6140 -0.0184
-5 -4 7 -0.9236 -0.0868
-5 -4 8 -1.1324 0.0875
-5 -4 9 -1.5626 0.0523
-5 -3 1 -1.3283 -0.6143
-5 -3 2 -0.8688 -0.0962
-5 -3 3 0.6765 0.1888
-5 -3 4 1.0534 0.0040
-5 -3 5 0.7965 -0.1335
-5 -3 6 0.7174 0.0205
-5 -3 7 0.8582 0.0807
-5 -3 8 1.6891 -0.0566
-5 -3 9 1.8283 -0.0421
-5 -3 10 0.7967 0.0538
-5 -2 1 0.7694 0.6168
-5 -2 2 0.6374 0.0934
-5 -2 3 0.0192 -0.2087
-5 -2 4 -1.0735 -0.0091
-5 -2 5 -1.3330 0.1196
-5 -2 6 0.2709 -0.0560
-5 -2 7 0.9123 -0.0872
-5 -2 8 -1.0000 0.0510
-5 -2 9 -1.6883 -0.0081
-5 -2 10 -0.4263 -0.0626
-5 -2 11 -0.3119 0.1295
-5 -1 1 -1.1804 -0.5999
-5 -1 2 -0.2817 -0.0919
-5 -1 3 -0.3686 0.2161
-5 -1 4 -0.5360 0.0223
-5 -1 5 0.4584 -0.1383
-5 -1 6 -0.2035 0.0373
-5 -1 7 -1.8850 0.0994
-5 -1 8 -0.8546 -0.0758
-5 -1 9 0.4670 -0.0521
-5 -1 10 -0.1199 0.0832
-5 -1 11 0.1794 -0.0335
-5 0 1 2.6291 0.6170
-5 0 2 1.6223 0.0873
-5 0 3 0.5334 -0.2122
-5 0 5 0.8888 0.1364
-5 0 6 0.2431 -0.0180
-5 0 7 0.9490 -0.0895
-5 0 8 1.3865 0.0522
-5 0 9 1.4215 0.0876
-5 0 10 1.4451 -0.0269
-5 0 11 -0.1314 -0.0461
-5 0 12 -1.7742 0.0142
-5 1 1 -2.2104 -0.6242
-5 1 2 -3.0028 -0.1044
-5 1 3 -1.4479 0.2175
-5 1 4 -0.8495 -0.0018
-5 1 5 -0.7057 -0.1454
-5 1 6 -0.1836 0.0389
-5 1 7 -0.0596 0.0861
-5 1 8 -0.3843 -0.0483
-5 1 9 -1.8763 -0.0373
-5 1 10 -3.2490 0.0499
-5 1 11 -1.3415 0.0403
-5 1 12 1.7510 -0.0104
-5 2 1 -0.2014 0.5910
-5 2 2 1.7212 0.1143
-5 2 3 1.8341 -0.2061
-5 2 4 1.0392 -0.0136
-5 2 5 -0.0454 0.1461
-5 2 6 -0.5423 -0.0385
-5 2 7 -0.0265 -0.0959
-5 2 8 0.1672 0.0680
-5 2 9 0.6886 0.0446
-5 2 10 2.4942 -0.0873
-5 2 11 2.9569 -0.0515
-5 2 12 1.0758 0.0552
-5 2 13 -0.1855 0.1147
-5 3 1 1.2798 -0.5726
-5 3 2 0.6972 -0.0954
-5 3 3 -0.8109 0.1933
-5 3 4 -1.8989 0.0156
-5 3 5 -0.6775 -0.1190
-5 3 6 0.5932 0.0382
-5 3 7 0.0000 0.0890
-5 3 8 -0.7945 -0.0583
-5 3 9 -0.3314 -0.0584
-5 3 10 0.4753 0.0515
-5 3 11 -0.4157 0.0201
-5 3 12 -2.8738 -0.0604
-5 3 13 -3.6574 -0.0647
-5 4 1 -1.0276 0.5649
-5 4 2 -1.6060 0.0809
-5 4 3 -0.7916 -0.2100
-5 4 4 1.8019 -0.0086
-5 4 5 2.1731 0.1224
-5 4 6 1.0346 -0.0423
-5 4 7 0.8231 -0.0811
-5 4 8 1.0006 0.0516
-5 4 9 0.9046 0.0356
-5 4 10 -0.9553 -0.0550
-5 4 11 -3.1713 0.0031
-5 4 12 -0.4379 0.0755
-5 4 13 4.4563 -0.0087
-5 4 14 3.8077 -0.0970
-5 5 1 0.2224 -0.5520
-5 5 2 1.0686 -0.0893
-5 5 3 1.2265 0.2118
-5 5 4 -0.3599 0.0159
-5 5 5 -1.7642 -0.1347
-5 5 6 -2.0282 0.0263
-5 5 7 -1.9370 0.0737
-5 5 8 -1.2287 -0.0602
-5 5 9 -0.9109 -0.0452
-5 5 10 -0.6108 0.0632
-5 5 11 1.9735 0.0322
-5 5 12 3.1084 -0.0525
-5 5 13 -0.6663 0.0082
-5 5 14 -3.0619 0.1366
-5 6 1 1.8272 0.5259
-5 6 2 0.3809 0.0935
-5 6 3 -0.1599 -0.1885
-5 6 4 0.0493 -0.0061
-5 6 5 0.5125 0.1318
-5 6 6 1.3640 -0.0284
-5 6 7 1.6677 -0.0770
-5 6 8 1.1189 0.0566
-5 6 9 0.8390 0.0520
-5 6 10 1.0153 -0.0452
-5 6 11 0.2560 -0.0250
-5 6 12 -1.3933 0.0399
-5 6 13 -1.3942 -0.0016
-5 6 14 0.3204 -0.0937
-5 7 1 -2.3983 -0.4757
-5 7 2 -1.5715 -0.0772
-5 7 3 -0.4862 0.1798
-5 7 4 -0.7941 0.0010
-5 7 5 -0.4607 -0.1312
-5 7 6 -0.6373 0.0324
-5 7 7 -1.2050 0.0903
-5 7 8 -0.8760 -0.0403
-5 7 9 -0.8857 -0.0352
-5 7 10 -0.8381 0.0632
-5 7 11 0.1876 0.0193
-5 7 12 0.8364 -0.0764
-5 7 13 0.8102 -0.0253
-5 7 14 0.4856 0.0858
-5 8 1 0.4704 0.4518
-5 8 2 0.5103 0.0698
-5 8 3 -0.4762 -0.1689
-5 8 4 0.5517 -0.0113
-5 8 5 0.5686 0.1161
-5 8 6 -0.5621 -0.0228
-5 8 7 0.3757 -0.0809
-5 8 8 1.6690 0.0388
-5 8 9 1.3952 0.0432
-5 8 10 0.5085 -0.0572
-5 8 11 -0.8332 -0.0356
-5 8 12 -1.9324 0.0598
-5 8 13 -1.5773 0.0295
-5 8 14 -0.4200 -0.0828
-5 9 1 -0.0054 -0.4439
-5 9 2 1.4973 -0.0716
-5 9 3 2.0269 0.1464
-5 9 4 0.1515 0.0138
-5 9 5 -0.4891 -0.0942
-5 9 6 1.6589 0.0225
-5 9 7 1.6307 0.0746
-5 9 8 -1.4685 -0.0362
-5 9 9 -2.1474 -0.0592
-5 9 10 0.1639 0.0196
-5 9 11 1.3501 0.0089
-5 9 12 1.3256 -0.0378
-5 9 13 1.6621 0.0301
-5 10 1 1.3257 0.3736
-5 10 2 -1.8010 0.0368
-5 10 3 -2.7534 -0.1326
-5 10 4 -0.3438 -0.0105
-5 10 5 0.4262 0.0724
-5 10 6 -1.6189 -0.0248
-5 10 7 -1.9418 -0.0693
-5 10 8 0.6851 0.0187
-5 10 9 1.4254 0.0440
-5 10 10 -1.2704 -0.0286
-5 10 11 -2.4503 -0.0185
-5 10 12 -0.6909 0.0493
-5 10 13 0.0363 -0.0291
-5 11 1 -1.8026 -0.3141
-5 11 2 0.8993 -0.0070
-5 11 3 2.3746 0.1278
-5 11 4 0.2540 -0.0151
-5 11 5 -0.2916 -0.0839
-5 11 6 1.9793 0.0234
-5 11 7 1.5740 0.0456
-5 11 8 -1.5989 -0.0410
-5 11 9 -1.2768 -0.0423
-5 11 10 2.6526 0.0461
-5 11 11 3.7921 0.0644
-5 11 12 1.1535 -0.0194
-5 12 1 1.9534 0.3413
-5 12 2 0.1250 0.1070
-5 12 3 -1.3866 -0.1067
-5 12 4 -0.2123 -0.0018
-5 12 5 0.6340 0.1223
-5 12 6 -1.5443 0.0107
-5 12 7 -2.5978 -0.0437
-5 12 8 0.8201 0.0587
-5 12 9 2.5160 0.0634
-5 12 10 -1.6488 -0.0232
-5 12 11 -4.5173 -0.0290
-5 12 12 -2.0648 0.0222
-5 13 1 -1.9751 -0.2843
-5 13 2 -1.0479 -0.2655
-5 13 3 0.2851 0.0167
-5 13 4 0.3733 0.1003
-5 13 5 -0.4252 -0.0394
-5 13 6 -0.2911 -0.0174
-5 13 7 1.5538 0.0671
-5 13 8 1.4715 0.0073
-5 13 9 -1.2719 -0.0080
-5 13 10 -0.7707 0.0446
-5 13 11 2.6384 -0.0277
-5 14 4 -0.3463 -0.1318
-5 14 5 -0.7047 -0.1075
-5 14 6 0.1877 -0.0795
-5 14 7 0.4697 -0.1157
-5 14 8 -0.9024 -0.0829
-5 14 9 -0.8328 -0.0850
-5 14 10 0.5404 -0.1370
-4 -11 2 -1.4582 -0.0759
-4 -11 3 0.6233 0.2658
-4 -11 4 2.5403 0.0385
-4 -10 1 -1.1756 0.5315
-4 -10 2 -0.1618 0.1423
-4 -10 3 -0.1083 -0.1967
-4 -10 4 -1.7797 -0.0590
-4 -10 5 -2.2522 0.2071
-4 -9 1 1.7787 -0.4843
-4 -9 2 2.0176 -0.0589
-4 -9 3 2.1428 0.1507
-4 -9 4 1.3882 0.0293
-4 -9 5 1.1509 -0.1213
-4 -9 6 1.2180 -0.0988
-4 -8 1 -1.9198 0.5683
-4 -8 3 -2.4633 -0.1904
-4 -8 4 -2.4909 0.0214
-4 -8 5 -0.7692 0.0931
-4 -8 6 0.2678 -0.0299
-4 -8 7 0.0356 0.0381
-4 -7 1 1.8173 -0.6087
-4 -7 2 2.4405 -0.0997
-4 -7 3 1.4940 0.2092
-4 -7 4 1.7964 -0.0114
-4 -7 5 1.8995 -0.1337
-4 -7 6 -0.0853 0.0755
-4 -7 7 -1.2970 0.0648
-4 -7 8 -0.6786 -0.1508
-4 -6 1 -0.6545 0.5873
-4 -6 2 -3.4449 0.0988
-4 -6 3 -2.9425 -0.1971
-4 -6 4 -1.6715 -0.0072
-4 -6 5 -2.2788 0.1317
-4 -6 6 -1.7546 -0.0521
-4 -6 7 0.3234 -0.1005
-4 -6 8 0.9497 0.0671
-4 -5 1 -1.4044 -0.6370
-4 -5 2 1.2496 -0.0780
-4 -5 3 2.7162 0.2252
-4 -5 4 3.0167 -0.0034
-4 -5 5 3.2199 -0.1294
-4 -5 6 2.6091 0.0512
-4 -5 7 1.0871 0.0708
-4 -5 8 -0.0253 -0.0432
-4 -5 9 -0.0259 -0.0140
-4 -4 1 2.4705 0.6648
-4 -4 2 1.0084 0.1135
-4 -4 3 -0.2090 -0.2369
-4 -4 4 -2.1243 -0.0044
-4 -4 5 -3.9238 0.1486
-4 -4 6 -3.2348 -0.0485
-4 -4 7 -1.3108 -0.0610
-4 -4 8 -0.1788 0.0759
-4 -4 9 -0.2665 -0.0035
-4 -4 10 -1.5870 -0.0504
-4 -3 1 -2.0291 -0.6454
-4 -3 2 -0.6060 -0.1050
-4 -3 3 0.1641 0.2203
-4 -3 4 1.1279 0.0093
-4 -3 5 2.6299 -0.1365
-4 -3 6 2.9570 0.0417
-4 -3 7 1.8490 0.0726
-4 -3 8 0.4175 -0.0657
-4 -3 9 -0.1316 -0.0303
-4 -3 10 1.1301 0.0471
-4 -3 11 2.0342 0.0239
-4 -2 1 1.8288 0.6710
-4 -2 2 -0.1949 0.0799
-4 -2 3 -1.1103 -0.2412
-4 -2 4 -1.4113 0.0060
-4 -2 5 -1.1862 0.1314
-4 -2 6 -0.8609 -0.0536
-4 -2 7 -1.4440 -0.0700
-4 -2 8 -1.5035 0.0419
-4 -2 9 -0.3894 0.0189
-4 -2 10 -0.3160 -0.0024
-4 -2 11 -0.7837 -0.0110
-4 -1 1 -1.7894 -0.6811
-4 -1 2 0.3272 -0.1016
-4 -1 3 1.0285 0.2545
-4 -1 4 0.6124 -0.0020
-4 -1 5 -0.1151 -0.1552
-4 -1 6 -0.9639 0.0534
-4 -1 7 -0.2452 0.0720
-4 -1 8 1.2764 -0.0635
-4 -1 9 1.2346 -0.0095
-4 -1 10 0.6609 0.0293
-4 -1 11 0.3121 -0.0192
-4 -1 12 -0.4099 0.0458
-4 0 1 1.6245 0.6654
-4 0 2 -0.4272 0.1061
-4 0 3 -1.1826 -0.2288
-4 0 4 -0.2308 -0.0013
-4 0 5 0.9331 0.1527
-4 0 6 1.2650 -0.0394
-4 0 7 0.4540 -0.0851
-4 0 8 -0.4426 0.0652
-4 0 9 -0.7509 0.0384
-4 0 10 -1.2648 -0.0599
-4 0 11 -1.2020 -0.0212
-4 0 12 0.0910 0.0066
-4 0 13 0.6256 -0.0285
-4 1 1 -2.1131 -0.6632
-4 1 2 0.1521 -0.0864
-4 1 3 1.0891 0.2288
-4 1 4 0.7712 -0.0123
-4 1 5 -0.0785 -0.1377
-4 1 6 -0.5235 0.0456
-4 1 7 0.5546 0.0826
-4 1 8 0.9722 -0.0440
-4 1 9 0.0463 -0.0390
-4 1 10 0.8601 0.0466
-4 1 11 1.9894 0.0283
-4 1 12 0.3595 -0.0325
-4 1 13 -1.1825 0.0144
-4 2 1 2.2985 0.6412
-4 2 2 0.3688 0.0835
-4 2 3 -0.5116 -0.2483
-4 2 4 -0.7348 0.0015
-4 2 5 -0.9783 0.1389
-4 2 6 -0.4335 -0.0528
-4 2 7 -0.5845 -0.0774
-4 2 8 -1.1276 0.0525
-4 2 9 -0.1697 0.0353
-4 2 10 -0.1016 -0.0408
-4 2 11 -1.3499 -0.0090
-4 2 12 -0.2976 0.0775
-4 2 13 1.6581 0.0238
-4 2 14 1.0983 -0.1490
-4 3 1 -2.4596 -0.6215
-4 3 2 -1.1338 -0.0956
-4 3 3 -0.3294 0.2272
-4 3 4 0.4791 0.0066
-4 3 5 1.3591 -0.1346
-4 3 6 1.1606 0.0462
-4 3 7 0.4691 0.0800
-4 3 8 0.0841 -0.0578
-4 3 9 -0.0789 -0.0477
-4 3 10 0.3604 0.0389
-4 3 11 0.5740 0.0222
-4 3 12 -0.4350 -0.0561
-4 3 13 -1.0534 -0.0401
-4 3 14 -0.3754 0.1030
-4 4 1 2.4360 0.6068
-4 4 2 2.2741 0.0961
-4 4 3 1.6515 -0.1991
-4 4 4 0.2862 0.0147
-4 4 5 -0.8930 0.1362
-4 4 6 -0.9292 -0.0389
-4 4 7 -0.9618 -0.0785
-4 4 8 -0.1770 0.0489
-4 4 9 0.9058 0.0432
-4 4 10 -0.4641 -0.0453
-4 4 11 -1.5116 -0.0314
-4 4 12 0.2799 0.0188
-4 4 13 0.4931 -0.0201
-4 4 14 -1.4922 -0.0719
-4 5 1 0.0210 -0.5804
-4 5 2 -1.7724 -0.0779
-4 5 3 -1.7941 0.2092
-4 5 4 -0.6358 -0.0055
-4 5 5 -0.0401 -0.1257
-4 5 6 -0.4903 0.0320
-4 5 7 0.1719 0.0655
-4 5 8 0.7828 -0.0455
-4 5 9 -0.7710 -0.0389
-4 5 10 -0.6766 0.0486
-4 5 11 1.7364 0.0289
-4 5 12 1.3749 -0.0453
-4 5 13 -0.0471 0.0119
-4 5 14 1.4583 0.0770
-4 5 15 2.1796 -0.0471
-4 6 1 -1.8923 0.5634
-4 6 2 -0.3526 0.0785
-4 6 3 0.4824 -0.2081
-4 6 4 -0.3760 -0.0111
-4 6 5 -0.3724 0.0918
-4 6 6 0.7251 -0.0470
-4 6 7 0.8401 -0.0511
-4 6 8 0.2073 0.0461
-4 6 9 0.4698 0.0262
-4 6 10 0.7858 -0.0387
-4 6 11 -0.4758 -0.0150
-4 6 12 -1.5795 0.0567
-4 6 13 -0.7931 0.0339
-4 6 14 -0.3280 -0.0226
-4 7 1 0.3086 -0.5267
-4 7 2 0.8656 -0.0858
-4 7 3 0.0608 0.1864
-4 7 4 0.4226 -0.0111
-4 7 5 0.9711 -0.1069
-4 7 6 0.4602 0.0514
-4 7 7 0.0463 0.0562
-4 7 8 -0.7141 -0.0484
-4 7 9 -1.1364 -0.0138
-4 7 10 0.0477 0.0489
-4 7 11 1.0014 0.0056
-4 7 12 0.9519 -0.0389
-4 7 13 0.8128 0.0086
-4 7 14 0.3584 0.0183
-4 8 1 0.3984 0.4876
-4 8 2 -0.2725 0.0735
-4 8 3 0.0324 -0.1850
-4 8 4 0.4358 0.0074
-4 8 5 -0.4664 0.1320
-4 8 6 -0.9379 -0.0155
-4 8 7 -0.5776 -0.0541
-4 8 8 0.3059 0.0412
-4 8 9 1.0992 0.0267
-4 8 10 -0.0278 -0.0397
-4 8 11 -1.8328 -0.0082
-4 8 12 -1.7880 0.0364
-4 8 13 -0.9661 -0.0341
-4 8 14 -0.7134 -0.0708
-4 8 15 -0.6026 0.0575
-4 9 1 0.8509 -0.4602
-4 9 2 0.7431 -0.0697
-4 9 3 0.3053 0.1770
-4 9 4 -0.2449 0.0119
-4 9 5 0.3528 -0.1015
-4 9 6 1.2288 0.0243
-4 9 7 0.5027 0.0519
-4 9 8 -0.7877 -0.0356
-4 9 9 -0.6912 -0.0236
-4 9 10 0.4195 0.0238
-4 9 11 1.3817 -0.0098
-4 9 12 1.8441 -0.0469
-4 9 13 1.6253 0.0001
-4 9 14 0.9736 0.0391
-4 10 1 -0.6270 0.3986
-4 10 2 -0.7800 0.0636
-4 10 3 -0.1862 -0.1580
-4 10 4 0.0378 0.0025
-4 10 5 -0.2599 0.0978
-4 10 6 -0.8228 -0.0538
-4 10 7 -0.7845 -0.0814
-4 10 8 0.3025 0.0382
-4 10 9 0.5140 0.0186
-4 10 10 -0.9808 -0.0586
-4 10 11 -2.0955 -0.0003
-4 10 12 -2.0045 0.0536
-4 10 13 -1.5685 -0.0118
-4 10 14 -0.9236 -0.0295
-4 11 1 0.1751 -0.3968
-4 11 2 -0.1535 -0.0837
-4 11 3 -0.5605 0.1465
-4 11 4 -0.2976 -0.0037
-4 11 5 0.0863 -0.1154
-4 11 6 -0.2639 0.0247
-4 11 7 -0.3652 0.0732
-4 11 8 0.3948 -0.0482
-4 11 9 0.8426 -0.0498
-4 11 10 1.0831 0.0591
-4 11 11 2.5065 0.0281
-4 11 12 3.8147 -0.0479
-4 11 13 2.7177 0.0497
-4 12 1 -1.2895 0.4436
-4 12 2 0.1022 0.1516
-4 12 3 1.0590 -0.1292
-4 12 4 0.3860 -0.0140
-4 12 5 -0.7810 0.0912
-4 12 6 -0.9338 -0.0238
-4 12 7 0.2084 -0.0455
-4 12 8 0.3422 0.0634
-4 12 9 -1.3740 0.0650
-4 12 10 -1.8673 -0.0180
-4 12 11 -1.5644 0.0006
-4 12 12 -3.3110 0.0608
-4 12 13 -3.9768 -0.0323
-4 13 1 1.4939 -0.3021
-4 13 2 0.5641 -0.1140
-4 13 3 -1.1695 0.1665
-4 13 4 -0.9383 0.0510
-4 13 5 0.6534 -0.0792
-4 13 6 2.3579 0.0455
-4 13 7 2.5954 0.0750
-4 13 8 0.8749 -0.0330
-4 13 9 0.5714 -0.0151
-4 13 10 1.9203 0.0581
-4 13 11 1.5509 0.0150
-4 13 12 1.0939 -0.0465
-4 14 2 -0.2556 -0.0435
-4 14 3 1.0007 -0.2448
-4 14 4 1.4347 -0.1152
-4 14 5 0.5753 0.0884
-4 14 6 -0.9038 0.0189
-4 14 7 -2.5324 -0.0475
-4 14 8 -2.4808 0.0155
-4 14 9 -1.0649 -0.0334
-4 14 10 -0.9472 -0.1406
-4 14 11 -1.3948 -0.1145
-4 15 5 -0.7316 -0.0915
-4 15 6 -0.5170 -0.1035
-4 15 9 1.1206 -0.0340
-3 -12 2 -2.2439 0.0347
-3 -12 3 -0.5400 0.0126
-3 -11 1 0.8525 -0.5392
-3 -11 2 2.9909 -0.0468
-3 -11 3 2.6002 0.0950
-3 -11 4 0.0816 -0.0961
-3 -10 1 0.3700 0.5679
-3 -10 2 -2.1142 0.0820
-3 -10 3 -2.6160 -0.1830
-3 -10 4 -1.6347 0.0422
-3 -10 5 -0.7366 0.0405
-3 -9 1 -0.4025 -0.5429
-3 -9 2 2.4791 -0.0793
-3 -9 3 2.0343 0.2003
-3 -9 4 0.5995 0.0084
-3 -9 5 1.8163 -0.0983
-3 -9 6 2.5863 0.0964
-3 -8 1 0.1864 0.5993
-3 -8 2 -1.8637 0.0535
-3 -8 3 -2.3600 -0.2160
-3 -8 4 -0.0330 0.0005
-3 -8 5 0.0780 0.1005
-3 -8 6 -2.4781 -0.0297
-3 -8 7 -2.3511 -0.0411
-3 -7 1 -0.1439 -0.6597
-3 -7 2 -0.8230 -0.0890
-3 -7 3 -0.0116 0.2451
-3 -7 4 0.7056 -0.0185
-3 -7 5 -0.1228 -0.1422
-3 -7 6 -0.0232 0.0533
-3 -7 7 0.9994 0.0493
-3 -7 8 0.2780 -0.1055
-3 -6 1 -0.8887 0.6327
-3 -6 2 1.4325 0.1116
-3 -6 3 2.7344 -0.2229
-3 -6 4 0.4004 0.0026
-3 -6 5 -1.7326 0.1619
-3 -6 6 -0.4553 -0.0270
-3 -6 7 1.2011 -0.1062
-3 -6 8 1.1114 0.0499
-3 -6 9 0.5751 0.1775
-3 -5 1 2.4083 -0.6375
-3 -5 2 0.8141 -0.0647
-3 -5 3 -1.2758 0.2091
-3 -5 4 -0.8375 -0.0136
-3 -5 5 1.7014 -0.1153
-3 -5 6 2.1841 0.0242
-3 -5 7 -0.2863 0.0718
-3 -5 8 -1.6494 0.0129
-3 -5 9 -0.2819 -0.0691
-3 -5 10 0.4653 -0.1303
-3 -4 1 -2.6090 0.6812
-3 -4 2 -2.7697 0.0661
-3 -4 3 -1.6036 -0.2370
-3 -4 4 -0.5772 0.0259
-3 -4 5 -0.6509 0.1051
-3 -4 6 -1.1909 -0.0656
-3 -4 7 -0.7128 -0.0450
-3 -4 8 0.0441 0.0338
-3 -4 9 -1.0554 0.0016
-3 -4 10 -1.7759 -0.0066
-3 -3 1 3.8726 -0.6742
-3 -3 2 4.2736 -0.0976
-3 -3 3 3.3459 0.2242
-3 -3 4 1.4793 -0.0108
-3 -3 5 -0.1811 -0.1203
-3 -3 6 -0.6654 0.0559
-3 -3 7 -0.2292 0.0646
-3 -3 8 0.7076 -0.0598
-3 -3 9 2.3591 -0.0497
-3 -3 10 2.7886 0.0535
-3 -3 11 0.5094 0.0736
-3 -2 1 -6.1707 0.6967
-3 -2 2 -6.2611 0.0836
-3 -2 3 -4.3113 -0.2095
-3 -2 4 -1.8315 0.0187
-3 -2 5 0.3935 0.1120
-3 -2 7 0.6017 -0.0563
-3 -2 8 -0.3970 0.0260
-3 -2 9 -2.0486 0.0575
-3 -2 10 -2.6472 -0.0110
-3 -2 11 -0.6282 -0.0828
-3 -2 12 0.9530 -0.0347
-3 -1 1 5.0279 -0.7137
-3 -1 2 6.5646 -0.0800
-3 -1 3 4.3081 0.2407
-3 -1 4 1.4079 -0.0226
-3 -1 5 -0.0579 -0.1149
-3 -1 6 -0.3365 0.0428
-3 -1 7 0.0693 0.0414
-3 -1 8 0.4058 -0.0284
-3 -1 9 1.0537 -0.0202
-3 -1 10 1.5904 0.0231
-3 -1 11 0.3027 0.0388
-3 -1 12 -1.1296 -0.0471
-3 0 1 -1.4183 0.6676
-3 0 2 -3.9928 0.0804
-3 0 3 -3.6736 -0.2472
-3 0 4 -1.1170 0.0040
-3 0 5 0.0556 0.1237
-3 0 6 -0.5929 -0.0500
-3 0 7 -0.7921 -0.0605
-3 0 8 -0.2753 0.0492
-3 0 9 -0.3743 0.0330
-3 0 10 -0.6323 -0.0487
-3 0 11 0.3651 -0.0477
-3 0 12 1.4855 0.0780
-3 0 13 1.0146 0.1797
-3 1 1 -2.0247 -0.6818
-3 1 2 0.2915 -0.0773
-3 1 3 1.7289 0.2227
-3 1 4 1.7197 -0.0140
-3 1 5 0.7879 -0.1207
-3 1 6 1.0120 0.0405
-3 1 7 1.1154 0.0700
-3 1 8 -0.0248 -0.0391
-3 1 9 0.0487 -0.0486
-3 1 10 0.6262 0.0326
-3 1 11 -0.9087 0.0372
-3 1 12 -2.2497 -0.0384
-3 1 13 -1.1040 -0.0675
-3 1 14 0.3637 -0.0583
-3 2 1 3.7515 0.6887
-3 2 2 2.4442 0.0889
-3 2 3 1.3751 -0.2145
-3 2 4 -0.4371 0.0309
-3 2 5 -1.4292 0.1194
-3 2 6 -1.5269 -0.0410
-3 2 7 -1.2150 -0.0583
-3 2 9 0.2069 0.0345
-3 2 10 -1.0883 -0.0390
-3 2 11 0.2334 -0.0108
-3 2 12 2.3323 0.0560
-3 2 13 1.1487 -0.0375
-3 2 14 -0.8045 -0.1025
-3 3 1 -1.6820 -0.6290
-3 3 2 -2.2324 -0.0690
-3 3 3 -2.1624 0.2218
-3 3 4 -1.1562 -0.0201
-3 3 5 0.0746 -0.1097
-3 3 6 1.3165 0.0466
-3 3 7 1.7360 0.0529
-3 3 8 0.4378 -0.0422
-3 3 9 -0.1850 -0.0307
-3 3 10 0.8863 0.0514
-3 3 11 0.5567 0.0276
-3 3 12 -0.7424 -0.0677
-3 3 13 -0.0781 0.0095
-3 3 14 0.9977 0.1165
-3 3 15 0.6129 -0.0139
-3 4 1 0.1222 0.6377
-3 4 2 0.6858 0.0629
-3 4 3 0.7090 -0.2146
-3 4 4 -0.0374 0.0180
-3 4 5 0.2150 0.0971
-3 4 6 -0.5801 -0.0486
-3 4 7 -2.3150 -0.0451
-3 4 8 -1.8196 0.0424
-3 4 9 -0.8366 0.0229
-3 4 10 -1.1541 -0.0396
-3 4 11 -0.5091 -0.0185
-3 4 12 -0.0611 0.0349
-3 4 13 -1.5254 -0.0061
-3 4 14 -1.8138 -0.0267
-3 4 15 -0.3982 0.0904
-3 5 1 -1.7560 -0.6425
-3 5 2 -1.2471 -0.0813
-3 5 3 -0.6119 0.1931
-3 5 4 0.6239 -0.0307
-3 5 5 0.7197 -0.0983
-3 5 6 0.8070 0.0492
-3 5 7 2.2900 0.0446
-3 5 8 2.4724 -0.0483
-3 5 9 1.7101 -0.0220
-3 5 10 2.2036 0.0423
-3 5 11 1.4054 -0.0098
-3 5 12 -0.3700 -0.0529
-3 5 13 0.7160 0.0365
-3 5 14 2.1776 0.0243
-3 6 1 1.6491 0.5932
-3 6 2 1.8506 0.0533
-3 6 3 1.1545 -0.1999
-3 6 4 0.5129 0.0265
-3 6 5 -0.0812 0.0969
-3 6 6 -1.1629 -0.0454
-3 6 7 -1.9733 -0.0558
-3 6 8 -1.6172 0.0357
-3 6 9 -1.0957 0.0342
-3 6 10 -1.8175 -0.0397
-3 6 11 -2.1317 -0.0097
-3 6 12 -0.3555 0.0623
-3 6 13 0.7127 -0.0122
-3 6 14 -0.6308 -0.0476
-3 7 1 -0.5281 -0.5923
-3 7 2 -0.6850 -0.0512
-3 7 3 -0.5706 0.2110
-3 7 4 -0.6349 -0.0180
-3 7 5 -0.7850 -0.0978
-3 7 6 0.8039 0.0367
-3 7 7 1.9856 0.0498
-3 7 8 0.9399 -0.0306
-3 7 9 0.1877 -0.0311
-3 7 10 0.5784 0.0344
-3 7 11 0.8821 0.0263
-3 7 12 0.7641 -0.0237
-3 7 13 0.1872 0.0177
-3 7 14 0.1169 0.0311
-3 7 15 0.7775 -0.0635
-3 8 1 1.7337 0.5678
-3 8 2 0.5579 0.0782
-3 8 3 0.0972 -0.1873
-3 8 4 0.1881 0.0188
-3 8 5 0.7788 0.1036
-3 8 6 0.1220 -0.0286
-3 8 7 -1.3849 -0.0446
-3 8 8 -1.1899 0.0480
-3 8 9 -0.3892 0.0437
-3 8 10 -0.3993 -0.0446
-3 8 11 -0.1080 -0.0263
-3 8 12 -0.0542 0.0406
-3 8 13 -0.9490 -0.0247
-3 8 14 -1.4904 -0.0502
-3 8 15 -1.1639 0.0704
-3 9 1 -2.3232 -0.5027
-3 9 2 -1.5693 -0.0449
-3 9 3 -0.0964 0.1774
-3 9 4 0.4855 -0.0203
-3 9 5 -0.0857 -0.0864
-3 9 6 -0.5951 0.0418
-3 9 7 -0.1904 0.0562
-3 9 8 0.4530 -0.0341
-3 9 9 0.7143 -0.0438
-3 9 10 0.8773 0.0423
-3 9 11 0.8612 0.0341
-3 9 12 0.5045 -0.0700
-3 9 13 0.5971 -0.0375
-3 9 14 1.4355 0.0413
-3 9 15 1.6699 -0.0472
-3 10 1 0.9056 0.4757
-3 10 2 1.6352 0.0257
-3 10 3 0.3834 -0.1875
-3 10 4 -1.2623 0.0358
-3 10 5 -1.1886 0.0918
-3 10 6 -0.2843 -0.0616
-3 10 7 0.2624 -0.0597
-3 10 8 0.5070 0.0327
-3 10 9 0.2719 0.0139
-3 10 10 -0.7009 -0.0525
-3 10 11 -1.8214 -0.0265
-3 10 12 -1.8588 0.0432
-3 10 13 -0.7901 0.0248
-3 10 14 -0.3459 -0.0124
-3 10 15 -0.8300 0.0495
-3 11 1 -0.0013 -0.4437
-3 11 2 -0.8334 -0.0666
-3 11 3 -0.9090 0.1746
-3 11 4 0.6429 -0.0346
-3 11 5 1.2895 -0.1321
-3 11 6 0.1500 0.0357
-3 11 7 -0.2903 0.0583
-3 11 8 0.0084 -0.0668
-3 11 9 -0.7416 -0.0437
-3 11 10 -0.7355 0.0551
-3 11 11 1.5443 0.0090
-3 11 12 2.7893 -0.0451
-3 11 13 1.3021 0.0492
-3 11 14 0.0829 0.0871
-3 12 1 0.5128 0.3972
-3 12 2 0.3668 0.1002
-3 12 3 0.7610 -0.1379
-3 12 4 0.0613 -0.0170
-3 12 5 -1.0213 0.0942
-3 12 6 0.5890 -0.0127
-3 12 7 2.7439 -0.0674
-3 12 8 1.3019 0.0418
-3 12 9 -0.1765 0.0732
-3 12 10 1.2081 -0.0280
-3 12 11 0.7142 -0.0117
-3 12 12 -1.8007 0.0897
-3 12 13 -1.5472 0.0142
-3 13 1 -1.2832 -0.2853
-3 13 2 -1.0261 -0.0745
-3 13 3 -0.8232 0.0927
-3 13 4 -0.0181 0.0330
-3 13 5 1.8512 -0.0106
-3 13 6 1.5159 0.0429
-3 13 7 -2.2935 0.0693
-3 13 8 -3.2672 0.0126
-3 13 9 0.0766 -0.0281
-3 13 10 0.5693 0.0430
-3 13 11 -1.5976 0.0776
-3 13 12 -0.8794 -0.0456
-3 14 1 1.4341 0.0758
-3 14 2 1.7765 -0.0286
-3 14 3 1.6063 -0.0720
-3 14 4 0.8138 0.0340
-3 14 5 -1.3562 0.0400
-3 14 6 -3.2504 -0.0189
-3 14 7 -1.8633 -0.0117
-3 14 8 0.4228 0.0204
-3 14 9 -0.5827 0.0357
-3 14 10 -1.9853 -0.0217
-3 14 11 -0.3144 -0.1246
-3 15 3 -1.1934 0.0548
-3 15 4 -1.1211 -0.1018
-3 15 8 2.6841 -0.1119
-3 15 9 2.7363 -0.1069
-3 15 10 2.2460 -0.0919
-2 -13 1 0.3735 -0.3685
-2 -13 2 -0.2435 -0.0550
-2 -12 1 -0.3788 0.4108
-2 -12 2 0.4984 0.0477
-2 -12 3 1.3492 0.0301
-2 -11 1 -0.3369 -0.4698
-2 -11 2 -0.2680 -0.0027
-2 -11 3 -1.5861 0.0917
-2 -11 4 -1.3161 -0.1821
-2 -10 1 0.2406 0.5571
-2 -10 2 -0.0994 0.0321
-2 -10 3 0.8921 -0.1912
-2 -10 4 0.7448 0.0459
-2 -9 1 -0.6503 -0.5940
-2 -9 2 0.1616 -0.0885
-2 -9 3 -0.6467 0.1938
-2 -9 4 -0.4482 0.0001
-2 -9 5 1.0807 -0.0814
-2 -9 6 0.8348 0.0802
-2 -8 1 1.5166 0.5954
-2 -8 2 0.9945 0.0652
-2 -8 3 0.9919 -0.1797
-2 -8 4 0.9237 0.0078
-2 -8 5 -0.5860 0.0908
-2 -8 6 -0.9441 0.0091
-2 -8 7 0.7170 -0.0497
-2 -7 1 0.1145 -0.6371
-2 -7 2 -2.1290 -0.0330
-2 -7 3 -2.6057 0.2067
-2 -7 4 -1.8886 -0.0371
-2 -7 5 -0.5233 -0.0779
-2 -7 6 0.6809 0.0295
-2 -7 7 0.2347 -0.0148
-2 -7 8 -0.7898 -0.0485
-2 -6 1 -3.3357 0.6577
-2 -6 2 0.0634 0.0691
-2 -6 3 3.6183 -0.2204
-2 -6 4 4.1293 0.0379
-2 -6 5 2.4321 0.1101
-2 -6 6 0.8661 -0.0653
-2 -6 7 -0.2006 -0.0560
-2 -6 8 -0.5428 0.0668
-2 -6 9 -0.0191 0.0229
-2 -5 1 6.1021 -0.6462
-2 -5 2 4.0009 -0.0727
-2 -5 3 -0.5361 0.1990
-2 -5 4 -4.4059 -0.0125
-2 -5 5 -4.6354 -0.1037
-2 -5 6 -3.2769 0.0260
-2 -5 7 -1.7601 0.0679
-2 -5 8 0.4154 -0.0063
-2 -5 9 1.1242 -0.0235
-2 -5 10 -0.6250 0.0024
-2 -4 1 -5.7564 0.6914
-2 -4 2 -5.0758 0.0526
-2 -4 3 -2.6193 -0.2122
-2 -4 4 0.9350 0.0193
-2 -4 5 3.5725 0.0797
-2 -4 6 4.4920 -0.0349
-2 -4 7 3.7932 -0.0331
-2 -4 8 1.1467 0.0241
-2 -4 9 -1.1656 -0.0080
-2 -4 10 -0.3400 -0.0281
-2 -4 11 1.2618 0.1444
-2 -3 1 1.4877 -0.7040
-2 -3 2 0.8917 -0.0810
-2 -3 3 0.4659 0.2301
-2 -3 4 0.2009 -0.0225
-2 -3 5 -0.4368 -0.1184
-2 -3 6 -2.4288 0.0405
-2 -3 7 -3.9788 0.0630
-2 -3 8 -2.5451 -0.0560
-2 -3 9 0.0938 -0.0506
-2 -3 10 0.7556 0.0681
-2 -3 11 0.3594 -0.0042
-2 -3 12 0.4513 -0.1711
-2 -2 1 -1.3033 0.6853
-2 -2 2 3.9788 0.0699
-2 -2 3 4.4438 -0.2138
-2 -2 4 2.5537 0.0117
-2 -2 5 0.2750 0.1269
-2 -2 6 -0.2706 -0.0067
-2 -2 7 1.5893 -0.0821
-2 -2 8 2.6109 0.0195
-2 -2 9 1.2732 0.0833
-2 -2 10 -0.0064 -0.0234
-2 -2 11 -0.8577 -0.0609
-2 -2 12 -1.6981 0.0316
-2 -1 1 8.9379 -0.7516
-2 -1 2 -2.7370 -0.0479
-2 -1 3 -7.5149 0.2227
-2 -1 4 -5.3860 -0.0239
-2 -1 5 -1.8806 -0.0944
-2 -1 6 0.3873 0.0293
-2 -1 7 0.8078 0.0666
-2 -1 8 -0.6243 -0.0113
-2 -1 9 -1.5350 -0.0457
-2 -1 10 -1.1120 0.0342
-2 -1 11 -0.1915 0.0306
-2 -1 12 1.1395 -0.0408
-2 -1 13 1.6394 0.0275
-2 0 1 -17.4732 0.7540
-2 0 2 -4.1221 0.0725
-2 0 3 6.1731 -0.2311
-2 0 4 7.5934 0.0307
-2 0 5 3.7311 0.1017
-2 0 6 0.8891 -0.0567
-2 0 7 -0.7058 -0.0750
-2 0 8 -1.1373 0.0439
-2 0 9 0.1583 0.0587
-2 0 10 1.3303 -0.0682
-2 0 11 1.2778 -0.0509
-2 0 12 0.3278 0.0871
-2 0 13 -1.0147 -0.0017
-2 0 14 -1.5122 -0.1822
-2 1 1 20.2187 -0.6905
-2 1 2 9.8617 -0.0437
-2 1 3 -0.8805 0.2149
-2 1 4 -6.5367 -0.0275
-2 1 5 -5.5925 -0.1114
-2 1 6 -2.6259 0.0277
-2 1 7 -0.7256 0.0689
-2 1 8 0.7387 -0.0405
-2 1 9 0.6747 -0.0792
-2 1 10 -1.0239 0.0354
-2 1 11 -1.5402 0.0558
-2 1 12 -0.6192 -0.0596
-2 1 13 0.2351 -0.0250
-2 1 14 0.9869 0.1489
-2 2 1 -13.7157 0.7253
-2 2 2 -8.8603 0.0155
-2 2 3 -2.7220 -0.2178
-2 2 4 1.6877 0.0311
-2 2 5 3.6002 0.0942
-2 2 6 2.9324 -0.0186
-2 2 7 1.5541 -0.0438
-2 2 8 0.2815 0.0301
-2 2 9 -0.1981 0.0398
-2 2 10 1.3036 -0.0394
-2 2 11 1.9542 -0.0215
-2 2 12 0.0830 0.0458
-2 2 13 -0.7251 0.0038
-2 2 14 -0.0265 -0.0450
-2 2 15 -0.1874 -0.0210
-2 3 1 4.6222 -0.7160
-2 3 2 2.9977 -0.0394
-2 3 3 1.7593 0.2095
-2 3 4 1.0883 -0.0319
-2 3 5 0.3315 -0.0874
-2 3 6 -0.1118 0.0366
-2 3 7 -0.3624 0.0573
-2 3 8 -0.3181 -0.0329
-2 3 9 -0.1193 -0.0356
-2 3 10 -1.4387 0.0709
-2 3 11 -2.5276 0.0381
-2 3 12 -0.5779 -0.0594
-2 3 13 1.0517 0.0001
-2 3 14 0.0076 0.0140
-2 4 1 -2.8125 0.6586
-2 4 2 -0.6731 0.0257
-2 4 3 -1.1397 -0.1928
-2 4 4 -1.6089 0.0326
-2 4 5 -1.2679 0.0953
-2 4 6 -1.7175 -0.0265
-2 4 7 -1.5499 -0.0751
-2 4 8 -0.5219 0.0145
-2 4 9 -0.3230 0.0637
-2 4 10 0.6199 -0.0282
-2 4 11 2.2487 -0.0439
-2 4 12 1.5002 0.0458
-2 4 13 -0.0509 0.0222
-2 4 14 0.1624 -0.0322
-2 5 1 3.5525 -0.6795
-2 5 2 2.7598 -0.0306
-2 5 3 3.0107 0.1977
-2 5 4 3.1794 -0.0211
-2 5 5 1.6360 -0.0987
-2 5 6 0.9841 0.0085
-2 5 7 1.1804 0.0619
-2 5 8 0.5221 -0.0110
-2 5 9 0.6166 -0.0518
-2 5 10 0.6407 0.0100
-2 5 11 -1.1138 0.0103
-2 5 12 -1.7885 -0.0428
-2 5 13 -0.6998 -0.0196
-2 6 1 -1.9919 0.6382
-2 6 2 -3.3122 0.0569
-2 6 3 -3.9263 -0.1910
-2 6 4 -3.8162 -0.0031
-2 6 5 -2.7393 0.0935
-2 6 6 -1.2106 -0.0086
-2 6 7 -0.1720 -0.0665
-2 6 8 0.5256 0.0299
-2 6 9 0.2631 0.0557
-2 6 10 -0.7461 -0.0539
-2 6 11 -0.1379 -0.0396
-2 6 12 1.3266 0.0459
-2 6 13 0.9515 0.0084
-2 6 14 -0.0234 -0.0393
-2 7 1 1.5222 -0.5765
-2 7 2 2.5266 -0.0375
-2 7 3 3.4201 0.1790
-2 7 4 3.1788 0.0093
-2 7 5 2.6519 -0.0948
-2 7 6 2.0944 0.0023
-2 7 7 0.9793 0.0859
-2 7 8 -0.1367 -0.0184
-2 7 9 -0.7028 -0.0781
-2 7 10 -0.3912 0.0455
-2 7 11 0.1979 0.0662
-2 7 12 -0.3745 -0.0272
-2 7 13 -1.0739 -0.0058
-2 7 14 -0.4024 0.0387
-2 7 15 0.0371 0.0169
-2 8 1 -0.5348 0.5867
-2 8 2 -1.3819 0.0441
-2 8 3 -2.1297 -0.1671
-2 8 4 -2.5675 0.0012
-2 8 5 -2.1888 0.1043
-2 8 6 -1.7917 0.0111
-2 8 7 -1.6246 -0.0833
-2 8 8 -1.3385 0.0022
-2 8 9 -0.6259 0.0671
-2 8 10 0.1763 -0.0231
-2 8 11 0.0919 -0.0243
-2 8 12 -0.0212 0.0494
-2 8 13 0.9834 0.0071
-2 8 14 1.5574 -0.0215
-2 8 15 0.9178 0.0400
-2 9 1 -1.1937 -0.5319
-2 9 2 -0.7267 -0.0419
-2 9 3 -0.3906 0.1576
-2 9 4 0.6139 -0.0034
-2 9 5 1.2650 -0.0997
-2 9 6 0.7804 -0.0067
-2 9 7 0.6048 0.0833
-2 9 8 1.2577 -0.0019
-2 9 9 1.4807 -0.0621
-2 9 10 1.1421 0.0337
-2 9 11 1.0165 0.0271
-2 9 12 0.4674 -0.0651
-2 9 13 -1.0367 -0.0179
-2 9 14 -2.0662 0.0168
-2 9 15 -1.6374 -0.0844
-2 9 16 -0.6330 -0.1106
-2 10 1 0.3620 0.4991
-2 10 2 1.0191 0.0174
-2 10 3 1.5987 -0.1735
-2 10 4 1.1001 -0.0099
-2 10 5 -0.0453 0.0844
-2 10 6 -0.0466 -0.0014
-2 10 7 0.5026 -0.0816
-2 10 8 -0.0241 0.0009
-2 10 9 -0.9003 0.0714
-2 10 10 -1.3113 -0.0186
-2 10 11 -1.6649 -0.0551
-2 10 12 -1.1958 0.0093
-2 10 13 0.5373 -0.0080
-2 10 14 1.6480 -0.0259
-2 10 15 1.1077 0.0775
-2 11 1 0.6499 -0.5186
-2 11 2 0.1313 -0.0657
-2 11 3 -0.7851 0.1580
-2 11 4 -0.6406 0.0136
-2 11 5 0.3190 -0.0827
-2 11 6 0.2986 -0.0024
-2 11 7 -0.4334 0.0647
-2 11 8 -0.4142 -0.0186
-2 11 9 0.3184 -0.0787
-2 11 10 0.9120 0.0069
-2 11 11 0.9635 0.0419
-2 11 12 0.5266 -0.0062
-2 11 13 -0.0704 0.0248
-2 11 14 -0.4249 0.0527
-2 11 15 -0.1835 -0.0397
-2 12 1 0.0294 0.4110
-2 12 2 -0.0553 0.0595
-2 12 3 0.5074 -0.1248
-2 12 4 0.3824 -0.0009
-2 12 5 -0.7245 0.0951
-2 12 6 -0.6748 0.0098
-2 12 7 0.2034 -0.0791
-2 12 8 0.2626 0.0065
-2 12 9 -0.0326 0.0821
-2 12 10 -0.3500 -0.0257
-2 12 11 -0.4073 -0.0694
-2 12 12 0.4050 0.0559
-2 12 13 0.7240 0.0757
-2 12 14 -0.0689 -0.0326
-2 13 1 -0.1696 -0.3389
-2 13 2 -0.2917 0.0217
-2 13 3 -0.6388 0.1399
-2 13 4 -0.9170 0.0089
-2 13 5 -0.1501 -0.0928
-2 13 6 0.4599 -0.0298
-2 13 7 0.1680 0.0902
-2 13 8 0.1289 0.0470
-2 13 9 -0.0161 -0.0563
-2 13 10 -0.4117 0.0284
-2 13 11 -0.1357 0.1205
-2 13 12 -0.2138 -0.0239
-2 13 13 -0.8590 -0.1679
-2 14 1 -0.7201 0.3854
-2 14 2 -0.0169 0.0219
-2 14 3 0.4925 -0.0948
-2 14 4 0.9403 -0.0043
-2 14 7 -1.6608 -0.0467
-2 14 8 -2.5244 -0.0207
-2 14 9 -1.5110 0.0772
-2 14 10 -0.0025 0.0291
-2 14 11 0.1638 -0.0794
-2 14 12 -0.1547 -0.0161
-2 15 2 0.4032 -0.0815
-2 15 3 -0.3850 -0.0265
-2 15 8 5.0028 -0.0306
-2 15 9 4.6010 -0.1611
-2 15 10 1.8055 -0.1387
-2 15 11 0.6809 -0.0401
-2 16 9 -5.0105 0.1308
-1 -13 1 0.9680 -0.3443
-1 -13 2 2.9154 -0.0117
-1 -12 1 1.8476 0.3874
-1 -12 2 -1.1468 -0.0107
-1 -12 3 -3.0042 0.0874
-1 -11 1 -2.7692 -0.4791
-1 -11 2 -1.7940 0.0293
-1 -11 3 1.5584 0.0628
-1 -11 4 2.9183 -0.2220
-1 -10 1 0.2421 0.5646
-1 -10 2 0.9498 0.0295
-1 -10 3 -0.6333 -0.1781
-1 -10 4 -2.4481 0.0256
-1 -10 5 -1.1801 0.1059
-1 -9 1 1.7109 -0.5907
-1 -9 2 1.2723 -0.0632
-1 -9 3 1.5685 0.1574
-1 -9 4 2.4285 0.0389
-1 -9 5 0.9710 -0.0413
-1 -9 6 -1.4357 0.0363
-1 -9 7 -1.2859 0.1808
-1 -8 2 -1.4098 0.0252
-1 -8 3 -1.2788 -0.1457
-1 -8 4 -2.1971 0.0150
-1 -8 5 -1.7757 0.0674
-1 -8 6 0.8599 0.0167
-1 -8 7 2.0716 -0.0514
-1 -8 8 1.0698 -0.0796
-1 -7 2 1.3163 0.0042
-1 -7 3 0.2477 0.1829
-1 -7 4 1.0055 -0.0274
-1 -7 5 2.4237 -0.0839
-1 -7 6 1.4570 -0.0051
-1 -7 7 -0.9998 0.0043
-1 -7 8 -1.8209 -0.0338
-1 -6 2 -2.1061 0.0427
-1 -6 3 -0.2896 -0.1990
-1 -6 4 -0.2501 0.0111
-1 -6 5 -2.1017 0.0867
-1 -6 6 -3.1211 -0.0296
-1 -6 7 -1.7893 -0.0732
-1 -6 8 0.7262 0.0286
-1 -6 9 1.8591 0.0280
-1 -5 2 0.1349 -0.0740
-1 -5 3 0.2575 0.1792
-1 -5 4 0.2203 0.0054
-1 -5 5 1.1334 -0.0997
-1 -5 6 2.5113 -0.0039
-1 -5 7 3.3220 0.0904
-1 -5 8 1.7268 0.0189
-1 -5 9 -1.1412 -0.0645
-1 -5 10 -1.7436 0.0062
-1 -4 1 1.0306 0.6522
-1 -4 2 3.4588 0.0168
-1 -4 3 2.0858 -0.1806
-1 -4 4 -0.3588 -0.0032
-1 -4 5 -0.7194 0.0854
-1 -4 6 -0.8091 0.0209
-1 -4 7 -2.5380 -0.0499
-1 -4 8 -2.8321 -0.0041
-1 -4 9 -0.3459 0.0611
-1 -4 10 1.0016 0.0424
-1 -4 11 0.0296 -0.0387
-1 -3 1 -1.6739 -0.7452
-1 -3 2 -4.0931 -0.0178
-1 -3 3 -4.8551 0.2111
-1 -3 4 -1.2309 -0.0131
-1 -3 5 1.1045 -0.0954
-1 -3 6 0.3919 0.0094
-1 -3 7 1.0461 0.0662
-1 -3 8 2.1459 -0.0192
-1 -3 9 0.7768 -0.0619
-1 -3 10 -0.1428 0.0082
-1 -3 11 0.8545 0.0407
-1 -3 12 0.7948 0.0621
-1 -2 1 11.8177 0.7211
-1 -2 2 7.3023 0.0637
-1 -2 3 4.7114 -0.1978
-1 -2 4 3.0681 0.0024
-1 -2 5 0.3348 0.1161
-1 -2 6 -0.8982 -0.0039
-1 -2 7 -0.5639 -0.0943
-1 -2 8 -0.5980 0.0051
-1 -2 9 -0.2413 0.0621
-1 -2 10 -0.0286 -0.0328
-1 -2 11 -0.9293 -0.0665
-1 -2 12 -0.8808 -0.0044
-1 -2 13 0.1206 0.0291
-1 -1 1 -17.7224 -0.6410
-1 -1 2 -15.9133 -0.0142
-1 -1 3 -6.2775 0.1771
-1 -1 4 -1.3448 0.0022
-1 -1 5 -1.5731 -0.0991
-1 -1 6 -0.3102 -0.0006
-1 -1 7 0.8541 0.0841
-1 -1 8 -0.2396 -0.0129
-1 -1 9 -0.9237 -0.0510
-1 -1 10 -0.1855 0.0390
-1 -1 11 0.7565 0.0240
-1 -1 12 0.6811 -0.0411
-1 -1 13 -0.0361 -0.0212
-1 0 1 9.3369 0.7130
-1 0 2 18.1500 0.0262
-1 0 3 12.0873 -0.1886
-1 0 4 1.1048 -0.0027
-1 0 5 -0.4922 0.1061
-1 0 6 1.4587 -0.0032
-1 0 7 0.0881 -0.0942
-1 0 8 -0.1503 0.0343
-1 0 9 1.2779 0.0766
-1 0 10 0.9160 -0.0587
-1 0 11 -0.4629 -0.0192
-1 0 12 -0.8992 0.0913
-1 0 13 -0.2838 -0.0197
-1 0 14 0.1710 -0.1686
-1 1 1 2.7133 -0.6888
-1 1 2 -8.3098 -0.1100
-1 1 3 -11.2306 0.1547
-1 1 4 -4.2297 0.0369
-1 1 5 0.6719 -0.1118
-1 1 6 -0.8765 -0.0306
-1 1 7 -1.6127 0.1051
-1 1 8 -0.4896 -0.0096
-1 1 9 -0.8236 -0.1059
-1 1 10 -1.0918 0.0325
-1 1 11 -0.0910 0.0629
-1 1 12 0.6568 -0.0668
-1 1 13 0.4632 -0.0116
-1 1 14 -0.3729 0.1886
-1 2 1 -6.9558 0.5549
-1 2 2 -3.4799 0.0743
-1 2 3 -0.9265 -0.1241
-1 2 4 -0.0669 -0.0601
-1 2 5 0.2306 0.0783
-1 2 6 1.2834 0.0401
-1 2 7 2.2520 -0.0927
-1 2 8 1.9894 -0.0171
-1 2 9 1.6726 0.0803
-1 2 10 1.3394 -0.0062
-1 2 11 0.2030 -0.0612
-1 2 12 -0.3223 0.0046
-1 2 13 0.0567 0.0356
-1 2 14 0.2752 -0.0299
-1 3 1 0.6288 -0.5674
-1 3 2 5.6890 -0.0704
-1 3 3 10.4980 0.1397
-1 3 4 10.3085 0.0691
-1 3 5 4.8156 -0.0807
-1 3 6 -0.5344 -0.0353
-1 3 7 -2.5934 0.0953
-1 3 8 -2.5075 0.0067
-1 3 9 -2.5381 -0.0669
-1 3 10 -2.5819 0.0283
-1 3 11 -1.1378 0.0447
-1 3 12 0.1900 -0.0036
-1 3 13 -0.0091 -0.0048
-1 3 14 0.1667 -0.0490
-1 4 1 6.3562 0.5808
-1 4 2 0.4648 0.1614
-1 4 3 -7.8875 -0.1118
-1 4 4 -11.7352 -0.0917
-1 4 5 -9.1298 0.0974
-1 4 6 -3.1810 0.0669
-1 4 7 1.5501 -0.0936
-1 4 8 2.4630 0.0000
-1 4 9 2.0536 0.0934
-1 4 10 2.8026 -0.0300
-1 4 11 2.5903 -0.0550
-1 4 12 0.9102 0.0421
-1 5 1 -4.0049 -0.5240
-1 5 2 -3.6685 -0.1599
-1 5 3 1.2810 0.0954
-1 5 4 4.8765 0.1073
-1 5 5 5.3899 -0.0810
-1 5 6 3.9337 -0.0732
-1 5 7 0.6458 0.0864
-1 5 8 -1.5927 0.0127
-1 5 9 -1.5659 -0.0885
-1 5 10 -2.0719 0.0143
-1 5 11 -2.5781 0.0626
-1 5 12 -1.4148 -0.0395
-1 5 13 -0.1892 -0.0648
-1 6 1 -1.6674 0.5211
-1 6 2 1.0441 0.1372
-1 6 3 0.7982 -0.1331
-1 6 4 -0.4572 -0.1206
-1 6 5 -0.7674 0.0808
-1 6 6 -1.1914 0.0619
-1 6 7 -1.1246 -0.0967
-1 6 8 0.0252 -0.0261
-1 6 9 0.9485 0.0633
-1 6 10 1.8160 -0.0199
-1 6 11 2.1499 -0.0590
-1 6 12 0.6648 0.0073
-1 6 13 -0.6064 0.0506
-1 7 1 4.3970 -0.5024
-1 7 2 1.7549 -0.1609
-1 7 3 0.2873 0.1261
-1 7 4 0.0305 0.1236
-1 7 5 -0.0310 -0.0953
-1 7 6 0.0385 -0.0813
-1 7 7 0.4458 0.0885
-1 7 8 0.4869 0.0290
-1 7 9 -0.1767 -0.0637
-1 7 10 -1.2404 0.0044
-1 7 11 -1.8509 0.0385
-1 7 12 -0.6945 -0.0063
-1 7 13 1.1014 -0.0204
-1 7 14 0.8478 0.0031
-1 8 1 -4.5034 0.4696
-1 8 2 -2.7387 0.1414
-1 8 3 -1.6684 -0.1049
-1 8 4 -0.9683 -0.1061
-1 8 5 -0.3413 0.0898
-1 8 6 -0.1884 0.0840
-1 8 7 -0.1311 -0.0708
-1 8 8 0.1785 -0.0263
-1 8 9 0.4116 0.0619
-1 8 10 0.4533 0.0151
-1 8 11 0.7676 -0.0184
-1 8 12 0.9862 0.0193
-1 8 13 0.1809 0.0376
-1 8 14 -0.6517 -0.0104
-1 8 15 -0.2125 -0.0346
-1 9 1 2.3462 -0.4498
-1 9 2 1.5242 -0.1223
-1 9 3 1.3797 0.1160
-1 9 4 1.5413 0.1012
-1 9 5 0.8384 -0.0774
-1 9 6 0.2229 -0.0628
-1 9 7 -0.1138 0.0761
-1 9 8 -0.9275 0.0304
-1 9 9 -1.3840 -0.0503
-1 9 10 -0.6299 -0.0025
-1 9 11 0.0029 0.0434
-1 9 12 -0.6512 0.0108
-1 9 13 -1.2721 -0.0394
-1 9 14 -0.6599 -0.0051
-1 9 15 0.0349 0.0736
-1 9 16 -0.1344 0.0720
-1 10 1 -1.4872 0.4033
-1 10 2 -0.4119 0.1353
-1 10 3 0.4500 -0.1019
-1 10 4 -0.2002 -0.0985
-1 10 5 -0.5361 0.0790
-1 10 6 -0.2365 0.0612
-1 10 7 0.0540 -0.0771
-1 10 8 0.7574 -0.0309
-1 10 9 1.5628 0.0528
-1 10 10 1.3741 0.0088
-1 10 11 0.6972 -0.0516
-1 10 12 0.8487 -0.0403
-1 10 13 1.4850 0.0161
-1 10 14 1.4054 0.0086
-1 10 15 0.8137 -0.0725
-1 10 16 0.6760 -0.1042
-1 11 1 1.9649 -0.3918
-1 11 2 1.9707 -0.1392
-1 11 3 -0.3203 0.0744
-1 11 4 -0.9345 0.0913
-1 11 5 -0.3269 -0.0859
-1 11 6 -0.1519 -0.0754
-1 11 7 -0.0909 0.0747
-1 11 8 0.0486 0.0273
-1 11 9 -0.1643 -0.0593
-1 11 10 -0.7854 -0.0159
-1 11 11 -1.4747 0.0121
-1 11 12 -1.7980 -0.0134
-1 11 13 -1.7535 -0.0313
-1 11 14 -1.5729 -0.0171
-1 11 15 -1.2608 0.0240
-1 12 1 -1.0728 0.3455
-1 12 2 -2.5443 0.0991
-1 12 3 -0.8642 -0.0784
-1 12 4 0.5377 -0.1089
-1 12 5 -0.0219 0.0589
-1 12 6 -0.3403 0.0806
-1 12 7 0.1363 -0.0810
-1 12 8 0.0029 -0.0459
-1 12 9 -1.0109 0.0644
-1 12 10 -1.4174 -0.0055
-1 12 11 -0.0058 -0.0422
-1 12 12 1.8245 0.0484
-1 12 13 2.1833 0.0581
-1 12 14 1.5996 -0.0070
-1 13 1 1.4964 -0.2406
-1 13 2 1.6327 -0.0232
-1 13 3 0.4492 0.0871
-1 13 4 -0.6974 0.1063
-1 13 5 0.3962 -0.0205
-1 13 6 1.9333 -0.0714
-1 13 7 1.2140 0.0558
-1 13 8 -0.3519 0.0590
-1 13 9 0.3097 -0.0623
-1 13 10 2.6064 -0.0207
-1 13 11 2.7965 0.0811
-1 13 12 0.1486 0.0289
-1 13 13 -1.9338 -0.0019
-1 14 1 -2.7133 0.2579
-1 14 2 -1.9285 0.0511
-1 14 3 -0.3064 -0.0246
-1 14 6 -2.4240 0.0573
-1 14 7 -2.9643 -0.0118
-1 14 8 -0.3119 -0.0156
-1 14 9 0.9813 0.0399
-1 14 10 -1.6710 0.0455
-1 14 11 -3.7996 0.0063
-1 14 12 -2.0895 -0.0218
-1 15 7 2.6059 0.0551
-1 15 8 0.8391 -0.0107
-1 15 9 -1.6929 -0.0148
-1 15 10 -0.1242 0.0481
-1 15 11 2.6651 -0.0334
-1 16 8 0.0266 -0.0750
-1 16 9 1.9186 -0.0086
0 -13 1 2.5548 -0.2924
0 -13 2 2.4021 -0.0388
0 -12 2 -3.3084 0.0979
0 -12 3 -3.9838 -0.0597
0 -11 1 -1.7429 -0.3482
0 -11 2 0.0684 -0.0719
0 -11 3 3.3023 0.0104
0 -11 4 2.5701 0.1078
0 -10 1 0.6351 0.4540
0 -10 3 -0.2395 -0.0851
0 -10 4 -0.1038 -0.0325
0 -10 5 1.2761 0.0567
0 -9 1 0.6162 -0.4513
0 -9 2 0.6643 -0.1108
0 -9 3 0.7507 0.1108
0 -9 4 -0.9284 0.1008
0 -9 5 -3.0934 -0.0934
0 -9 6 -1.9884 -0.0664
0 -9 7 0.3650 0.1602
0 -8 1 -0.4937 0.4456
0 -8 2 -0.5702 0.0800
0 -8 3 -1.6686 -0.0830
0 -8 4 -1.3486 -0.0852
0 -8 5 1.5871 0.0389
0 -8 6 2.4003 0.0779
0 -8 7 -0.0285 -0.0547
0 -8 8 -1.0525 -0.1383
0 -7 1 0.1188 -0.4993
0 -7 2 -0.3466 -0.0963
0 -7 4 2.0433 0.0473
0 -7 5 0.8855 -0.0661
0 -7 6 -1.1329 -0.0441
0 -7 7 -0.3540 0.0206
0 -7 8 1.3231 0.0146
0 -7 9 0.9428 0.0612
0 -6 1 0.5152 0.5379
0 -6 2 0.3619 0.1434
0 -6 4 -2.0166 -0.0905
0 -6 5 -1.3270 0.0786
0 -6 6 0.0987 0.0561
0 -6 7 0.5878 -0.0779
0 -6 8 -0.1692 -0.0111
0 -6 9 -0.6529 0.0521
0 -6 10 -0.1986 -0.0417
0 -5 1 -2.5726 -0.5373
0 -5 2 -0.9560 -0.1433
0 -5 4 2.8360 0.1183
0 -5 5 1.6763 -0.0477
0 -5 6 0.6058 -0.0770
0 -5 7 0.0586 0.0817
0 -5 8 -0.5397 0.0699
0 -5 9 -0.3552 -0.0801
0 -5 10 0.1386 -0.0350
0 -4 1 2.2970 0.5226
0 -4 2 1.3012 0.1149
0 -4 4 -2.2279 -0.1011
0 -4 5 -1.2795 0.0550
0 -4 6 -1.3155 0.0759
0 -4 7 -1.3980 -0.0434
0 -4 8 -0.3118 -0.0503
0 -4 9 -0.0179 0.0604
0 -4 10 -0.4103 0.0801
0 -4 11 0.2132 -0.1038
0 -3 1 1.1327 -0.5996
0 -3 2 2.7964 -0.1230
0 -3 3 3.1643 0.1316
0 -3 4 2.1001 0.0860
0 -3 5 0.0190 -0.0880
0 -3 6 0.4311 -0.0628
0 -3 7 1.6998 0.0525
0 -3 8 1.1199 0.0132
0 -3 9 0.9378 -0.0422
0 -3 10 1.1475 -0.0279
0 -3 11 -0.5894 0.0201
0 -3 12 -1.9155 0.0857
0 -2 1 6.5959 0.6458
0 -2 2 -6.9833 0.1976
0 -2 3 -9.2915 -0.1493
0 -2 4 -5.4758 -0.1037
0 -2 5 -1.4132 0.1098
0 -2 6 0.0987 0.0562
0 -2 7 -0.2650 -0.0883
0 -2 8 -0.5715 -0.0191
0 -2 9 -1.0780 0.0389
0 -2 10 -1.1843 -0.0339
0 -2 11 0.8684 -0.0416
0 -2 12 2.4585 0.0316
0 -2 13 1.1185 0.0460
0 -1 1 -29.0633 -0.4254
0 -1 2 -2.5820 -0.2215
0 -1 3 13.7969 0.1444
0 -1 4 12.2322 0.1431
0 -1 5 5.4746 -0.1121
0 -1 6 2.1897 -0.0606
0 -1 7 0.1960 0.0966
0 -1 8 -0.7063 0.0175
0 -1 9 0.4925 -0.0490
0 -1 10 1.3410 0.0173
0 -1 11 -0.1694 0.0354
0 -1 12 -1.6368 -0.0250
0 -1 13 -0.4758 -0.0237
0 0 1 48.1334 0.2118
0 0 2 24.8008 0.1887
0 0 3 -5.0577 -0.1241
0 0 4 -16.3701 -0.1552
0 0 5 -10.3263 0.1210
0 0 6 -4.7943 0.0712
0 0 7 -2.4344 -0.1037
0 0 8 -0.0472 -0.0010
0 0 9 0.3580 0.0718
0 0 10 -1.1850 -0.0010
0 0 11 -2.0100 0.0024
0 0 12 -1.1738 0.0427
0 0 13 -0.3689 -0.0360
0 0 14 -0.6693 -0.1741
0 1 0 -47.7770 0.2404
0 1 1 -52.8350 -0.1577
0 1 2 -41.0126 -0.2606
0 1 3 -14.0539 0.0801
0 1 4 8.1847 0.1573
0 1 5 11.5707 -0.1313
0 1 6 6.1207 -0.0958
0 1 7 3.3239 0.1143
0 1 8 2.3606 0.0248
0 1 9 0.8434 -0.0836
0 1 10 0.2940 0.0023
0 1 11 2.1573 0.0367
0 1 12 3.8104 -0.0366
0 1 13 2.0708 -0.0029
0 1 14 -0.4775 0.1591
0 2 0 26.7842 -0.6507
0 2 1 40.1091 -0.0477
0 2 2 38.2571 0.3131
0 2 3 24.1099 -0.0194
0 2 4 6.7659 -0.1721
0 2 5 -3.9902 0.0972
0 2 6 -4.9518 0.0916
0 2 7 -2.4803 -0.0974
0 2 8 -2.5842 -0.0458
0 2 9 -3.2087 0.0542
0 2 10 -1.4976 0.0072
0 2 11 -0.4377 -0.0613
0 2 12 -2.2599 -0.0274
0 2 13 -2.9279 0.0309
0 2 14 0.0284 -0.0089
0 2 15 2.1740 -0.0429
0 3 0 -5.8260 0.7937
0 3 1 -15.4218 0.2436
0 3 2 -19.0652 -0.2481
0 3 3 -16.4029 0.0060
0 3 4 -11.5967 0.1738
0 3 5 -5.4296 -0.0718
0 3 6 -0.4368 -0.0615
0 3 7 0.9428 0.0917
0 3 8 1.6441 0.0149
0 3 9 3.3974 -0.0511
0 3 10 3.3666 -0.0001
0 3 11 0.8962 0.0299
0 3 12 -0.3813 0.0226
0 3 13 0.8820 -0.0011
0 3 14 0.9114 -0.0534
0 3 15 -1.4267 -0.1417
0 4 0 1.3470 -0.6887
0 4 1 0.4578 -0.1818
0 4 2 0.6757 0.2640
0 4 3 2.8718 0.0035
0 4 4 6.0019 -0.1688
0 4 5 7.1585 0.0809
0 4 6 5.5416 0.0815
0 4 7 2.3369 -0.0914
0 4 8 -0.8950 -0.0117
0 4 9 -2.6361 0.0859
0 4 10 -2.7996 0.0102
0 4 11 -1.7108 -0.0321
0 4 12 0.1579 0.0262
0 4 13 0.7251 0.0179
0 4 14 -0.0430 -0.0149
0 5 0 -3.0284 0.6719
0 5 1 -0.7856 0.1435
0 5 2 3.3651 -0.2977
0 5 3 3.4211 -0.0377
0 5 4 -1.1198 0.1581
0 5 5 -4.8273 -0.0554
0 5 6 -6.1341 -0.0931
0 5 7 -4.8629 0.0594
0 5 8 -0.9396 0.0433
0 5 9 1.7549 -0.0586
0 5 10 1.5669 -0.0297
0 5 11 1.0571 0.0555
0 5 12 0.5845 -0.0026
0 5 13 -0.2722 -0.0662
0 6 0 1.2355 -0.6704
0 6 1 2.0202 -0.1770
0 6 2 -0.3353 0.2381
0 6 3 -2.7525 0.0178
0 6 4 -0.6767 -0.1449
0 6 5 2.9141 0.0305
0 6 6 4.4803 0.0557
0 6 7 4.0218 -0.0470
0 6 8 1.7910 -0.0376
0 6 9 -0.1351 0.0183
0 6 10 -0.3383 0.0135
0 6 11 -0.5726 -0.0573
0 6 12 -0.8449 -0.0449
0 6 13 -0.2125 0.0510
0 7 0 0.0580 0.6339
0 7 1 -0.8226 0.1408
0 7 2 -0.5340 -0.2437
0 7 3 0.8281 -0.0095
0 7 4 0.7941 0.1420
0 7 5 -0.9995 -0.0395
0 7 6 -2.4837 -0.0602
0 7 7 -2.1552 0.0458
0 7 8 -0.6130 0.0210
0 7 9 -0.1412 -0.0430
0 7 10 -0.8395 -0.0224
0 7 11 -0.2774 0.0416
0 7 12 0.8480 0.0255
0 7 13 0.4281 -0.0333
0 7 14 -0.0963 -0.0118
0 8 0 -0.2605 -0.6105
0 8 1 0.1181 -0.1424
0 8 2 -0.0967 0.2638
0 8 3 0.2571 0.0467
0 8 4 0.9668 -0.1297
0 8 5 0.9527 0.0314
0 8 6 1.1316 0.0736
0 8 7 1.3601 -0.0290
0 8 8 0.2613 -0.0271
0 8 9 -0.5663 0.0501
0 8 10 0.3815 0.0434
0 8 11 0.8048 -0.0320
0 8 12 -0.1883 0.0070
0 8 13 -0.3663 0.0757
0 8 14 0.1488 -0.0072
0 9 0 0.3002 0.5744
0 9 1 0.1139 0.1572
0 9 2 0.7971 -0.2048
0 9 3 0.0947 -0.0183
0 9 4 -1.9054 0.1321
0 9 5 -1.9603 -0.0195
0 9 6 -0.9016 -0.0583
0 9 7 -1.0656 0.0390
0 9 8 -0.9307 0.0437
0 9 9 0.1669 -0.0233
0 9 10 0.4130 -0.0172
0 9 11 0.2330 0.0593
0 9 12 0.7791 0.0216
0 9 13 0.8324 -0.0743
0 9 14 -0.1306 -0.0102
0 9 15 -0.6368 0.0831
0 10 0 -0.2084 -0.5548
0 10 1 0.0316 -0.1124
0 10 2 -0.4718 0.2064
0 10 3 -0.7105 -0.0067
0 10 4 0.7636 -0.1441
0 10 5 1.1529 0.0194
0 10 6 -0.0547 0.0702
0 10 7 0.0504 -0.0283
0 10 8 0.8950 -0.0451
0 10 9 0.5237 0.0231
0 10 10 -0.2007 0.0206
0 10 11 -0.8788 -0.0601
0 10 12 -2.0517 -0.0446
0 10 13 -2.3430 0.0245
0 10 14 -0.7145 -0.0042
0 10 15 1.0570 -0.0266
0 10 16 1.2501 -0.0142
0 11 0 -0.0584 0.5053
0 11 1 0.8045 0.0965
0 11 2 0.3000 -0.2406
0 11 3 0.4324 -0.0347
0 11 4 0.1520 0.1051
0 11 5 -0.2075 -0.0294
0 11 6 0.8316 -0.0599
0 11 7 1.1548 0.0052
0 11 8 -0.3345 0.0108
0 11 9 -0.9813 -0.0256
0 11 10 -0.1094 -0.0389
0 11 11 0.6978 -0.0024
0 11 12 1.4531 -0.0078
0 11 13 2.0740 -0.0340
0 11 14 1.1747 0.0033
0 11 15 -0.7196 -0.0326
0 12 0 0.2088 -0.4303
0 12 1 -1.1122 -0.1179
0 12 2 -1.0602 0.1930
0 12 3 -0.6099 0.0147
0 12 4 -0.7825 -0.0978
0 12 5 -0.2124 0.0511
0 12 6 0.0666 0.0334
0 12 7 -0.5352 -0.0549
0 12 8 0.2466 -0.0050
0 12 9 1.4583 0.0204
0 12 10 0.3865 -0.0161
0 12 11 -1.0474 -0.0070
0 12 12 -0.4889 0.0394
0 12 13 0.3382 0.0434
0 12 14 0.3361 0.0120
0 12 15 0.6766 0.0707
0 13 1 0.3992 0.1526
0 13 2 0.2446 -0.1424
0 13 4 1.3067 0.1554
0 13 5 1.6186 -0.0233
0 13 6 0.2839 -0.0647
0 13 7 -0.4461 0.0594
0 13 8 -0.4154 0.0340
0 13 9 -0.9653 -0.0323
0 13 10 -0.3998 0.0299
0 13 11 1.3554 0.0670
0 13 12 0.9272 0.0130
0 13 13 -1.3146 0.0240
0 13 14 -1.8867 0.0696
0 14 0 -1.6157 -0.4152
0 14 1 -0.8314 -0.1745
0 14 5 -2.4282 -0.0066
0 14 6 -2.3611 0.0646
0 14 7 -0.9101 0.0187
0 14 8 -0.4535 -0.0004
0 14 9 -0.8954 0.0314
0 14 10 -0.8209 0.0304
0 14 11 -0.9288 0.0086
0 14 12 -1.0925 0.0091
0 14 13 0.1903 -0.0537
0 15 6 2.7558 0.0017
0 15 7 2.3625 0.0232
0 15 8 1.6010 -0.0227
0 15 9 2.3780 0.0138
0 15 10 2.5796 0.0338
0 15 11 0.7613 -0.0699
0 16 8 -0.9241 -0.0642
0 16 9 -1.5727 -0.0628
1 -14 0 -1.6455 -0.4085
1 -13 0 1.0876 0.3922
1 -13 1 0.6258 0.1548
1 -12 0 1.2171 -0.4528
1 -12 1 0.5294 -0.1058
1 -12 2 -1.2481 0.1816
1 -12 3 -1.2303 -0.0789
1 -11 0 -1.5208 0.4873
1 -11 1 -2.9602 0.1465
1 -11 2 -0.2281 -0.2021
1 -11 4 1.4855 0.1773
1 -10 0 0.3018 -0.4377
1 -10 1 3.0714 -0.0985
1 -10 2 2.9817 0.1647
1 -10 3 0.9560 0.0454
1 -10 4 -0.6901 -0.0311
1 -10 5 -1.7447 0.0201
1 -9 0 1.4341 0.5054
1 -9 1 -0.9599 0.0809
1 -9 2 -2.2738 -0.2014
1 -9 3 -2.7865 0.0125
1 -9 4 -2.4556 0.0869
1 -9 5 -0.0491 -0.0891
1 -9 6 1.7665 -0.0353
1 -9 7 0.7946 0.1060
1 -8 0 -4.5052 -0.5772
1 -8 1 -1.8411 -0.1704
1 -8 2 -0.0542 0.2016
1 -8 3 0.4791 0.0152
1 -8 5 1.9869 -0.0011
1 -8 6 -0.5123 0.0788
1 -8 7 -1.2401 -0.0233
1 -8 8 -0.0916 -0.1165
1 -7 0 6.0134 0.5659
1 -7 1 4.5437 0.1524
1 -7 2 1.7741 -0.1874
1 -7 3 0.6961 -0.0333
1 -7 4 0.1807 0.1120
1 -7 5 -0.8897 0.0013
1 -7 6 -0.5046 -0.0531
1 -7 7 0.7027 -0.0067
1 -7 8 0.6826 0.0539
1 -7 9 0.5045 0.1154
1 -6 0 -4.7705 -0.6030
1 -6 1 -5.7300 -0.1139
1 -6 2 -4.1561 0.2463
1 -6 3 -1.1179 0.0210
1 -6 4 0.5791 -0.1122
1 -6 5 0.3402 0.0654
1 -6 6 0.4160 0.0746
1 -6 7 0.9465 -0.0370
1 -6 8 0.3545 -0.0136
1 -6 9 -1.2068 0.0334
1 -6 10 -1.9389 -0.0256
1 -5 0 0.4887 0.6340
1 -5 1 4.8740 0.1625
1 -5 2 6.2756 -0.2410
1 -5 3 3.7391 -0.0305
1 -5 4 -0.0422 0.1515
1 -5 5 -0.7473 -0.0318
1 -5 6 -0.2471 -0.0833
1 -5 7 -1.7207 0.0682
1 -5 8 -2.2574 0.0595
1 -5 9 0.2557 -0.0869
1 -5 10 2.5281 -0.0514
1 -4 0 5.4091 -0.6654
1 -4 1 -0.3071 -0.1575
1 -4 2 -5.3276 0.2079
1 -4 3 -5.5080 0.0096
1 -4 4 -2.7164 -0.1286
1 -4 5 -1.4105 0.0116
1 -4 6 -0.8948 0.0516
1 -4 7 0.9247 -0.0455
1 -4 8 1.8032 -0.0611
1 -4 9 0.3463 0.0480
1 -4 10 -1.3381 0.0545
1 -4 11 -1.8153 -0.1272
1 -3 0 -2.9377 0.7240
1 -3 1 -3.3525 0.1415
1 -3 2 0.4142 -0.2578
1 -3 3 3.4814 -0.0027
1 -3 4 3.3662 0.1173
1 -3 5 3.3758 -0.0481
1 -3 6 2.8706 -0.0486
1 -3 7 0.5274 0.0193
1 -3 8 -0.0733 0.0024
1 -3 9 1.0145 -0.0280
1 -3 10 0.7213 -0.0256
1 -3 11 0.7501 0.0459
1 -3 12 1.9137 0.0966
1 -2 0 -7.5630 -0.7135
1 -2 1 -3.3340 -0.1413
1 -2 2 0.8776 0.2745
1 -2 3 1.0115 0.0244
1 -2 4 -0.8605 -0.1226
1 -2 5 -2.5133 0.0420
1 -2 6 -2.9380 0.0469
1 -2 7 -1.6970 -0.0297
1 -2 8 -1.1547 0.0101
1 -2 9 -1.6816 0.0261
1 -2 10 -0.8452 -0.0168
1 -2 11 -0.5625 -0.0091
1 -2 12 -2.3959 0.0316
1 -2 13 -2.3686 0.0187
1 -1 0 11.7740 0.7608
1 -1 1 14.0644 0.0963
1 -1 2 8.2803 -0.2574
1 -1 3 -0.5074 0.0141
1 -1 4 -3.1173 0.1205
1 -1 5 -0.2128 -0.0325
1 -1 6 1.4786 -0.0338
1 -1 7 1.7053 0.0427
1 -1 8 2.3936 0.0223
1 -1 9 2.0102 -0.0172
1 -1 10 0.2600 0.0172
1 -1 11 0.2260 0.0265
1 -1 12 2.6009 -0.0419
1 -1 13 2.9670 -0.0100
1 0 0 -4.6885 -0.8446
1 0 1 -15.5125 -0.0878
1 0 2 -17.8109 0.2832
1 0 3 -7.8044 -0.0523
1 0 4 3.0438 -0.1390
1 0 5 3.5837 0.0504
1 0 6 0.3102 0.0470
1 0 7 -1.0427 -0.0257
1 0 8 -2.6368 -0.0198
1 0 9 -3.0437 0.0103
1 0 10 -0.9211 0.0061
1 0 11 0.4372 -0.0074
1 0 12 -0.9314 0.0304
1 0 13 -2.7061 -0.0304
1 0 14 -1.7070 -0.1923
1 1 0 -7.4694 0.7682
1 1 1 7.0172 0.0678
1 1 2 15.8383 -0.2898
1 1 3 12.1035 0.0342
1 1 4 1.2899 0.1359
1 1 5 -3.9147 -0.0562
1 1 6 -2.2931 -0.0607
1 1 7 0.0895 0.0252
1 1 8 1.8421 0.0095
1 1 9 2.6653 -0.0319
1 1 10 1.8681 -0.0031
1 1 11 0.3873 0.0250
1 1 12 -0.5427 -0.0368
1 1 13 0.5933 -0.0113
1 1 14 2.6785 0.1681
1 2 0 11.0938 -0.7346
1 2 1 1.8855 -0.0081
1 2 2 -6.4272 0.2647
1 2 3 -5.8887 -0.0461
1 2 4 -0.8676 -0.1097
1 2 5 2.0621 0.0567
1 2 6 2.3760 0.0570
1 2 7 0.9526 -0.0424
1 2 8 -1.2544 -0.0490
1 2 9 -1.9404 0.0387
1 2 10 -1.1738 0.0311
1 2 11 -0.6784 -0.0610
1 2 12 -0.2302 -0.0179
1 2 13 -0.2025 0.0464
1 2 14 -1.6756 -0.0206
1 2 15 -2.6059 -0.0461
1 3 1 -0.1953 0.0306
1 3 2 1.4004 -0.2434
1 3 3 -0.9860 0.0867
1 3 4 -3.9349 0.1153
1 3 5 -3.1325 -0.0627
1 3 6 -1.4024 -0.0503
1 3 7 -0.4248 0.0365
1 3 8 1.1288 0.0559
1 3 9 2.0975 -0.0136
1 3 10 1.3569 -0.0489
1 3 11 0.3859 0.0171
1 3 12 0.6187 0.0313
1 3 13 1.6955 -0.0072
1 3 14 2.1184 -0.0453
1 3 15 1.3787 -0.1470
1 4 0 -3.3595 -0.7364
1 4 1 -5.9489 -0.0494
1 4 2 -4.1539 0.2378
1 4 3 0.8988 -0.0700
1 4 4 4.7175 -0.1249
1 4 5 4.7522 0.0645
1 4 6 2.2466 0.0601
1 4 7 -0.5943 -0.0416
1 4 8 -1.9258 -0.0250
1 4 9 -1.8208 0.0465
1 4 10 -1.8097 0.0179
1 4 11 -1.4948 -0.0237
1 4 12 -0.5976 0.0265
1 4 13 -1.0074 0.0090
1 4 14 -2.2813 -0.0208
1 4 15 -1.8889 0.1406
1 5 0 -2.2799 0.6651
1 5 1 1.8888 0.0107
1 5 2 4.6836 -0.2364
1 5 3 1.8652 0.0243
1 5 4 -1.8921 0.0996
1 5 5 -3.4834 -0.0482
1 5 6 -3.1406 -0.0762
1 5 7 -0.3013 0.0461
1 5 8 2.2060 0.0584
1 5 9 1.6596 -0.0770
1 5 10 1.0203 -0.0350
1 5 11 1.5882 0.0990
1 5 12 0.8093 0.0037
1 5 13 -0.7556 -0.0642
1 5 14 -0.3914 0.0508
1 6 0 3.9293 -0.6991
1 6 1 5.0113 -0.0198
1 6 2 1.0584 0.2075
1 6 3 -1.0649 -0.0416
1 6 4 0.1234 -0.0827
1 6 5 1.5767 0.0353
1 6 6 2.2243 0.0568
1 6 7 1.0696 -0.0291
1 6 8 -0.9909 -0.0788
1 6 9 -1.4929 0.0294
1 6 10 -1.1542 0.0553
1 6 11 -0.8681 -0.0794
1 6 12 0.1803 -0.0555
1 6 13 1.4766 0.0631
1 7 0 -1.8015 0.6775
1 7 1 -4.8101 0.0311
1 7 2 -4.5673 -0.1987
1 7 3 -2.2838 0.0740
1 7 4 -0.6054 0.1069
1 7 5 -0.4609 -0.0498
1 7 6 -0.7671 -0.0498
1 7 7 0.0448 0.0394
1 7 8 0.9903 0.0404
1 7 9 1.0665 -0.0366
1 7 10 1.6486 -0.0288
1 7 11 1.5889 0.0294
1 7 12 -0.6476 -0.0059
1 7 13 -1.8609 -0.0450
1 8 0 0.8054 -0.6224
1 8 1 2.6762 -0.0206
1 8 2 4.0431 0.2118
1 8 3 4.3246 -0.0453
1 8 4 2.5055 -0.1119
1 8 5 0.5712 0.0499
1 8 6 0.0187 0.0773
1 8 7 -1.1198 -0.0470
1 8 8 -2.3090 -0.0483
1 8 9 -1.5794 0.0775
1 8 10 -1.2507 0.0385
1 8 11 -1.9021 -0.0534
1 8 12 -0.3193 0.0368
1 8 13 1.7155 0.0709
1 8 14 0.4675 -0.0263
1 9 0 1.2425 0.5977
1 9 1 0.0693 0.0308
1 9 2 -1.8948 -0.1812
1 9 3 -3.8513 0.0307
1 9 4 -3.4006 0.0776
1 9 5 -1.5036 -0.0415
1 9 6 -0.4356 -0.0618
1 9 7 0.9705 0.0356
1 9 8 2.5291 0.0647
1 9 9 1.8975 -0.0422
1 9 10 0.7704 -0.0424
1 9 11 1.3703 0.0714
1 9 12 1.2988 0.0388
1 9 13 -0.5489 -0.0392
1 9 14 -1.1469 0.0193
1 9 15 0.2957 0.0895
1 10 1 -2.4255 -0.0184
1 10 2 -1.5948 0.1646
1 10 3 0.9845 -0.0431
1 10 4 1.9881 -0.0678
1 10 5 1.1814 0.0520
1 10 6 0.8223 0.0417
1 10 7 -0.0715 -0.0452
1 10 8 -1.6519 -0.0383
1 10 9 -1.3375 0.0330
1 10 10 -0.1204 0.0144
1 10 11 -0.7873 -0.0442
1 10 12 -2.0580 -0.0420
1 10 13 -1.5288 -0.0285
1 10 14 0.0821 0.0045
1 10 15 0.6566 0.0210
1 11 0 -1.0680 0.5191
1 11 1 1.3227 0.0020
1 11 2 2.6027 -0.1755
1 11 3 1.4343 0.0263
1 11 4 -0.3982 0.0704
1 11 5 -0.5976 -0.0353
1 11 6 -0.4605 -0.0447
1 11 7 -0.7330 0.0386
1 11 8 -0.0466 0.0277
1 11 9 0.6900 -0.0610
1 11 10 0.0720 -0.0224
1 11 11 -0.2611 0.0252
1 11 12 1.1068 -0.0430
1 11 13 2.5729 -0.0265
1 11 14 2.2387 -0.0025
1 11 15 0.8303 -0.1264
1 11 16 0.1669 -0.1287
1 12 0 1.6672 -0.4823
1 12 2 -1.5948 0.1487
1 12 3 -1.4304 -0.0456
1 12 4 -0.1088 -0.0692
1 12 5 0.9571 0.0218
1 12 6 0.6511 0.0180
1 12 7 0.8317 -0.0342
1 12 8 1.6417 -0.0283
1 12 9 0.6236 0.0392
1 12 10 -0.7609 0.0157
1 12 11 0.2615 -0.0479
1 12 12 1.1932 0.0282
1 12 13 -0.5594 0.0789
1 12 14 -2.3950 0.0194
1 12 15 -2.0465 0.0835
1 13 0 -0.7392 0.4643
1 13 1 0.5643 0.0588
1 13 4 0.5461 0.0957
1 13 5 0.0426 -0.0439
1 13 6 -0.2399 -0.0369
1 13 7 -0.3372 0.0401
1 13 8 -1.3312 0.0217
1 13 9 -1.4226 -0.0300
1 13 10 0.5412 0.0014
1 13 11 0.9103 0.0588
1 13 12 -1.1254 0.0450
1 13 13 -1.4368 0.0285
1 13 14 0.3424 0.0495
1 14 5 -1.4877 0.0392
1 14 6 -2.0362 0.0674
1 14 7 -0.7925 0.0048
1 14 8 0.2857 -0.0029
1 14 9 0.5080 0.0360
1 14 10 0.0199 0.0189
1 14 11 -0.8498 0.0096
1 14 12 -0.6994 0.0222
1 14 13 0.3177 -0.0726
1 15 6 2.8192 0.0226
1 15 7 1.8568 0.0258
1 15 8 -0.2453 -0.0127
1 15 10 0.0893 0.0475
1 15 11 -0.2130 -0.0308
1 16 7 -1.2723 -0.1662
1 16 8 0.5649 -0.0463
1 16 9 0.7258 -0.0505
2 -14 0 -1.0058 -0.4345
2 -13 0 -0.0390 0.4244
2 -13 1 -0.4325 0.1051
2 -12 0 0.2153 -0.3618
2 -12 1 0.8541 -0.0313
2 -12 2 2.2911 0.0637
2 -12 3 2.5443 0.1086
2 -11 0 0.8704 0.4448
2 -11 1 0.9517 -0.0088
2 -11 2 -0.4629 -0.0727
2 -11 3 -2.4145 -0.0158
2 -10 0 -0.5501 -0.4862
2 -10 1 -1.6648 -0.0022
2 -10 2 -1.4906 0.1067
2 -10 3 -0.0230 -0.0507
2 -10 4 0.7502 0.0381
2 -10 5 0.3837 0.0587
2 -9 0 -1.1951 0.5066
2 -9 1 0.2411 -0.0220
2 -9 2 0.8652 -0.1610
2 -9 3 -0.0090 0.0571
2 -9 4 0.2896 0.0638
2 -9 6 0.8995 0.0306
2 -8 0 0.7562 -0.5999
2 -8 1 0.6650 -0.0195
2 -8 2 -0.4251 0.1940
2 -8 3 0.3060 -0.0390
2 -8 4 0.4881 -0.1014
2 -8 5 -1.7543 0.0013
2 -8 6 -2.2148 0.0466
2 -8 7 -0.6701 0.0082
2 -8 8 -0.4704 -0.0923
2 -7 0 0.8874 0.5975
2 -7 1 0.3265 0.0478
2 -7 2 0.5953 -0.1651
2 -7 3 0.8033 0.0345
2 -7 4 0.5435 0.0773
2 -7 5 1.7479 -0.0225
2 -7 6 2.5983 -0.0463
2 -7 7 0.9488 -0.0080
2 -7 8 0.2334 0.0597
2 -7 9 1.1257 0.1246
2 -6 0 -1.0893 -0.5984
2 -6 1 -1.0289 0.0188
2 -6 2 -0.5547 0.1847
2 -6 3 -0.1746 -0.0650
2 -6 4 -1.1618 -0.0628
2 -6 5 -2.3794 0.0785
2 -6 6 -1.9756 0.0533
2 -6 7 -0.2675 -0.0305
2 -6 8 0.2016 -0.0234
2 -6 9 -1.1845 0.0060
2 -6 10 -1.4105 -0.0617
2 -5 0 3.0111 0.6889
2 -5 1 1.5254 0.0080
2 -5 2 0.2918 -0.2257
2 -5 3 -0.9087 0.0591
2 -5 4 -0.4721 0.1033
2 -5 5 1.2829 -0.0657
2 -5 6 1.0444 -0.0586
2 -5 7 -0.8209 0.0529
2 -5 8 -1.2086 0.0308
2 -5 9 0.1207 -0.0736
2 -5 10 0.9613 -0.0868
2 -4 0 -5.0063 -0.6717
2 -4 1 -3.8152 -0.0445
2 -4 2 -0.7937 0.1849
2 -4 3 1.0184 -0.0377
2 -4 4 0.9548 -0.0927
2 -4 5 0.3825 0.0221
2 -4 6 0.3995 0.0307
2 -4 7 0.6670 -0.0518
2 -4 8 0.9473 -0.0445
2 -4 9 0.9972 0.0263
2 -4 10 0.0849 0.0325
2 -4 11 -0.7860 0.1163
2 -3 0 5.3913 0.6656
2 -3 1 4.9036 -0.0227
2 -3 2 2.5837 -0.1900
2 -3 3 -0.1893 0.0629
2 -3 4 -0.7095 0.0617
2 -3 5 -0.5927 -0.0549
2 -3 6 -1.3487 -0.0316
2 -3 7 -0.6029 0.0363
2 -3 8 0.5018 0.0171
2 -3 9 -0.4599 -0.0281
2 -3 10 -0.4952 0.0356
2 -3 11 1.4372 0.0272
2 -3 12 1.6360 -0.1601
2 -2 0 -12.5451 -0.7372
2 -2 1 -7.3097 -0.0089
2 -2 2 -3.5812 0.2345
2 -2 3 -1.5746 -0.0595
2 -2 4 -0.0066 -0.0994
2 -2 5 0.8995 0.0700
2 -2 6 1.4690 0.0623
2 -2 7 1.0866 -0.0367
2 -2 8 0.1417 -0.0114
2 -2 9 0.3113 0.0567
2 -2 10 -0.0025 0.0023
2 -2 11 -1.5254 -0.0505
2 -2 12 -1.3508 0.0206
2 -2 13 0.0820 0.0625
2 -1 0 23.9750 0.6873
2 -1 1 17.3984 0.0581
2 -1 2 6.8107 -0.1952
2 -1 3 1.9356 0.0278
2 -1 4 1.4169 0.1165
2 -1 5 -0.3821 -0.0281
2 -1 6 -1.7538 -0.0635
2 -1 7 -1.0089 0.0557
2 -1 8 -1.2695 0.0445
2 -1 9 -2.3175 -0.0484
2 -1 10 -0.8375 0.0007
2 -1 11 1.2615 0.0220
2 -1 12 0.0744 -0.0334
2 -1 13 -1.7095 0.0530
2 0 0 -27.2745 -0.6698
2 0 1 -27.2546 -0.0079
2 0 2 -15.3275 0.1881
2 0 3 -3.5809 -0.0275
2 0 4 -1.3685 -0.0932
2 0 5 -1.0876 0.0292
2 0 6 1.3678 0.0683
2 0 7 1.1722 -0.0560
2 0 8 0.5114 -0.0601
2 0 9 2.4244 0.0634
2 0 10 2.6265 0.0007
2 0 11 0.3646 -0.0616
2 0 12 0.1278 0.0539
2 0 13 1.6636 -0.0144
2 1 0 21.2165 0.7435
2 1 1 26.9767 0.0506
2 1 2 21.1559 -0.2231
2 1 3 9.2729 0.0102
2 1 4 2.9417 0.1067
2 1 5 1.8945 -0.0400
2 1 6 -0.0297 -0.0942
2 1 7 -1.2120 0.0404
2 1 8 -0.3849 0.0564
2 1 9 -0.6109 -0.0796
2 1 10 -1.8575 -0.0427
2 1 11 -2.0206 0.0584
2 1 12 -0.9298 -0.0180
2 1 13 -0.0386 -0.0349
2 1 14 -0.0870 0.1301
2 2 0 -10.6301 -0.6870
2 2 1 -17.8220 -0.1071
2 2 2 -17.5796 0.1902
2 2 3 -12.2393 0.0211
2 2 4 -7.2308 -0.1238
2 2 5 -3.8171 0.0046
2 2 6 -1.4697 0.0980
2 2 7 -0.2626 -0.0394
2 2 8 0.5891 -0.0699
2 2 9 1.0006 0.0607
2 2 10 0.8209 0.0302
2 2 11 1.3752 -0.0490
2 2 12 1.7815 0.0013
2 2 13 0.6895 0.0186
2 2 14 0.1151 -0.0128
2 3 0 3.5405 0.6305
2 3 1 6.5027 0.0510
2 3 2 7.8183 -0.1803
2 3 3 8.0849 -0.0211
2 3 4 8.1677 0.1102
2 3 5 6.1183 0.0156
2 3 6 3.3185 -0.0845
2 3 7 2.2863 0.0310
2 3 8 0.7809 0.0767
2 3 9 -1.5350 -0.0429
2 3 10 -1.6726 -0.0144
2 3 11 -0.7135 0.0651
2 3 12 -0.9974 0.0138
2 3 13 -1.6441 -0.0036
2 3 14 -1.7545 -0.0213
2 3 15 -1.3660 -0.1414
2 4 0 -4.8797 -0.6733
2 4 1 -2.4886 -0.0588
2 4 2 -0.2817 0.2101
2 4 3 -1.2308 0.0197
2 4 4 -4.4563 -0.1086
2 4 5 -5.7824 0.0057
2 4 6 -4.8685 0.0827
2 4 7 -3.8364 -0.0261
2 4 8 -2.0377 -0.0494
2 4 9 0.3664 0.0527
2 4 10 1.0973 0.0277
2 4 11 0.4827 -0.0345
2 4 12 0.3709 -0.0031
2 4 13 0.7814 0.0028
2 4 14 0.7449 0.0209
2 4 15 -0.0791 0.1408
2 5 0 6.6888 0.6467
2 5 1 5.0976 0.1112
2 5 2 0.6587 -0.1834
2 5 3 -1.9209 -0.0282
2 5 4 0.1275 0.1230
2 5 5 3.2453 -0.0122
2 5 6 4.8985 -0.1025
2 5 7 4.7711 0.0424
2 5 8 2.5441 0.0569
2 5 9 0.4222 -0.0676
2 5 10 0.4196 -0.0265
2 5 11 0.7546 0.0301
2 5 12 -0.0332 -0.0226
2 5 13 -0.3226 -0.0207
2 5 14 1.5635 0.0068
2 5 15 3.9525 -0.0380
2 5 16 3.5554 -0.0978
2 6 0 -4.9149 -0.5980
2 6 1 -5.2032 -0.0728
2 6 2 -3.2928 0.1600
2 6 3 -0.2142 0.0232
2 6 4 0.8936 -0.1139
2 6 5 -0.5056 -0.0095
2 6 6 -3.0030 0.1005
2 6 7 -4.2744 -0.0277
2 6 8 -2.7445 -0.0814
2 6 9 -0.7940 0.0413
2 6 10 -0.6658 0.0254
2 6 11 -1.0008 -0.0584
2 6 12 -0.4784 -0.0142
2 6 13 0.2193 0.0377
2 6 14 -1.1669 0.0033
2 6 15 -4.5760 -0.0649
2 7 0 2.5414 0.6097
2 7 1 2.9940 0.0436
2 7 2 2.2209 -0.1921
2 7 3 2.1382 -0.0183
2 7 4 1.8212 0.0981
2 7 5 0.5348 0.0007
2 7 6 0.8375 -0.0645
2 7 7 2.4718 0.0237
2 7 8 2.1415 0.0412
2 7 9 0.8094 -0.0343
2 7 10 0.4287 -0.0177
2 7 11 0.1271 0.0362
2 7 12 0.1558 0.0316
2 7 13 0.3505 -0.0165
2 8 0 0.4708 -0.5931
2 8 1 -0.7668 -0.0858
2 8 3 -1.0417 0.0327
2 8 4 -3.2664 -0.1098
2 8 5 -2.9029 0.0147
2 8 6 -1.2010 0.0770
2 8 7 -1.3635 -0.0532
2 8 8 -1.3999 -0.0346
2 8 9 -0.4031 0.0739
2 8 10 0.0242 0.0160
2 8 11 0.3655 -0.0299
2 8 12 0.3457 0.0152
2 8 13 -0.4615 0.0188
2 9 0 -1.5520 0.5390
2 9 1 -0.8969 0.0854
2 9 3 0.1632 -0.0306
2 9 4 1.8810 0.1071
2 9 5 2.9633 0.0149
2 9 6 2.5260 -0.0985
2 9 7 1.8618 0.0178
2 9 8 1.1666 0.0718
2 9 9 0.5497 -0.0440
2 9 10 0.2646 -0.0251
2 9 11 -0.2437 0.0604
2 9 12 -0.4286 0.0003
2 9 13 0.0956 -0.0583
2 9 14 -0.0598 0.0161
2 10 0 0.7175 -0.5122
2 10 1 -0.0176 -0.0294
2 10 2 -0.4907 0.1511
2 10 3 -0.5341 0.0028
2 10 4 -0.8610 -0.0874
2 10 5 -1.1735 -0.0091
2 10 6 -1.7800 0.0596
2 10 7 -2.1049 0.0081
2 10 8 -1.2006 -0.0320
2 10 9 -0.8026 0.0015
2 10 10 -1.4137 0.0061
2 10 11 -0.9969 -0.0373
2 10 12 -0.1643 -0.0400
2 10 13 -0.1625 0.0333
2 10 14 0.1678 0.0343
2 10 15 0.6655 -0.1159
2 11 0 -1.1164 0.5009
2 11 1 0.0818 0.0419
2 11 3 0.5984 -0.0056
2 11 4 -0.1260 0.1023
2 11 5 0.1402 -0.0315
2 11 6 0.5922 -0.0580
2 11 7 0.9279 0.0494
2 11 8 0.9275 0.0152
2 11 9 1.0269 -0.0406
2 11 10 1.5497 0.0037
2 11 11 1.4971 -0.0110
2 11 12 1.0175 -0.0280
2 11 13 0.9530 0.0044
2 11 14 0.5054 -0.0324
2 11 15 -0.3287 -0.0268
2 12 0 0.2806 -0.4595
2 12 2 0.1529 0.1340
2 12 3 0.2311 0.0148
2 12 6 -0.5003 0.0828
2 12 7 -0.1987 -0.0596
2 12 8 -0.0624 -0.0609
2 12 9 -1.2627 0.0473
2 12 10 -1.3528 0.0005
2 12 11 -0.2116 -0.0117
2 12 12 -0.2140 0.0705
2 12 13 -1.0419 0.0190
2 12 14 -0.8984 -0.0442
2 12 15 0.0088 0.0470
2 13 5 -0.1590 -0.0083
2 13 6 1.0502 -0.0626
2 13 7 1.1076 0.0176
2 13 8 0.3998 0.0308
2 13 9 1.2898 -0.0329
2 13 10 1.8109 0.0054
2 13 11 0.2141 0.0519
2 13 12 -0.6990 0.0124
2 13 13 -0.0066 0.0334
2 13 14 0.2093 0.1086
2 14 4 -1.3279 -0.0331
2 14 5 -3.0069 0.0006
2 14 6 -2.6430 0.0460
2 14 7 -1.7864 0.0082
2 14 8 -1.9418 0.0148
2 14 9 -2.3994 0.0444
2 14 10 -2.4420 0.0109
2 14 11 -1.8325 0.0035
2 14 12 -0.7615 -0.0021
2 15 5 3.7878 0.0862
2 15 6 3.7129 0.0426
2 15 7 0.9200 -0.0120
2 15 8 1.1011 0.0042
2 15 9 3.1037 0.0380
2 15 10 3.1340 0.0423
2 15 11 2.5318 -0.0476
2 16 6 -2.1564 -0.1925
2 16 7 0.1810 -0.0689
2 16 8 1.3480 -0.0256
3 -13 0 -0.9163 0.1727
3 -13 1 0.5112 -0.0337
3 -12 0 1.0775 -0.3176
3 -12 1 0.7540 -0.0882
3 -12 2 -0.5456 0.0457
3 -11 0 -0.0193 0.3479
3 -11 1 -0.3070 0.0817
3 -11 2 -0.2799 -0.0178
3 -11 3 0.0443 -0.1134
3 -11 4 0.4473 -0.0918
3 -10 0 -0.1853 -0.4136
3 -10 1 -0.6096 -0.0437
3 -10 2 -0.7463 0.0737
3 -10 3 -0.4800 0.0243
3 -10 4 -0.5459 -0.0375
3 -10 5 -1.5506 -0.1347
3 -9 0 -1.5990 0.4652
3 -9 1 -0.6110 0.0612
3 -9 2 0.0685 -0.1296
3 -9 3 0.9483 -0.0443
3 -9 4 1.2273 0.0854
3 -9 5 1.0429 0.0835
3 -8 0 2.7437 -0.4896
3 -8 1 2.2181 -0.0480
3 -8 2 1.5417 0.1294
3 -8 3 0.6419 0.0471
3 -8 4 -1.0264 -0.0511
3 -8 5 -0.5292 -0.0066
3 -8 6 1.0350 0.1159
3 -8 7 0.0432 0.0451
3 -7 0 -1.4979 0.5253
3 -7 1 -2.1400 0.0282
3 -7 2 -1.3655 -0.1411
3 -7 3 -0.6881 0.0002
3 -7 4 0.4641 0.0767
3 -7 5 0.9006 0.0036
3 -7 6 -1.4089 -0.0896
3 -7 7 -2.0466 -0.0713
3 -7 8 0.7267 0.0226
3 -6 0 1.2775 -0.5396
3 -6 1 1.5870 -0.0337
3 -6 2 1.0382 0.1531
3 -6 3 -0.6160 -0.0068
3 -6 4 -1.5579 -0.0927
3 -6 5 -1.3754 -0.0146
3 -6 6 -0.2847 0.0224
3 -6 7 0.6467 -0.0321
3 -6 8 -0.6817 -0.0290
3 -6 9 -2.4941 -0.0091
3 -5 0 -2.7572 0.5862
3 -5 1 -3.0130 0.0526
3 -5 2 -1.9264 -0.1570
3 -5 3 0.4443 0.0020
3 -5 4 2.3146 0.0756
3 -5 5 1.7436 -0.0239
3 -5 6 0.7522 -0.0467
3 -5 7 1.1431 0.0425
3 -5 8 1.6088 0.0496
3 -5 9 2.0307 -0.0165
3 -5 10 2.3318 -0.0683
3 -4 0 1.9364 -0.6173
3 -4 1 4.4742 -0.0894
3 -4 2 4.0281 0.1664
3 -4 3 0.8475 0.0105
3 -4 4 -1.8031 -0.0932
3 -4 5 -1.7995 0.0257
3 -4 6 -0.8279 0.0733
3 -4 7 -1.1302 -0.0093
3 -4 8 -1.7143 -0.0158
3 -4 9 -1.8340 -0.0067
3 -4 10 -2.3582 0.0172
3 -4 11 -2.1941 0.1860
3 -3 0 -1.7812 0.5822
3 -3 1 -3.3990 0.0758
3 -3 2 -4.8121 -0.1715
3 -3 3 -3.0734 -0.0342
3 -3 4 0.1890 0.0968
3 -3 5 1.4272 0.0043
3 -3 6 1.3890 -0.0543
3 -3 7 1.3582 0.0261
3 -3 8 1.0159 0.0040
3 -3 9 1.5049 -0.0188
3 -3 10 2.7745 0.0733
3 -3 11 2.6915 -0.0114
3 -3 12 1.2270 -0.2051
3 -2 0 4.7654 -0.6287
3 -2 1 3.6888 -0.0597
3 -2 2 2.8793 0.1885
3 -2 3 3.2184 0.0229
3 -2 4 2.2688 -0.0942
3 -2 5 0.4001 0.0060
3 -2 6 -1.0416 0.0544
3 -2 7 -1.4975 -0.0385
3 -2 8 -0.6100 -0.0241
3 -2 9 -0.5151 0.0573
3 -2 10 -1.6517 -0.0039
3 -2 11 -1.3092 -0.0596
3 -2 12 -0.5251 0.0205
3 -1 0 -4.9560 0.6808
3 -1 1 -5.6293 0.1090
3 -1 2 -2.8220 -0.1973
3 -1 3 -0.7544 -0.0114
3 -1 4 -1.7513 0.1244
3 -1 5 -2.4869 -0.0159
3 -1 6 -0.8348 -0.0717
3 -1 7 0.5896 0.0299
3 -1 8 -0.0587 0.0321
3 -1 9 -0.5970 -0.0235
3 -1 10 -0.3272 -0.0324
3 -1 11 -1.4358 -0.0411
3 -1 12 -2.2010 0.0021
3 -1 13 0.0430 0.0872
3 0 0 1.9093 -0.6356
3 0 1 4.7908 -0.0951
3 0 2 4.7357 0.1983
3 0 3 1.2295 0.0241
3 0 4 -0.2090 -0.1272
3 0 5 1.9578 0.0146
3 0 6 2.3602 0.0764
3 0 7 0.5295 -0.0334
3 0 8 0.3584 -0.0222
3 0 9 1.2515 0.0038
3 0 10 1.1515 -0.0468
3 0 11 1.2176 0.0183
3 0 12 2.0716 0.0597
3 0 13 1.6441 -0.1001
3 1 0 0.9372 0.6628
3 1 1 -2.7386 0.0569
3 1 2 -4.5023 -0.2236
3 1 3 -3.1701 -0.0190
3 1 4 -0.8885 0.1173
3 1 5 -0.9538 -0.0280
3 1 6 -1.6964 -0.0781
3 1 7 -0.9492 0.0387
3 1 8 -0.2553 0.0212
3 1 9 -0.7393 -0.0420
3 1 10 -0.8447 0.0230
3 1 11 1.0170 0.0452
3 1 12 2.6030 -0.0165
3 1 13 0.9045 0.0145
3 1 14 -1.2548 0.1358
3 2 0 -2.9380 -0.7010
3 2 1 1.3874 -0.0969
3 2 2 3.3947 0.2243
3 2 3 2.7441 0.0022
3 2 4 1.9077 -0.1387
3 2 5 1.2692 0.0298
3 2 6 0.0588 0.0716
3 2 7 -0.1900 -0.0472
3 2 8 0.5499 -0.0300
3 2 9 0.5116 0.0391
3 2 10 -0.0005 0.0367
3 2 11 -1.6060 0.0154
3 2 12 -4.4526 -0.0161
3 2 13 -4.3574 -0.0013
3 2 14 -0.9563 0.0507
3 3 0 2.2737 0.6447
3 3 1 -0.4581 0.0870
3 3 2 -2.5281 -0.2085
3 3 3 -2.1576 0.0014
3 3 4 -1.4465 0.1437
3 3 5 -1.2499 -0.0325
3 3 6 0.4332 -0.0746
3 3 7 1.4399 0.0596
3 3 8 -0.2835 0.0359
3 3 9 -1.2388 -0.0239
3 3 10 -0.1095 0.0008
3 3 11 0.9004 -0.0123
3 3 12 1.5924 -0.0022
3 3 13 2.1415 0.0260
3 3 14 2.1681 -0.0593
3 3 15 1.8284 -0.1669
3 4 0 -1.3797 -0.6462
3 4 1 -0.1259 -0.0554
3 4 2 0.9002 0.2239
3 4 3 1.2363 0.0001
3 4 4 1.1061 -0.1307
3 4 5 1.0826 0.0480
3 4 6 0.4780 0.0942
3 4 7 -0.2133 -0.0491
3 4 8 0.3484 -0.0369
3 4 9 1.1130 0.0479
3 4 10 0.7409 0.0026
3 4 11 0.0331 -0.0511
3 4 12 0.3044 -0.0240
3 4 13 0.9917 0.0022
3 4 14 -0.1194 -0.0034
3 4 15 -2.2281 0.0412
3 5 0 2.3378 0.6567
3 5 1 1.6844 0.0995
3 5 2 1.2572 -0.2149
3 5 3 0.9558 -0.0026
3 5 4 0.3852 0.1375
3 5 5 -0.1960 -0.0413
3 5 6 -0.6698 -0.0913
3 5 7 -1.4402 0.0456
3 5 8 -1.6325 0.0411
3 5 9 -0.7381 -0.0548
3 5 10 -0.1539 -0.0454
3 5 11 -0.0010 0.0333
3 5 12 0.4332 0.0335
3 5 13 0.5410 -0.0534
3 5 14 0.5908 -0.0318
3 5 15 1.0276 0.0831
3 6 0 -1.4533 -0.5911
3 6 1 -1.5942 -0.0931
3 6 2 -2.3766 0.1856
3 6 3 -2.6603 0.0113
3 6 4 -1.7383 -0.1282
3 6 5 -0.9673 0.0236
3 6 6 -0.8244 0.0754
3 6 7 0.1942 -0.0547
3 6 8 1.3561 -0.0570
3 6 9 0.8225 0.0326
3 6 10 -0.4019 0.0324
3 6 11 -1.2430 -0.0283
3 6 12 -2.0935 -0.0259
3 6 13 -2.9521 0.0644
3 6 14 -3.3446 0.0590
3 6 16 0.2774 -0.1628
3 7 0 -0.0688 0.5851
3 7 1 -0.7038 0.0416
3 7 2 0.7591 -0.1953
3 7 3 2.9955 -0.0051
3 7 4 2.3185 0.0984
3 7 5 0.6661 -0.0377
3 7 6 1.1746 -0.0645
3 7 7 1.6292 0.0441
3 7 8 0.4535 0.0426
3 7 9 -0.4729 -0.0245
3 7 10 -0.1118 -0.0168
3 7 11 1.5241 0.0436
3 7 12 3.0221 0.0469
3 7 13 2.8634 -0.0269
3 7 14 2.7596 -0.0203
3 7 15 2.9084 0.0887
3 8 0 0.5489 -0.6070
3 8 1 0.7329 -0.0720
3 8 2 0.4502 0.2038
3 8 3 -1.9938 -0.0177
3 8 4 -3.1907 -0.1201
3 8 5 -1.5476 0.0599
3 8 6 -0.7658 0.0644
3 8 7 -1.2622 -0.0592
3 8 8 -0.7794 -0.0151
3 8 9 0.3953 0.0530
3 8 10 0.9741 0.0224
3 8 11 -0.2252 -0.0154
3 8 12 -2.0873 -0.0157
3 8 13 -1.5085 0.0138
3 8 14 -0.0237 0.0106
3 9 0 -2.0502 0.5415
3 9 1 -0.6846 0.0985
3 9 2 0.5575 -0.1740
3 9 3 1.2223 0.0100
3 9 4 2.3989 0.1471
3 9 5 3.0695 -0.0361
3 9 6 2.3636 -0.0792
3 9 7 1.0253 0.0738
3 9 8 0.2575 0.0399
3 9 9 -0.1575 -0.0664
3 9 10 -1.0140 -0.0218
3 9 11 -0.9546 0.0230
3 9 12 0.3590 -0.0208
3 9 13 0.3010 -0.0419
3 9 14 -0.9302 -0.0295
3 10 0 2.4981 -0.4989
3 10 1 2.0104 -0.0335
3 10 2 -0.0998 0.1673
3 10 3 -0.9926 0.0043
3 10 4 -0.6946 -0.0896
3 10 5 -1.7605 0.0316
3 10 6 -3.0965 0.0601
3 10 7 -1.9695 -0.0457
3 10 8 -0.6199 -0.0356
3 10 9 -1.0058 0.0446
3 10 10 -0.6921 0.0103
3 10 11 0.2464 -0.0615
3 10 12 -0.0130 -0.0309
3 10 13 -0.0946 0.0162
3 10 14 0.3205 0.0070
3 11 0 -0.8269 0.5460
3 11 2 -0.5206 -0.2030
3 11 3 0.0599 0.0130
3 11 4 0.1857 0.0655
3 11 5 0.6349 -0.0828
3 11 6 1.8491 -0.0418
3 11 7 1.9855 0.0578
3 11 8 1.1820 -0.0056
3 11 9 1.3901 -0.0564
3 11 10 1.7195 -0.0013
3 11 11 1.3355 0.0471
3 11 12 1.2898 0.0391
3 11 13 1.1229 0.0261
3 11 14 0.6178 0.0396
3 11 15 0.7251 -0.0247
3 12 2 -0.7158 0.1641
3 12 3 0.0356 -0.0142
3 12 4 0.2056 -0.1308
3 12 5 -1.0569 0.0393
3 12 6 -1.8446 0.0587
3 12 8 -0.8494 -0.0182
3 12 9 -0.5883 0.0512
3 12 10 -0.4885 -0.0117
3 12 11 -0.9497 -0.0297
3 12 12 -1.5894 0.0516
3 12 13 -1.5896 0.0685
3 12 14 -1.2021 -0.0119
3 12 15 -0.9191 -0.0127
3 13 1 1.0391 0.0528
3 13 2 1.0141 -0.0663
3 13 3 0.9751 0.0099
3 13 7 1.1048 0.0204
3 13 8 -0.4298 0.0201
3 13 9 -1.0121 -0.0116
3 13 10 -0.5722 0.0357
3 13 11 0.2378 0.0711
3 13 12 0.4663 -0.0487
3 13 13 0.1420 -0.1853
3 13 14 0.4454 -0.1188
3 14 6 0.2441 0.0396
3 14 7 -0.1840 -0.0272
3 14 8 1.1284 -0.0061
3 14 9 2.8669 0.0482
3 14 10 1.4040 0.0324
3 14 11 -1.2445 -0.0456
3 14 12 -0.9921 -0.0403
3 15 5 1.4430 -0.1875
3 15 6 -1.0335 -0.2182
3 15 7 -1.1346 0.0050
3 15 8 -0.4742 0.1126
3 15 9 -2.3747 -0.0337
3 15 10 -2.3479 -0.1619
4 -13 0 0.3962 0.0804
4 -12 0 -0.9572 -0.2845
4 -12 1 0.1945 -0.0347
4 -12 2 0.2533 -0.0568
4 -11 0 -0.0694 0.3239
4 -11 1 -1.0429 0.0495
4 -11 2 -1.8332 -0.0382
4 -11 3 -0.9213 0.0501
4 -10 0 0.3993 -0.3457
4 -10 1 1.3937 -0.0326
4 -10 2 2.3082 0.1020
4 -10 3 2.0952 -0.0186
4 -10 4 -0.2482 -0.0438
4 -9 0 0.7160 0.4346
4 -9 1 -0.1573 0.0643
4 -9 2 -1.0243 -0.1357
4 -9 3 -1.2039 0.0208
4 -9 4 -0.5626 0.1081
4 -9 5 1.2496 -0.0980
4 -9 6 2.1337 -0.1253
4 -8 0 -0.4069 -0.4608
4 -8 1 -1.2287 -0.0812
4 -8 2 -0.3245 0.1467
4 -8 3 -0.3536 0.0183
4 -8 4 -0.5373 -0.1009
4 -8 5 0.3087 0.0599
4 -8 6 -0.6402 0.1016
4 -7 0 -0.3634 0.4621
4 -7 1 0.7301 0.0475
4 -7 2 0.7377 -0.1477
4 -7 3 0.4800 -0.0209
4 -7 4 1.7580 0.0703
4 -7 5 1.0434 -0.0420
4 -7 6 -0.6616 -0.0719
4 -7 7 0.2714 0.0908
4 -7 8 0.5403 0.1765
4 -6 0 -1.3973 -0.5077
4 -6 1 -0.0986 -0.0479
4 -6 2 0.2745 0.1530
4 -6 3 0.2119 -0.0045
4 -6 4 -0.7979 -0.0933
4 -6 5 -2.1370 0.0087
4 -6 6 -1.3636 0.0159
4 -6 7 0.2610 -0.0784
4 -6 8 0.2744 -0.0335
4 -6 9 -0.0787 0.0973
4 -5 0 2.0927 0.5372
4 -5 1 1.4518 0.0641
4 -5 2 -0.7010 -0.1528
4 -5 3 -1.0996 0.0020
4 -5 4 -0.6665 0.0925
4 -5 5 0.1138 -0.0065
4 -5 6 1.8099 -0.0290
4 -5 7 1.4973 0.0421
4 -5 8 -0.7014 0.0137
4 -5 9 -0.4403 -0.1055
4 -5 10 1.4328 -0.1966
4 -4 0 0.6731 -0.5572
4 -4 1 -1.5650 -0.0541
4 -4 2 -0.9825 0.1669
4 -4 3 0.3836 -0.0059
4 -4 4 0.6531 -0.0781
4 -4 5 1.2343 0.0373
4 -4 6 0.5823 0.0586
4 -4 7 -1.5129 0.0204
4 -4 8 -1.0529 0.0385
4 -4 9 0.8478 0.0372
4 -4 10 -0.0353 0.0430
4 -4 11 -1.6378 0.0934
4 -3 0 -2.5813 0.5726
4 -3 1 -0.7808 0.0547
4 -3 2 0.9008 -0.1861
4 -3 3 1.2773 0.0103
4 -3 4 0.9355 0.0994
4 -3 5 -0.0177 -0.0439
4 -3 6 -1.0392 -0.0466
4 -3 7 -0.0473 0.0347
4 -3 8 2.0259 -0.0139
4 -3 9 1.1244 -0.0238
4 -3 10 -1.3722 0.0680
4 -3 11 -0.8049 0.0921
4 -2 0 2.9465 -0.5821
4 -2 1 2.4594 -0.0562
4 -2 2 1.7206 0.1795
4 -2 3 -0.0853 -0.0074
4 -2 4 -1.5028 -0.1062
4 -2 5 -1.1262 0.0342
4 -2 6 -0.1214 0.0541
4 -2 7 0.1544 -0.0731
4 -2 8 -1.2129 -0.0723
4 -2 9 -1.9977 -0.0021
4 -2 10 0.4001 -0.0373
4 -2 11 1.7726 -0.0924
4 -2 12 -0.4942 -0.0497
4 -1 0 -3.3103 0.6169
4 -1 1 -3.3154 0.0605
4 -1 2 -3.5578 -0.1749
4 -1 3 -2.4317 0.0170
4 -1 4 -0.0728 0.0965
4 -1 5 0.7172 -0.0306
4 -1 6 0.2656 -0.0605
4 -1 7 0.2224 0.0193
4 -1 8 0.5618 0.0381
4 -1 9 0.6877 -0.0066
4 -1 10 0.0261 -0.0229
4 -1 11 -0.0132 -0.0107
4 -1 12 1.8413 -0.0754
4 0 0 2.7983 -0.6238
4 0 1 3.3244 -0.0692
4 0 2 4.2389 0.1847
4 0 3 4.0072 -0.0131
4 0 4 1.9197 -0.0932
4 0 5 0.1309 0.0337
4 0 6 -0.2032 0.0372
4 0 7 -0.2841 -0.0240
4 0 8 -0.4998 0.0103
4 0 9 -0.0707 0.0519
4 0 10 0.0562 0.0387
4 0 11 -1.6094 0.0123
4 0 12 -3.5590 0.0646
4 0 13 -3.1049 0.2024
4 1 0 -2.7859 0.6180
4 1 1 -2.4504 0.0582
4 1 2 -3.2758 -0.1933
4 1 3 -4.7549 0.0016
4 1 4 -4.2457 0.0928
4 1 5 -1.8114 -0.0431
4 1 6 -0.0028 -0.0524
4 1 7 0.4277 0.0560
4 1 8 0.6417 0.0406
4 1 9 0.6164 -0.0449
4 1 10 0.7707 -0.0335
4 1 11 2.2832 0.0498
4 1 12 3.4843 0.0588
4 1 13 2.5028 -0.0239
4 2 0 3.4703 -0.6412
4 2 1 2.9403 -0.0721
4 2 2 1.8542 0.1950
4 2 3 3.0503 -0.0020
4 2 4 5.1174 -0.1084
4 2 5 4.4236 0.0248
4 2 6 1.8972 0.0773
4 2 7 0.3774 -0.0203
4 2 8 -0.5000 -0.0661
4 2 9 -1.2015 0.0092
4 2 10 -1.4935 0.0451
4 2 11 -2.0153 -0.0416
4 2 12 -2.1184 -0.0792
4 2 13 -1.4237 -0.0268
4 2 14 -1.0686 -0.0373
4 3 0 -3.3157 0.6218
4 3 1 -3.6081 0.0880
4 3 2 -2.4323 -0.1883
4 3 3 -1.3861 -0.0064
4 3 4 -2.6957 0.1096
4 3 5 -4.3804 -0.0028
4 3 6 -3.8493 -0.0535
4 3 7 -2.0308 0.0077
4 3 8 -0.1050 0.0365
4 3 9 1.2166 -0.0105
4 3 10 1.4398 -0.0422
4 3 11 1.2891 0.0154
4 3 12 1.1146 0.0328
4 3 13 1.4213 -0.0475
4 3 14 2.4373 -0.0648
4 4 0 3.1745 -0.6085
4 4 1 2.9138 -0.0649
4 4 2 2.5050 0.1967
4 4 3 1.7817 0.0125
4 4 4 1.4659 -0.0950
4 4 5 2.4357 0.0222
4 4 6 3.5119 0.0529
4 4 7 2.8483 -0.0317
4 4 8 0.6397 -0.0376
4 4 9 -0.6584 0.0303
4 4 10 -0.3418 0.0341
4 4 11 -0.3287 -0.0325
4 4 12 -1.0966 -0.0369
4 4 13 -2.3712 0.0290
4 4 14 -3.9133 0.0749
4 4 15 -3.3747 0.1210
4 5 0 -2.9210 0.6282
4 5 1 -2.4677 0.0803
4 5 2 -1.3636 -0.2011
4 5 3 -1.0046 -0.0048
4 5 4 -1.5451 0.1115
4 5 5 -2.0592 -0.0233
4 5 6 -2.4222 -0.0725
4 5 7 -2.3664 0.0201
4 5 8 -1.0047 0.0418
4 5 9 0.0133 -0.0278
4 5 10 -0.8460 -0.0334
4 5 11 -1.3024 0.0235
4 5 12 0.1574 0.0150
4 5 13 2.2479 -0.0010
4 5 14 3.7028 0.0221
4 5 15 3.3140 -0.0520
4 6 0 2.1176 -0.5800
4 6 1 2.5671 -0.0928
4 6 2 1.5980 0.1756
4 6 3 0.5751 -0.0022
4 6 4 0.6970 -0.1185
4 6 5 1.3250 0.0074
4 6 6 1.3125 0.0565
4 6 7 1.1978 -0.0216
4 6 8 0.9961 -0.0296
4 6 9 0.3490 0.0259
4 6 10 0.3339 0.0114
4 6 11 1.3628 -0.0255
4 6 12 1.7322 0.0254
4 6 13 0.1127 0.0472
4 6 14 -1.9419 -0.0086
4 6 15 -2.1824 0.0391
4 7 0 -0.6830 0.5543
4 7 1 -2.0504 0.0442
4 7 2 -1.7872 -0.1792
4 7 3 -1.6357 0.0102
4 7 4 -1.6634 0.0937
4 7 5 -0.9126 -0.0366
4 7 6 -0.0407 -0.0618
4 7 7 -0.1672 0.0345
4 7 8 -0.8025 0.0407
4 7 9 -0.4605 -0.0284
4 7 10 1.0530 -0.0113
4 7 11 1.1254 0.0467
4 7 12 -1.2586 0.0137
4 7 13 -1.9599 -0.0146
4 7 14 0.5775 -0.0070
4 7 15 2.0777 -0.1065
4 8 0 -1.6004 -0.5991
4 8 1 -0.3161 -0.0529
4 8 2 -0.1927 0.2094
4 8 3 0.1499 -0.0134
4 8 4 1.9503 -0.0976
4 8 5 2.1790 0.0536
4 8 6 0.5534 0.0724
4 8 7 0.2529 -0.0256
4 8 8 1.3248 -0.0379
4 8 9 1.2586 0.0201
4 8 10 -0.9479 0.0270
4 8 11 -2.5925 -0.0095
4 8 12 -0.7926 -0.0138
4 8 13 0.9822 -0.0386
4 8 14 -1.0209 -0.0524
4 8 15 -2.9944 0.0773
4 9 0 2.1175 0.5604
4 9 1 2.1863 0.1095
4 9 2 2.4783 -0.1879
4 9 3 2.5325 0.0001
4 9 4 0.6370 0.1146
4 9 5 -1.4469 -0.0259
4 9 6 -1.3352 -0.0452
4 9 7 -0.6029 0.0477
4 9 8 -1.3027 0.0306
4 9 9 -2.1584 -0.0302
4 9 10 -0.7701 -0.0175
4 9 11 1.3609 0.0008
4 9 12 0.9242 -0.0315
4 9 13 0.1088 -0.0236
4 9 14 2.0288 0.0020
4 10 1 -0.5735 -0.0791
4 10 2 -1.8634 0.1456
4 10 3 -2.6535 0.0056
4 10 4 -1.3441 -0.0916
4 10 5 0.4475 0.0167
4 10 6 1.0393 0.0424
4 10 7 0.2807 -0.0482
4 10 9 0.9375 0.0365
4 10 10 1.2250 0.0164
4 10 11 -0.2601 -0.0397
4 10 12 -0.1687 -0.0158
4 10 13 0.5948 0.0160
4 10 14 -1.2368 0.0461
4 11 1 -0.0592 0.0177
4 11 2 0.2707 -0.1673
4 11 3 1.7955 0.0029
4 11 4 1.1821 0.0758
4 11 5 -0.8233 -0.0332
4 11 6 -1.7770 -0.0586
4 11 7 -1.1519 0.0123
4 11 8 0.0769 0.0080
4 11 9 0.3177 -0.0433
4 11 10 0.3368 -0.0115
4 11 11 1.3771 0.0383
4 11 12 1.0676 0.0219
4 11 13 -0.7852 0.0514
4 11 14 -0.5356 0.0908
4 11 15 0.8418 -0.0296
4 12 1 -2.0360 -0.0580
4 12 2 -1.7346 0.1818
4 12 3 -2.4121 0.0209
4 12 4 -3.0739 -0.1072
4 12 5 -1.6465 0.0131
4 12 6 0.8522 0.0683
4 12 7 2.2130 -0.0352
4 12 8 2.1703 -0.0299
4 12 9 1.2788 0.0682
4 12 10 -0.5740 0.0118
4 12 11 -2.4474 -0.0588
4 12 12 -2.2332 0.0600
4 12 13 -0.2719 0.0814
4 12 14 0.7142 -0.1180
4 13 1 1.8409 0.0903
4 13 2 2.7322 -0.0635
4 13 3 3.1301 -0.0331
4 13 4 3.5218 0.0988
4 13 5 3.6113 0.0448
4 13 6 2.2063 -0.0732
4 13 9 -2.4099 -0.0224
4 13 10 -0.2886 -0.0405
4 13 11 1.6161 0.1135
4 13 12 1.2820 -0.0085
4 13 13 0.1924 -0.2386
4 14 1 -0.2651 0.0503
4 14 2 -0.4257 -0.0424
4 14 3 -1.6639 -0.0493
4 14 8 0.2243 -0.0541
4 14 9 0.8538 -0.0009
4 14 10 -0.6729 0.0608
4 14 11 -1.2723 -0.1047
4 15 7 0.3234 -0.0399
4 15 8 1.0170 -0.0764
5 -12 0 1.1430 -0.3052
5 -12 1 -0.6448 -0.1569
5 -11 0 -0.9628 0.3516
5 -11 1 1.2318 0.0731
5 -11 2 1.4892 -0.0607
5 -10 0 1.1211 -0.3892
5 -10 1 -1.6176 -0.0055
5 -10 2 -2.1791 0.2195
5 -10 3 -0.6650 0.0100
5 -10 4 0.3434 -0.1184
5 -9 0 -0.0894 0.4377
5 -9 1 1.2547 0.0364
5 -9 2 2.2708 -0.1802
5 -9 3 1.0420 -0.0008
5 -9 4 -0.8920 0.1029
5 -9 5 -0.9339 -0.0600
5 -8 0 -1.5604 -0.4240
5 -8 1 -1.6489 -0.0421
5 -8 2 -1.2814 0.1137
5 -8 3 -1.7522 -0.0670
5 -8 4 -0.3879 -0.1143
5 -8 5 0.5076 0.0235
5 -8 6 -0.8187 0.0396
5 -7 0 0.4085 0.4247
5 -7 1 2.2080 0.0254
5 -7 2 0.8990 -0.1316
5 -7 3 1.3972 0.0387
5 -7 4 2.3541 0.0744
5 -7 5 1.0345 -0.0553
5 -7 6 1.0093 -0.0273
5 -7 7 2.0626 0.0275
5 -7 8 1.2622 -0.0760
5 -6 0 1.5847 -0.4776
5 -6 1 -0.6631 -0.0528
5 -6 2 -1.4740 0.1426
5 -6 3 -1.1925 0.0005
5 -6 4 -2.2241 -0.0432
5 -6 5 -2.3949 0.0765
5 -6 6 -0.7013 0.0502
5 -6 7 -0.4272 -0.0408
5 -6 8 -1.4757 0.0412
5 -6 9 -1.1573 0.1559
5 -5 0 -0.5124 0.5050
5 -5 1 -0.6908 0.0637
5 -5 2 0.7942 -0.1459
5 -5 3 1.8091 0.0014
5 -5 4 1.2048 0.0742
5 -5 5 1.3806 -0.0415
5 -5 6 1.0756 -0.0384
5 -5 7 -0.8510 0.0868
5 -5 8 -0.5827 0.0668
5 -5 9 1.3854 -0.0818
5 -5 10 0.9735 -0.1479
5 -4 0 -1.5266 -0.5211
5 -4 1 -1.0654 -0.0513
5 -4 2 -0.3517 0.1685
5 -4 3 -1.4018 0.0057
5 -4 4 -1.2048 -0.0969
5 -4 5 0.0779 0.0079
5 -4 6 -0.6145 0.0439
5 -4 7 -0.7084 -0.0597
5 -4 8 0.7920 -0.0876
5 -4 9 0.1453 0.0053
5 -4 10 -1.4355 0.0506
5 -3 0 2.4190 0.5479
5 -3 1 3.3337 0.0738
5 -3 2 2.3941 -0.1677
5 -3 3 1.3157 -0.0096
5 -3 4 1.0541 0.0954
5 -3 5 0.2414 -0.0012
5 -3 6 0.1257 -0.0464
5 -3 7 1.7004 0.0081
5 -3 8 1.6143 -0.0023
5 -3 9 -0.3619 -0.0683
5 -3 10 -0.0372 -0.0149
5 -3 11 1.5424 0.1286
5 -2 0 -2.5153 -0.5495
5 -2 1 -3.7157 -0.0857
5 -2 2 -4.0874 0.1568
5 -2 3 -2.8933 0.0119
5 -2 4 -0.9137 -0.0908
5 -2 5 -0.4494 0.0064
5 -2 6 -0.7175 0.0463
5 -2 7 -1.0777 -0.0159
5 -2 8 -1.6961 -0.0006
5 -2 9 -0.7016 0.0828
5 -2 10 0.4690 0.0476
5 -2 11 -0.9105 -0.1320
5 -1 0 0.8194 0.5701
5 -1 1 2.5313 0.0704
5 -1 2 3.5238 -0.1696
5 -1 3 3.8668 -0.0194
5 -1 4 1.8555 0.0833
5 -1 5 0.3515 -0.0136
5 -1 6 0.9401 -0.0644
5 -1 7 0.6783 0.0052
5 -1 8 -0.3154 0.0397
5 -1 9 -0.1769 0.0058
5 -1 10 0.5919 -0.0040
5 -1 11 1.4653 0.0385
5 -1 12 1.5389 0.0924
5 0 0 1.2762 -0.6018
5 0 1 -0.3374 -0.0814
5 0 2 -1.6389 0.1843
5 0 3 -3.1280 0.0143
5 0 4 -3.0995 -0.0990
5 0 5 -1.9569 0.0074
5 0 6 -1.5214 0.0634
5 0 7 -0.8048 0.0002
5 0 8 0.7511 -0.0293
5 0 9 1.0051 -0.0157
5 0 10 -0.8975 -0.0257
5 0 11 -2.7199 -0.0008
5 0 12 -2.2989 0.0608
5 1 0 -1.3772 0.5888
5 1 1 -0.9398 0.0853
5 1 2 -0.3119 -0.1902
5 1 3 0.9634 -0.0148
5 1 4 2.5596 0.1151
5 1 5 3.6791 -0.0025
5 1 6 3.3672 -0.0580
5 1 7 1.4612 0.0310
5 1 8 -0.2488 0.0482
5 1 9 -0.1718 -0.0141
5 1 10 1.1119 -0.0156
5 1 11 2.2064 -0.0054
5 1 12 2.4878 -0.0390
5 1 13 1.8772 -0.0059
5 2 0 0.6820 -0.5983
5 2 1 0.5754 -0.0778
5 2 2 0.4674 0.1967
5 2 3 0.4836 0.0167
5 2 4 -0.0911 -0.1109
5 2 5 -2.0836 0.0175
5 2 6 -3.6065 0.0775
5 2 7 -2.2784 -0.0282
5 2 8 0.2506 -0.0547
5 2 9 0.5494 0.0200
5 2 10 -0.8570 0.0298
5 2 11 -1.0563 0.0114
5 2 12 -0.8352 0.0008
5 2 13 -1.9552 -0.1185
5 3 0 -0.3689 0.6186
5 3 1 0.1342 0.0962
5 3 2 0.4052 -0.1912
5 3 3 0.4196 -0.0088
5 3 4 -0.4707 0.1176
5 3 5 -0.5565 -0.0173
5 3 6 1.1762 -0.0781
5 3 7 2.1537 0.0209
5 3 8 0.3303 0.0276
5 3 9 -1.5888 -0.0465
5 3 10 -0.6518 -0.0167
5 3 11 0.7083 0.0121
5 3 13 1.0298 0.0421
5 3 14 1.7574 0.2317
5 4 0 0.2165 -0.5947
5 4 1 -0.6361 -0.0797
5 4 2 -0.5873 0.1893
5 4 3 -0.4937 0.0085
5 4 4 -0.2722 -0.1100
5 4 5 0.2550 0.0149
5 4 6 -0.0299 0.0611
5 4 7 -1.3955 -0.0413
5 4 8 -1.4282 -0.0398
5 4 9 0.4736 0.0517
5 4 10 0.8772 0.0148
5 4 11 -0.8781 -0.0561
5 4 12 -2.0306 0.0150
5 4 13 -2.2432 0.0762
5 4 14 -1.7601 0.0015
5 5 0 0.3214 0.5978
5 5 1 0.3615 0.0559
5 5 2 0.4097 -0.2078
5 5 3 -0.5700 -0.0052
5 5 4 -1.4435 0.0993
5 5 5 -0.3838 -0.0340
5 5 6 0.9091 -0.0692
5 5 7 1.2009 0.0341
5 5 8 1.2753 0.0503
5 5 9 1.0193 -0.0220
5 5 10 0.7326 -0.0218
5 5 11 1.0154 0.0383
5 5 12 1.7304 0.0510
5 5 13 2.9845 0.0039
5 6 0 -1.3455 -0.5892
5 6 1 0.0324 -0.0842
5 6 2 0.3236 0.1980
5 6 3 0.2841 -0.0015
5 6 5 2.0901 0.0210
5 6 6 -0.2146 0.0673
5 6 7 -0.9635 -0.0224
5 6 8 -0.1838 -0.0282
5 6 9 -0.5449 0.0166
5 6 10 -1.3811 0.0134
5 6 11 -0.6862 0.0154
5 6 12 0.4464 -0.0024
5 6 13 -0.6640 -0.0667
5 6 14 -2.9595 -0.0324
5 6 15 -2.8835 0.0991
5 7 0 1.4153 0.5434
5 7 1 0.4344 0.0655
5 7 2 -0.5226 -0.1718
5 7 3 -0.1220 0.0012
5 7 4 -0.1826 0.1119
5 7 5 -0.9148 -0.0072
5 7 6 -0.5084 -0.0527
5 7 7 0.1554 0.0346
5 7 8 -0.1390 0.0288
5 7 9 0.0835 -0.0337
5 7 10 0.7812 -0.0037
5 7 11 -0.0955 0.0143
5 7 12 -1.3132 -0.0270
5 7 13 -0.2817 -0.0128
5 7 14 1.7290 -0.0002
5 7 15 2.1704 -0.0665
5 8 0 -0.5139 -0.5551
5 8 1 -0.6396 -0.0288
5 8 2 -0.8959 0.1845
5 8 3 -0.2752 -0.0097
5 8 4 0.1753 -0.0854
5 8 5 -0.4055 0.0395
5 8 6 -0.6839 0.0679
5 8 7 -0.2846 -0.0250
5 8 8 -0.2170 -0.0316
5 8 9 -0.9705 0.0357
5 8 10 -1.1426 0.0183
5 8 11 0.6052 -0.0362
5 8 12 1.2963 -0.0304
5 8 13 -1.4240 0.0057
5 8 14 -3.4804 0.0692
5 8 15 -2.2516 0.1365
5 9 0 -0.4020 0.5337
5 9 1 0.2954 0.0664
5 9 2 1.4812 -0.1762
5 9 3 1.3961 0.0204
5 9 4 -0.2942 0.1050
5 9 5 -0.6698 -0.0430
5 9 6 0.6068 -0.0684
5 9 7 1.0723 0.0374
5 9 8 0.4675 0.0278
5 9 9 1.0350 -0.0366
5 9 10 2.0781 -0.0025
5 9 11 0.2711 0.0167
5 9 12 -1.8332 -0.0182
5 9 13 0.7091 0.0113
5 9 14 4.1830 0.0137
5 9 15 3.3995 -0.0999
5 10 0 1.1731 -0.4612
5 10 1 0.2118 -0.0676
5 10 2 -0.3655 0.1400
5 10 3 -0.2643 -0.0182
5 10 4 -0.0995 -0.1110
5 10 5 0.2716 0.0252
5 10 6 0.0177 0.0605
5 10 7 -1.0365 -0.0739
5 10 8 -0.7256 -0.0674
5 10 9 -0.0263 0.0484
5 10 10 -1.4638 -0.0029
5 10 11 -1.7119 -0.0636
5 10 12 1.1452 0.0485
5 10 13 1.9336 0.0681
5 10 14 -0.5558 -0.0619
5 11 0 -0.6759 0.4858
5 11 1 -0.2644 0.0301
5 11 2 -0.0056 -0.1754
5 11 3 -1.0882 -0.0057
5 11 4 -0.6263 0.0846
5 11 5 0.9339 -0.0400
5 11 6 0.9455 -0.0832
5 11 7 0.6620 0.0366
5 11 8 0.6719 0.0611
5 11 9 0.0108 -0.0535
5 11 10 0.4389 -0.0532
5 11 11 1.6344 0.0447
5 11 12 0.4716 0.0229
5 11 13 -1.7943 -0.0093
5 11 14 -2.0817 0.0892
5 12 0 -0.2878 -0.4543
5 12 1 -0.8212 -0.0947
5 12 2 -1.4195 0.2045
5 12 3 -0.9245 0.0484
5 12 4 -0.9404 -0.0922
5 12 5 -2.1095 0.0334
5 12 6 -1.9758 0.0710
5 12 7 -0.2825 -0.0292
5 12 8 0.4728 0.0001
5 12 9 -0.1547 0.0813
5 12 10 -0.7453 0.0450
5 12 11 -0.8006 0.0103
5 12 12 -0.5100 0.0190
5 12 13 0.1257 -0.0696
5 12 14 0.8432 -0.1986
5 13 1 0.6965 0.1932
5 13 2 2.2358 -0.0579
5 13 3 3.1081 -0.0335
5 13 4 3.6491 0.1237
5 13 5 4.1732 0.0180
5 13 6 3.2757 -0.0512
5 13 7 0.5144 0.0931
5 13 8 -1.6083 0.0592
5 13 10 0.7358 0.0265
5 13 11 0.5492 0.1200
5 13 12 -0.2598 -0.0063
5 14 2 -0.5275 -0.1544
5 14 3 -2.1413 -0.0831
5 14 4 -2.5539 -0.1202
5 14 5 -3.1750 -0.0559
5 14 10 0.0646 -0.0559
6 -11 0 1.4781 0.3543
6 -11 1 1.4746 -0.0264
6 -10 0 -3.6197 -0.3392
6 -10 1 -2.9858 -0.0024
6 -10 2 -0.5250 0.1032
6 -10 3 1.3034 -0.1135
6 -9 0 2.5058 0.3533
6 -9 1 2.3516 0.0155
6 -9 2 0.9097 -0.0914
6 -9 3 -1.1942 0.0051
6 -9 4 -1.3162 0.0516
6 -8 0 -0.9836 -0.3690
6 -8 1 0.3225 -0.0349
6 -8 2 -0.1631 0.0830
6 -8 3 -0.1029 0.0121
6 -8 4 0.1226 0.0194
6 -8 5 -1.3699 -0.0221
6 -8 6 -1.2376 -0.1235
6 -7 0 1.9682 0.4000
6 -7 1 -0.1194 0.0344
6 -7 2 -0.7630 -0.1131
6 -7 3 0.5537 0.0205
6 -7 4 1.1163 0.0447
6 -7 5 2.2965 -0.0154
6 -7 6 3.4440 0.0420
6 -7 7 1.7095 0.1101
6 -6 0 -2.0866 -0.4673
6 -6 1 -2.7667 -0.0558
6 -6 2 -1.1556 0.1556
6 -6 3 0.1546 -0.0070
6 -6 4 -0.3476 -0.0990
6 -6 5 -1.3500 0.0279
6 -6 6 -2.5282 0.0969
6 -6 7 -3.2685 -0.0145
6 -6 8 -2.0863 -0.1776
6 -5 0 0.4080 0.4740
6 -5 1 3.0059 0.0737
6 -5 2 3.9987 -0.1511
6 -5 3 0.7954 -0.0123
6 -5 4 -1.4684 0.0907
6 -5 5 -0.2479 -0.0087
6 -5 6 0.6310 -0.0970
6 -5 7 1.3865 -0.0570
6 -5 8 2.9115 0.0706
6 -5 9 2.1893 0.1800
6 -4 0 0.3447 -0.4570
6 -4 1 -0.7528 -0.0469
6 -4 2 -3.2201 0.1416
6 -4 3 -2.5153 0.0048
6 -4 4 1.0827 -0.0654
6 -4 5 1.2514 0.0075
6 -4 6 -0.5903 0.0125
6 -4 7 -0.5171 -0.0310
6 -4 8 -1.2473 -0.0265
6 -4 9 -2.6974 -0.0133
6 -4 10 -1.4446 -0.0248
6 -3 0 0.2967 0.5052
6 -3 1 -0.1846 0.0476
6 -3 2 0.5984 -0.1437
6 -3 3 1.6584 0.0086
6 -3 4 0.7292 0.0619
6 -3 5 -0.2818 -0.0265
6 -3 6 0.8416 -0.0145
6 -3 7 1.4861 0.0544
6 -3 8 0.7926 0.0381
6 -3 9 1.4993 -0.0348
6 -3 10 2.4038 -0.1119
6 -2 0 -1.5454 -0.5233
6 -2 1 -0.7152 -0.0599
6 -2 2 -0.2140 0.1481
6 -2 3 0.1849 -0.0154
6 -2 4 -0.6659 -0.0767
6 -2 5 -1.5926 0.0239
6 -2 6 -1.2855 0.0419
6 -2 7 -1.0703 0.0048
6 -2 8 -1.0407 0.0069
6 -2 9 -1.0471 0.0182
6 -2 10 -2.0287 0.0546
6 -2 11 -2.3467 0.1605
6 -1 0 1.9802 0.5127
6 -1 1 1.8740 0.0359
6 -1 2 1.6415 -0.1696
6 -1 3 -0.1878 0.0077
6 -1 4 -0.5642 0.0774
6 -1 5 1.5959 -0.0240
6 -1 6 1.8555 -0.0324
6 -1 7 0.1959 0.0027
6 -1 8 0.1625 -0.0137
6 -1 9 1.2094 0.0011
6 -1 10 1.7130 0.0417
6 -1 11 1.6978 0.0210
6 0 0 -0.8728 -0.5565
6 0 1 -1.7477 -0.0497
6 0 2 -2.6805 0.1701
6 0 3 -1.1352 -0.0181
6 0 4 0.5597 -0.0808
6 0 5 -0.5067 0.0446
6 0 6 -1.1838 0.0310
6 0 7 0.0919 -0.0508
6 0 8 0.2911 -0.0161
6 0 9 -1.1956 0.0087
6 0 10 -1.9459 -0.0496
6 0 11 -0.8892 -0.0730
6 0 12 0.4833 -0.0471
6 1 0 0.0635 0.5644
6 1 1 0.3189 0.0752
6 1 2 1.9871 -0.1563
6 1 3 1.9778 0.0312
6 1 4 0.5178 0.1037
6 1 5 0.5698 -0.0444
6 1 6 0.6604 -0.0500
6 1 7 -0.4850 0.0651
6 1 8 -0.4750 0.0321
6 1 9 1.2120 -0.0549
6 1 10 2.4059 -0.0092
6 1 11 1.6125 0.0214
6 1 12 -0.5851 -0.0821
6 2 0 -0.6659 -0.5403
6 2 1 0.6499 -0.0478
6 2 2 -0.1733 0.1747
6 2 3 -1.1208 -0.0022
6 2 4 -0.5511 -0.0855
6 2 5 -0.8412 0.0326
6 2 6 -1.5511 0.0555
6 2 7 -0.1813 -0.0338
6 2 8 1.3355 -0.0246
6 2 9 0.0937 0.0597
6 2 10 -2.3316 0.0311
6 2 11 -3.0515 -0.0401
6 2 12 -1.6190 0.0816
6 2 13 0.4666 0.2756
6 3 0 1.9367 0.5651
6 3 1 -0.0541 0.0538
6 3 2 -0.4916 -0.1790
6 3 3 0.2260 -0.0030
6 3 4 -0.3759 0.0664
6 3 5 -0.2841 -0.0404
6 3 6 1.7877 -0.0404
6 3 7 1.9684 0.0243
6 3 8 -0.9294 0.0046
6 3 9 -1.9128 -0.0370
6 3 10 0.8522 -0.0097
6 3 11 3.3034 0.0624
6 3 12 3.2044 0.0566
6 3 13 1.6547 -0.0720
6 4 0 -2.0187 -0.5505
6 4 1 -1.0901 -0.0780
6 4 2 -0.4020 0.1551
6 4 3 -0.9384 -0.0164
6 4 4 -0.5962 -0.1009
6 4 5 0.4016 0.0232
6 4 6 -0.7272 0.0390
6 4 7 -2.3672 -0.0461
6 4 8 -0.9282 -0.0286
6 4 9 1.0246 0.0162
6 4 10 -0.1172 -0.0056
6 4 11 -2.1304 -0.0149
6 4 12 -2.5698 -0.0193
6 4 13 -1.9609 -0.0857
6 5 0 -0.0440 0.5282
6 5 1 0.1208 0.0473
6 5 2 0.8694 -0.1611
6 5 3 1.4145 -0.0008
6 5 4 2.1198 0.0877
6 5 5 1.8292 -0.0077
6 5 6 0.9638 -0.0468
6 5 7 1.2797 0.0226
6 5 8 1.4629 0.0363
6 5 9 1.0516 -0.0063
6 5 10 1.4322 0.0080
6 5 11 1.5179 0.0074
6 5 12 0.8914 -0.0650
6 5 13 0.8449 -0.0229
6 5 14 0.7215 0.1751
6 6 0 1.3583 -0.5669
6 6 1 2.2195 -0.0578
6 6 2 0.4013 0.1747
6 6 3 -0.7349 -0.0023
6 6 4 -1.3873 -0.0650
6 6 5 -2.3315 0.0395
6 6 6 -1.8211 0.0431
6 6 7 -0.9463 -0.0143
6 6 8 -0.9001 0.0045
6 6 9 -0.9504 0.0408
6 6 10 -1.4657 0.0114
6 6 11 -1.6243 -0.0199
6 6 12 -0.3284 0.0261
6 6 13 0.5146 0.0446
6 6 14 0.1059 -0.0764
6 7 0 -0.6537 0.5339
6 7 1 -1.5888 0.0856
6 7 2 -1.2359 -0.1632
6 7 3 -0.2846 0.0163
6 7 4 0.3441 0.1080
6 7 5 0.9239 -0.0359
6 7 6 0.8664 -0.0450
6 7 7 0.8332 0.0639
6 7 8 1.3009 0.0190
6 7 9 0.5255 -0.0616
6 7 10 -0.4834 -0.0045
6 7 11 0.7466 0.0311
6 7 12 1.6812 -0.0324
6 7 13 -0.0868 -0.0037
6 7 14 -1.3470 0.1365
6 8 0 0.2661 -0.4832
6 8 1 -0.7715 -0.0376
6 8 2 -0.5599 0.1697
6 8 3 0.6175 0.0062
6 8 4 0.3879 -0.0975
6 8 5 -0.6648 0.0221
6 8 6 -0.5766 0.0619
6 8 7 -0.3853 -0.0563
6 8 8 -1.5110 -0.0552
6 8 9 -1.5687 0.0447
6 8 10 0.5538 -0.0080
6 8 11 0.2896 -0.0827
6 8 12 -2.9923 0.0241
6 8 13 -2.7976 0.0552
6 8 14 0.6601 -0.1471
6 9 0 -0.1645 0.5174
6 9 1 1.1193 0.0509
6 9 2 1.8830 -0.1825
6 9 3 0.7123 -0.0054
6 9 4 -0.6072 0.0818
6 9 5 0.0515 -0.0437
6 9 6 1.4120 -0.0738
6 9 7 1.2887 0.0156
6 9 8 0.8249 0.0159
6 9 9 1.5303 -0.0436
6 9 10 1.3321 -0.0173
6 9 11 0.5881 0.0388
6 9 12 2.5504 0.0106
6 9 13 4.1339 0.0036
6 9 14 1.6986 0.1330
6 10 0 -0.0056 -0.4882
6 10 1 -1.2813 -0.1216
6 10 2 -0.8778 0.1451
6 10 3 -1.5251 0.0088
6 10 4 -1.5327 -0.1276
6 10 5 -0.1791 -0.0035
6 10 6 -0.8026 0.0522
6 10 7 -2.1781 -0.0412
6 10 8 -0.9182 -0.0159
6 10 9 0.0278 0.0423
6 10 10 -1.4403 -0.0121
6 10 11 -2.2082 0.0025
6 10 12 -2.0099 0.0747
6 10 13 -2.2586 -0.0313
6 10 14 -1.6936 -0.2209
6 11 0 -0.4607 0.4306
6 11 1 2.4326 0.0558
6 11 2 1.0794 -0.1099
6 11 3 0.5987 -0.0378
6 11 4 2.6611 0.0668
6 11 5 2.4229 0.0301
6 11 6 1.1381 -0.0313
6 11 7 1.9220 0.0336
6 11 8 1.6408 0.0500
6 11 9 -0.3465 -0.0272
6 11 10 -0.1821 0.0213
6 11 11 1.7016 0.0793
6 11 12 2.1668 -0.0461
6 11 13 1.0986 -0.0828
6 12 0 0.6076 -0.4201
6 12 1 -2.6351 0.0736
6 12 2 -2.8747 0.1435
6 12 3 -0.8657 -0.0230
6 12 4 -0.7134 0.0035
6 12 5 -1.8123 0.0659
6 12 6 -2.1957 0.0466
6 12 7 -2.3971 0.0352
6 12 8 -2.2308 0.0103
6 12 9 -0.8743 0.0088
6 12 10 0.4237 0.0432
6 12 11 0.0613 -0.0050
6 12 12 -1.1350 -0.0434
6 12 13 -1.1792 0.0511
6 13 2 2.9052 -0.1776
6 13 3 1.9589 0.1374
6 13 5 -1.1406 -0.0650
6 13 6 0.2873 -0.0226
6 13 7 1.9982 0.0183
6 13 8 2.2923 -0.0354
6 13 9 1.6174 0.0373
6 13 10 0.6537 0.0488
6 13 11 -0.0999 -0.0889
6 14 4 0.0107 -0.2724
6 14 5 1.2755 -0.0821
6 14 6 1.4336 -0.0486
6 14 7 0.3066 -0.1421
6 14 8 -0.7996 -0.0835
7 -11 0 0.8532 0.0790
7 -10 0 -2.3160 -0.2881
7 -10 1 -0.3845 -0.0875
7 -10 2 0.5646 0.0011
7 -9 0 2.8582 0.3266
7 -9 1 1.7901 0.0959
7 -9 2 -1.0108 -0.0225
7 -9 3 -1.9382 -0.0397
7 -8 0 0.0885 -0.3584
7 -8 1 -2.2007 -0.0021
7 -8 2 -0.9099 0.1393
7 -8 3 2.3262 -0.0037
7 -8 4 1.4268 -0.0286
7 -8 5 -1.1544 0.1710
7 -7 0 -2.6001 0.4030
7 -7 1 0.0700 0.0182
7 -7 2 1.9663 -0.1698
7 -7 3 0.0922 0.0240
7 -7 4 -1.0256 0.1445
7 -7 5 1.3900 -0.0671
7 -7 6 2.7528 -0.2718
7 -6 0 1.4257 -0.4007
7 -6 1 0.8060 -0.0444
7 -6 2 -0.4903 0.1141
7 -6 3 -1.1748 -0.0256
7 -6 4 -0.8246 -0.1195
7 -6 5 -1.2183 -0.0030
7 -6 6 -3.1247 0.1169
7 -6 7 -3.6912 -0.0210
7 -6 8 -1.7669 -0.2590
7 -5 0 0.4897 0.4054
7 -5 1 0.8465 0.0307
7 -5 2 0.3549 -0.0995
7 -5 3 0.0356 0.0078
7 -5 4 1.1853 0.0331
7 -5 5 1.4119 -0.0276
7 -5 6 1.5707 -0.0427
7 -5 7 3.4720 0.0468
7 -5 8 3.7143 0.1665
7 -4 0 -1.1506 -0.4188
7 -4 1 -2.0262 -0.0280
7 -4 2 -2.2354 0.1133
7 -4 3 -0.3740 -0.0032
7 -4 4 -0.0094 -0.0172
7 -4 5 -1.2497 0.0413
7 -4 6 -1.2098 0.0214
7 -4 7 -1.6385 -0.0377
7 -4 8 -2.8857 -0.0332
7 -4 9 -1.9478 0.0648
7 -3 0 0.6903 0.4526
7 -3 1 1.7682 0.0372
7 -3 2 2.8355 -0.1305
7 -3 3 1.9530 0.0096
7 -3 4 0.0401 0.0670
7 -3 5 0.0883 -0.0094
7 -3 6 1.2479 -0.0296
7 -3 7 1.3854 0.0375
7 -3 8 1.0340 0.0484
7 -3 9 0.6040 -0.0855
7 -3 10 -0.1657 -0.2063
7 -2 0 0.0310 -0.4968
7 -2 1 -0.9355 -0.0603
7 -2 2 -1.7286 0.1383
7 -2 3 -2.0029 0.0011
7 -2 4 -1.1620 -0.0832
7 -2 5 0.0996 -0.0102
7 -2 6 -0.3262 0.0450
7 -2 7 -1.4257 -0.0071
7 -2 8 -0.6941 -0.0443
7 -2 9 0.6097 0.0293
7 -2 10 0.6613 0.0852
7 -1 0 0.3208 0.4889
7 -1 1 0.4480 0.0544
7 -1 2 0.6420 -0.1430
7 -1 3 1.1057 -0.0033
7 -1 4 1.5245 0.0658
7 -1 5 0.6888 -0.0155
7 -1 6 0.2988 -0.0485
7 -1 7 1.2592 0.0228
7 -1 8 1.0347 0.0311
7 -1 9 -0.1975 -0.0720
7 -1 10 -0.0053 -0.0345
7 -1 11 0.7318 0.1388
7 0 0 -0.6227 -0.4962
7 0 1 -0.4838 -0.0354
7 0 2 -0.3486 0.1675
7 0 3 -0.6375 0.0009
7 0 4 -1.1988 -0.0757
7 0 5 -0.5228 0.0256
7 0 6 -0.4174 0.0586
7 0 7 -1.7541 -0.0321
7 0 8 -1.4987 -0.0572
7 0 9 -0.3712 0.0572
7 0 10 -1.2104 0.0523
7 0 11 -2.2333 -0.1721
7 1 0 -0.0046 0.5289
7 1 1 0.3821 0.0653
7 1 2 0.7415 -0.1670
7 1 3 0.6382 -0.0022
7 1 4 0.6862 0.0960
7 1 5 -0.2550 -0.0037
7 1 6 -0.6638 -0.0471
7 1 7 1.1849 0.0144
7 1 8 1.7129 0.0195
7 1 9 0.4559 -0.0325
7 1 10 1.3452 -0.0062
7 1 11 2.7151 0.0844
7 1 12 1.5282 0.1454
7 2 0 0.6361 -0.5078
7 2 1 -0.3279 -0.0687
7 2 2 -1.3504 0.1516
7 2 3 -0.8974 0.0004
7 2 4 -0.2133 -0.0978
7 2 5 0.4995 0.0054
7 2 6 1.2872 0.0538
7 2 7 0.4661 -0.0267
7 2 8 -0.7940 -0.0188
7 2 9 -0.6375 0.0544
7 2 10 -1.1000 -0.0138
7 2 11 -2.2237 -0.0485
7 2 12 -1.0095 0.0957
7 3 0 -0.9211 0.5137
7 3 1 0.2429 0.0441
7 3 2 1.4291 -0.1685
7 3 3 0.6961 -0.0027
7 3 4 -0.3668 0.0862
7 3 5 -0.3992 -0.0203
7 3 6 -0.7995 -0.0807
7 3 7 -1.2946 0.0104
7 3 8 -0.3929 0.0621
7 3 9 0.8712 -0.0155
7 3 10 1.3547 -0.0017
7 3 11 1.6916 0.0618
7 3 12 1.1497 -0.0985
7 4 0 0.1885 -0.5395
7 4 1 -0.3126 -0.0751
7 4 2 -0.6484 0.1775
7 4 3 0.2710 -0.0028
7 4 4 1.3792 -0.0984
7 4 5 0.9223 0.0223
7 4 6 0.4539 0.0604
7 4 7 1.2624 -0.0182
7 4 8 0.9255 -0.0411
7 4 9 -1.0402 0.0076
7 4 10 -1.6255 0.0106
7 4 11 -1.0076 -0.0299
7 4 12 -1.0713 0.0030
7 4 13 -0.6297 0.0853
7 5 0 0.9279 0.5015
7 5 1 1.2913 0.0737
7 5 2 0.3481 -0.1711
7 5 3 -1.0129 -0.0081
7 5 4 -1.8722 0.1131
7 5 5 -1.7294 -0.0143
7 5 6 -0.7012 -0.0533
7 5 7 -0.6706 0.0610
7 5 8 -0.8674 0.0397
7 5 9 0.8824 -0.0590
7 5 10 1.9730 -0.0255
7 5 11 0.7684 0.0008
7 5 12 0.2608 -0.0434
7 5 13 0.6613 0.0349
7 6 0 -1.5380 -0.5048
7 6 1 -1.8273 -0.0299
7 6 2 -1.0643 0.1718
7 6 3 0.5003 0.0111
7 6 4 1.1540 -0.0825
7 6 5 1.5432 0.0248
7 6 6 0.7206 0.0737
7 6 7 -0.6965 -0.0285
7 6 8 -0.2718 -0.0382
7 6 9 -0.3348 0.0598
7 6 10 -2.1257 0.0216
7 6 11 -2.0376 -0.0439
7 6 12 -0.1620 0.0337
7 6 13 0.5452 0.0023
7 7 0 2.6601 0.5093
7 7 1 1.8559 0.0514
7 7 2 1.2724 -0.1594
7 7 3 0.5548 0.0333
7 7 4 0.1647 0.1004
7 7 5 -0.5957 -0.0402
7 7 6 -0.4101 -0.0645
7 7 7 1.7849 0.0205
7 7 8 2.1681 0.0096
7 7 9 0.4946 -0.0355
7 7 10 1.5619 0.0141
7 7 11 3.4706 0.0451
7 7 12 1.3187 0.0107
7 7 13 -1.7707 0.0774
7 8 0 -2.8568 -0.4434
7 8 1 -2.1327 -0.0586
7 8 2 -1.2142 0.1427
7 8 3 -0.8467 -0.0168
7 8 4 -0.8037 -0.1232
7 8 5 -0.3028 0.0113
7 8 6 -0.0364 0.0566
7 8 7 -1.3796 -0.0591
7 8 8 -2.5612 -0.0457
7 8 9 -1.5016 0.0247
7 8 10 -1.3126 -0.0461
7 8 11 -3.3794 -0.0323
7 8 12 -2.3509 0.0931
7 8 13 1.9573 -0.0371
7 9 0 1.6483 0.4829
7 9 1 0.4166 0.0294
7 9 2 0.8485 -0.1392
7 9 3 1.1848 -0.0248
7 9 4 0.2449 0.0329
7 9 5 -0.0481 -0.0289
7 9 6 0.8808 -0.0543
7 9 7 1.2683 0.0265
7 9 8 1.3159 0.0489
7 9 9 1.6294 -0.0420
7 9 10 1.8192 -0.0171
7 9 11 2.4495 0.0559
7 9 12 2.0400 -0.0838
7 9 13 -0.9193 -0.1527
7 10 0 -1.9735 -0.4710
7 10 1 1.6721 -0.0599
7 10 2 1.1976 0.1382
7 10 3 -1.7128 -0.0290
7 10 4 -0.6628 -0.0452
7 10 5 1.3604 0.0738
7 10 6 -0.5036 0.0401
7 10 7 -2.4403 -0.0323
7 10 8 -1.7034 -0.0073
7 10 9 -1.3790 0.0656
7 10 10 -2.0260 0.0913
7 10 11 -1.8916 -0.0050
7 10 12 -1.0014 -0.0568
7 10 13 0.2215 0.0761
7 11 0 2.4942 0.1460
7 11 1 -0.4672 0.0322
7 11 2 -2.2272 -0.1111
7 11 3 0.8596 0.0278
7 11 4 2.2335 0.1485
7 11 5 -0.2156 0.0100
7 11 6 -0.6060 -0.0296
7 11 7 1.7726 0.0881
7 11 8 2.8855 0.0563
7 11 9 2.4413 -0.0389
7 11 11 1.6947 0.0664
7 11 12 0.7655 0.1174
7 12 2 0.4094 0.0317
7 12 3 0.1155 0.0364
7 12 4 -1.7652 -0.0216
7 12 5 -2.2819 -0.0357
7 12 6 -0.8757 0.0410
7 12 7 0.0534 -0.0015
7 12 8 -1.0314 -0.0487
7 12 9 -2.3490 0.0393
7 12 10 -2.0513 -0.0087
7 12 11 -1.2715 -0.2134
7 12 12 -0.9127 -0.2450
7 13 4 0.2161 -0.1496
7 13 5 1.7999 -0.1177
7 13 6 2.4244 -0.0774
7 13 7 0.3583 -0.1352
7 13 8 -1.1347 -0.1065
7 13 9 -0.1443 -0.1023
7 13 10 0.7732 -0.1317
8 -10 0 1.0458 -0.3850
8 -9 0 0.1657 0.3665
8 -9 1 0.3769 -0.0412
8 -9 2 -0.0937 -0.2631
8 -8 0 -1.9793 -0.2860
8 -8 1 -2.5827 0.0384
8 -8 2 -2.5264 0.1593
8 -8 3 -1.9299 -0.0417
8 -8 4 -0.6170 -0.1626
8 -7 0 0.9860 0.3181
8 -7 1 2.3136 0.0177
8 -7 2 3.9771 -0.1022
8 -7 3 4.7106 0.0311
8 -7 4 3.2604 0.1227
8 -7 5 0.6477 0.0063
8 -6 0 1.2764 -0.3556
8 -6 1 0.5475 -0.0849
8 -6 2 -1.5605 0.0579
8 -6 3 -3.9319 0.0227
8 -6 4 -3.3860 -0.0448
8 -6 5 -1.5623 -0.0427
8 -6 6 -1.2155 0.0318
8 -6 7 -1.3651 0.0894
8 -5 0 -1.6655 0.3721
8 -5 1 -1.5005 0.0509
8 -5 2 -1.0773 -0.0870
8 -5 3 0.7453 -0.0250
8 -5 4 0.9968 0.0226
8 -5 5 -0.0157 0.0120
8 -5 6 1.4538 0.0007
8 -5 7 3.2684 -0.0156
8 -4 0 0.2281 -0.4184
8 -4 1 0.1444 -0.0251
8 -4 2 0.6960 0.1510
8 -4 3 0.6277 0.0129
8 -4 4 0.2468 -0.0804
8 -4 5 0.6656 0.0161
8 -4 6 -0.4685 0.0742
8 -4 7 -2.7559 -0.0078
8 -4 8 -2.1953 -0.0336
8 -3 0 1.4192 0.4216
8 -3 1 1.0332 0.0367
8 -3 2 0.3303 -0.1533
8 -3 3 -0.1296 0.0044
8 -3 4 0.1869 0.1207
8 -3 5 0.5869 -0.0123
8 -3 6 1.2037 -0.1077
8 -3 7 1.6893 0.0182
8 -3 8 0.4450 0.1040
8 -3 9 -1.3502 0.0933
8 -2 0 -1.1316 -0.4174
8 -2 1 -1.0754 -0.0359
8 -2 2 -0.5557 0.1392
8 -2 3 -0.1573 -0.0090
8 -2 4 -0.2706 -0.1077
8 -2 5 -0.8710 0.0195
8 -2 6 -1.7750 0.0872
8 -2 7 -1.6805 -0.0360
8 -2 8 0.4115 -0.0838
8 -2 9 2.4270 -0.0786
8 -1 0 -0.0193 0.4494
8 -1 1 0.0570 0.0509
8 -1 2 0.7127 -0.1195
8 -1 3 0.8688 0.0038
8 -1 4 0.0647 0.0643
8 -1 5 0.0011 -0.0409
8 -1 6 0.9293 -0.0468
8 -1 7 0.9647 0.0682
8 -1 8 -0.1956 0.0006
8 -1 9 -1.1859 -0.0865
8 -1 10 -1.1699 0.1000
8 0 0 -0.1184 -0.4644
8 0 1 0.4490 -0.0379
8 0 2 -0.4800 0.1188
8 0 3 -2.0221 -0.0261
8 0 4 -1.0068 -0.0611
8 0 5 0.2801 0.0638
8 0 6 -0.4831 0.0471
8 0 7 -0.2273 -0.1042
8 0 8 0.7571 -0.0255
8 0 9 -0.3564 0.1653
8 0 10 -1.4138 0.0609
8 1 0 0.1366 0.4858
8 1 1 -0.1077 0.0251
8 1 2 -0.1661 -0.1655
8 1 3 1.6684 0.0186
8 1 4 2.2742 0.0942
8 1 5 0.7503 -0.0420
8 1 6 0.5952 -0.0671
8 1 7 0.3304 0.0617
8 1 8 -1.2548 0.0538
8 1 9 -0.1616 -0.0636
8 1 10 2.4174 -0.0297
8 1 11 2.0965 0.0801
8 2 0 0.0197 -0.4845
8 2 1 0.0264 -0.0628
8 2 2 0.6233 0.1621
8 2 3 -0.1666 0.0067
8 2 4 -2.0600 -0.0915
8 2 5 -1.9881 0.0248
8 2 6 -0.9715 0.0401
8 2 7 -0.4348 -0.0584
8 2 8 0.6935 0.0018
8 2 9 0.9069 0.0699
8 2 10 -0.8808 -0.0455
8 2 11 -1.7564 -0.1485
8 3 0 0.3361 0.4622
8 3 1 -0.0450 0.0499
8 3 2 -0.5538 -0.1354
8 3 3 -0.4382 0.0034
8 3 4 1.0836 0.0861
8 3 5 1.7472 -0.0412
8 3 6 0.9636 -0.0597
8 3 7 0.6843 0.0935
8 3 8 0.7213 0.0334
8 3 9 0.0644 -0.1276
8 3 10 -0.0275 -0.0198
8 3 11 0.9404 0.1301
8 4 0 0.0297 -0.5062
8 4 1 0.7844 -0.0317
8 4 2 0.7020 0.1554
8 4 3 0.2049 -0.0035
8 4 4 -0.4118 -0.0859
8 4 5 -0.2851 0.0229
8 4 6 0.3737 0.0786
8 4 7 -0.3768 -0.0292
8 4 8 -2.0193 -0.0473
8 4 9 -1.8597 0.0640
8 4 10 -0.7517 0.0315
8 4 11 -1.3151 -0.0673
8 4 12 -2.0630 -0.0323
8 5 0 -0.1214 0.4970
8 5 1 -1.5923 0.0662
8 5 2 -1.6399 -0.1430
8 5 3 -0.3641 0.0065
8 5 4 -0.3908 0.0776
8 5 5 -1.4773 -0.0175
8 5 6 -1.9735 -0.0282
8 5 7 -0.8616 0.0266
8 5 8 1.6218 -0.0132
8 5 9 2.7373 -0.0418
8 5 10 1.8387 0.0375
8 5 11 1.8700 0.0574
8 5 12 2.5073 -0.0446
8 6 0 -0.6032 -0.4235
8 6 1 0.5542 -0.0263
8 6 2 1.3765 0.1290
8 6 3 0.1481 -0.0155
8 6 4 0.4401 -0.0818
8 6 5 2.4220 0.0371
8 6 6 2.6017 0.0433
8 6 7 1.4600 -0.0717
8 6 8 -0.0920 -0.0279
8 6 9 -2.0320 0.0527
8 6 10 -2.6414 -0.0369
8 6 11 -2.1572 -0.0688
8 6 12 -1.8214 0.0786
8 7 0 0.5492 0.4610
8 7 1 0.4624 0.0036
8 7 2 0.2072 -0.1650
8 7 3 1.3002 0.0017
8 7 4 1.3556 0.0722
8 7 5 -0.9145 -0.0361
8 7 6 -1.7497 -0.0666
8 7 7 -0.8176 0.0288
8 7 8 -0.4272 0.0391
8 7 9 0.6914 -0.0367
8 7 10 2.4431 -0.0150
8 7 11 2.3184 0.0598
8 7 12 1.0407 0.0095
8 8 0 0.6145 -0.4731
8 8 1 -0.1742 -0.1012
8 8 2 -0.8073 0.1479
8 8 3 -1.9856 -0.0006
8 8 4 -2.8260 -0.0963
8 8 5 -1.7213 0.0333
8 8 6 -0.1997 0.0428
8 8 7 -0.2929 -0.0608
8 8 8 -0.6795 -0.0134
8 8 9 -0.5613 0.0774
8 8 10 -1.0373 0.0531
8 8 11 -1.1807 -0.0312
8 8 12 -0.3052 -0.1217
8 9 0 -2.3570 0.3985
8 9 1 -0.1529 0.0962
8 9 2 1.5302 -0.0912
8 9 3 1.7045 -0.0096
8 9 4 1.9027 0.1173
8 9 5 2.2141 -0.0021
8 9 6 1.2775 -0.0840
8 9 7 0.7447 0.0745
8 9 8 1.9467 0.0818
8 9 9 2.1196 -0.0866
8 9 10 0.3935 -0.0543
8 9 11 -0.7907 0.0897
8 10 0 2.5260 -0.3914
8 10 1 0.4253 0.0546
8 10 2 -2.8607 0.1375
8 10 3 -2.8604 0.0212
8 10 4 -1.0705 -0.0432
8 10 5 -0.7909 -0.0018
8 10 6 -0.6583 0.0951
8 10 7 -0.3827 0.0468
8 10 8 -2.0147 -0.0514
8 10 9 -3.2400 0.0350
8 10 10 -1.2660 0.0519
8 10 11 1.1760 -0.1528
8 11 2 2.5451 -0.2659
8 11 3 3.6310 -0.0280
8 11 4 2.2521 0.0473
8 11 5 0.5968 -0.0179
8 11 6 -0.4307 -0.0084
8 11 7 -0.1580 -0.0112
8 11 8 1.7447 -0.0119
8 11 9 2.8423 0.0190
8 11 10 1.5962 0.0150
8 12 5 -1.8664 -0.0865
8 12 6 0.4778 -0.0712
8 12 7 1.0290 -0.1469
8 12 8 -1.3057 -0.1037
8 12 9 -2.2644 -0.1066
9 -9 0 -1.3267 0.0396
9 -8 0 1.7368 -0.2475
9 -8 1 1.8279 -0.0765
9 -8 2 -1.3806 -0.0065
9 -7 0 0.6816 0.3012
9 -7 1 -1.5959 0.1084
9 -7 2 0.8280 -0.0026
9 -7 3 4.2740 -0.0269
9 -7 4 4.2184 -0.0887
9 -6 0 -0.5533 -0.3117
9 -6 1 0.5255 -0.0272
9 -6 2 0.2624 0.1009
9 -6 3 -1.0987 0.0183
9 -6 4 -2.6194 -0.0253
9 -6 5 -2.7403 0.1036
9 -5 0 -1.4472 0.3380
9 -5 1 -0.6278 -0.0063
9 -5 2 -0.3188 -0.1455
9 -5 3 -1.5161 0.0039
9 -5 4 -1.9110 0.0838
9 -5 5 0.1259 -0.0476
9 -4 0 1.3134 -0.3527
9 -4 1 0.7736 -0.0156
9 -4 2 -0.2184 0.1406
9 -4 3 0.3022 -0.0288
9 -4 4 2.2883 -0.1113
9 -3 0 -0.1078 0.3688
9 -3 1 -0.2689 0.0616
9 -3 2 0.0920 -0.1102
9 -3 3 1.1813 -0.0042
9 -3 4 0.8132 0.0770
9 -3 6 -0.3700 -0.0091
9 -3 7 0.3538 -0.0110
9 -3 8 0.2385 -0.1531
9 -2 0 0.0052 -0.3817
9 -2 1 -0.4776 -0.0580
9 -2 2 0.0927 0.0888
9 -2 3 -0.2927 -0.0008
9 -2 4 -1.3249 -0.0260
9 -2 5 -1.4380 0.0351
9 -2 6 -1.4096 -0.0368
9 -2 7 -1.3696 -0.0682
9 -2 8 -0.5332 0.0954
9 -2 9 0.3063 0.1460
9 -1 0 -0.4631 0.4053
9 -1 1 0.7555 0.0279
9 -1 2 0.7899 -0.1441
9 -1 3 -0.4002 0.0176
9 -1 4 -0.3198 0.0818
9 -1 5 0.5565 -0.0581
9 -1 6 0.9432 -0.0455
9 -1 7 1.6773 0.0464
9 -1 8 2.1226 0.0095
9 -1 9 0.8897 0.0671
9 0 0 -0.2677 -0.4126
9 0 1 -0.4055 -0.0453
9 0 2 -1.0468 0.1720
9 0 3 -0.2398 0.0167
9 0 4 0.5819 -0.1248
9 0 5 -0.1649 0.0040
9 0 6 0.0462 0.0781
9 0 7 0.4001 0.0178
9 0 8 -1.5499 0.0162
9 0 9 -2.3132 -0.0974
9 1 0 0.9935 0.4081
9 1 1 0.5060 0.0516
9 1 2 0.1688 -0.1424
9 1 3 0.3109 -0.0127
9 1 4 0.1001 0.0985
9 1 5 0.6705 -0.0095
9 1 6 0.6688 -0.0540
9 1 7 -0.8169 0.0313
9 1 8 -0.2913 0.0117
9 1 9 1.4765 -0.0156
9 1 10 0.6444 0.1006
9 2 0 -0.1653 -0.4464
9 2 1 -0.3984 -0.0662
9 2 2 -0.0201 0.1444
9 2 3 -0.1583 -0.0079
9 2 4 -0.3894 -0.1004
9 2 5 -0.5358 0.0425
9 2 6 -0.7911 0.0739
9 2 7 -0.4729 -0.0484
9 2 8 -0.1970 -0.0689
9 2 9 -0.4468 0.0050
9 2 10 -0.0936 0.0641
9 3 0 0.4771 0.4427
9 3 1 0.0147 0.0983
9 3 2 0.4115 -0.1451
9 3 3 0.7959 -0.0082
9 3 4 0.4800 0.1163
9 3 5 0.0625 -0.0335
9 3 6 0.2901 -0.0785
9 3 7 0.9256 0.0331
9 3 8 1.4937 0.0323
9 3 9 1.4274 -0.0047
9 3 10 0.7216 -0.0558
9 4 0 -1.7475 -0.3980
9 4 1 -0.6420 -0.0596
9 4 2 -0.7527 0.1510
9 4 3 -1.2857 0.0327
9 4 4 -0.5480 -0.1137
9 4 5 0.3876 0.0108
9 4 6 -0.1224 0.0866
9 4 7 -1.0600 -0.0317
9 4 8 -1.5837 -0.0453
9 4 9 -2.3273 0.0147
9 4 10 -2.8336 0.0469
9 5 0 0.8896 0.4078
9 5 1 0.4950 0.0479
9 5 2 0.6693 -0.1611
9 5 3 1.1248 -0.0421
9 5 4 0.6026 0.0912
9 5 5 -0.1701 0.0073
9 5 6 0.1413 -0.0713
9 5 7 0.9666 0.0034
9 5 8 1.1453 0.0579
9 5 9 1.7421 0.0353
9 5 10 3.4517 -0.0196
9 5 11 3.5308 -0.1310
9 6 0 0.4099 -0.4111
9 6 1 0.6392 -0.0875
9 6 2 0.3338 0.1233
9 6 3 -0.5116 0.0072
9 6 4 -0.4536 -0.0899
9 6 5 -0.3823 0.0167
9 6 6 -0.6879 0.0506
9 6 7 -0.8700 -0.0349
9 6 8 -0.9330 -0.0449
9 6 9 -1.0161 -0.0016
9 6 10 -1.8556 0.0371
9 7 0 -0.5647 0.4420
9 7 1 -0.6820 0.0503
9 7 2 -0.7109 -0.1300
9 7 3 0.1977 0.0111
9 7 4 0.1336 0.1079
9 7 5 -0.4414 -0.0213
9 7 6 0.0639 -0.0917
9 7 7 1.0117 0.0193
9 7 8 1.5602 0.0750
9 7 9 1.2148 -0.0243
9 7 10 0.3058 -0.1335
9 8 0 0.5828 -0.4492
9 8 1 0.7470 -0.0276
9 8 2 0.8181 0.1743
9 8 3 -0.2172 0.0042
9 8 4 -0.3007 -0.0758
9 8 5 1.8258 0.0041
9 8 6 2.6966 0.0426
9 8 7 0.2454 0.0391
9 8 8 -2.2593 -0.0094
9 8 9 -1.8349 -0.0382
9 8 10 0.2461 0.0855
9 9 0 -0.3177 0.1869
9 9 1 -0.9296 0.0278
9 9 2 -2.0154 -0.1232
9 9 3 -1.2732 0.0282
9 9 4 0.1673 0.0718
9 9 5 -1.6304 -0.0434
9 9 6 -4.3035 0.0311
9 9 7 -2.2694 0.0654
9 9 8 1.8108 -0.0423
9 9 9 1.9847 0.0520
9 10 3 2.9247 -0.0387
9 10 4 1.0543 -0.0659
9 10 5 0.5571 0.0655
9 10 6 2.6959 0.0545
9 10 7 2.3553 -0.0796
9 10 8 -0.7756 -0.0047
10 -7 0 0.9765 0.2900
10 -7 1 1.4809 0.0539
10 -7 2 0.5950 -0.0624
10 -6 0 -1.1964 -0.2338
10 -6 1 -2.8705 -0.0020
10 -6 2 -1.5343 0.1429
10 -6 4 0.4732 -0.2301
10 -5 0 -1.8334 0.3072
10 -5 1 0.9388 0.0680
10 -5 2 2.2358 -0.1277
10 -5 3 1.0247 -0.0546
10 -4 0 0.8325 -0.3374
10 -4 1 1.2830 -0.1100
10 -4 2 -1.3622 0.0483
10 -4 3 -2.3276 0.0393
10 -3 0 2.8938 0.3013
10 -3 1 0.4524 0.0452
10 -3 2 0.9365 -0.1021
10 -2 0 -2.7722 -0.3306
10 -2 1 -2.0699 -0.0334
10 -1 0 1.9367 0.3697
10 -1 4 0.5387 0.0357
10 -1 5 -0.3831 0.0070
10 -1 6 -0.4594 0.0344
10 -1 7 0.0915 -0.0521
10 -1 8 0.0752 -0.1473
10 0 2 -0.9113 0.1284
10 0 3 -0.8729 -0.0405
10 0 4 -1.6565 -0.0361
10 0 5 -1.2849 0.0802
10 0 6 0.0887 -0.0429
10 0 7 0.1690 -0.1249
10 0 8 0.0090 -0.0028
10 1 0 1.1676 0.3846
10 1 1 1.6884 0.0590
10 1 2 1.2389 -0.1356
10 1 3 0.5623 0.0165
10 1 4 1.0882 0.0591
10 1 5 2.1372 -0.0607
10 1 6 1.5524 0.0058
10 1 7 0.1154 0.0816
10 1 8 -1.0988 -0.0692
10 1 9 -2.1655 -0.2217
10 2 0 2.7504 -0.3917
10 2 1 0.0547 -0.0424
10 2 2 -1.3459 0.1235
10 2 3 -0.3862 -0.0293
10 2 4 0.8684 -0.0661
10 2 5 0.2491 0.0243
10 2 6 -1.5631 -0.0126
10 2 7 -2.0467 -0.0380
10 2 8 0.0963 0.0932
10 2 9 2.7384 0.2725
10 3 0 -3.3410 0.4170
10 3 1 -1.3322 0.0255
10 3 2 1.2908 -0.1698
10 3 3 1.1308 0.0233
10 3 4 -0.6907 0.0710
10 3 5 -1.4468 -0.0232
10 3 6 -0.0959 -0.0082
10 3 7 2.3185 -0.0172
10 3 8 2.5310 -0.0331
10 3 9 -0.1625 -0.0280
10 4 0 -0.1037 -0.3994
10 4 1 0.0844 -0.0509
10 4 2 -1.1913 0.1606
10 4 3 -1.5736 -0.0077
10 4 4 -0.8018 -0.0483
10 4 5 -0.4967 0.0452
10 4 6 -0.6158 0.0055
10 4 7 -1.4744 0.0306
10 4 8 -3.0198 0.0401
10 4 9 -2.8001 -0.1380
10 5 0 2.0669 0.3901
10 5 1 1.4535 0.0256
10 5 2 1.3450 -0.1240
10 5 3 1.2503 0.0543
10 5 4 0.8438 0.0559
10 5 5 0.8866 -0.0634
10 5 6 1.2225 0.0088
10 5 7 1.3613 0.0302
10 5 8 2.0433 -0.0383
10 5 9 2.8753 0.0938
10 6 0 -0.8778 -0.4284
10 6 1 -0.4175 -0.0343
10 6 2 -1.0792 0.1355
10 6 3 -1.5002 -0.0714
10 6 4 -0.7220 -0.0779
10 6 5 0.5538 0.0605
10 6 6 0.9934 -0.0220
10 6 7 0.0197 -0.0797
10 6 8 -1.1006 0.0517
10 6 9 -1.3605 0.0574
10 7 0 -0.1301 0.3592
10 7 1 -0.8559 0.0856
10 7 2 0.2647 -0.1015
10 7 3 1.8327 0.0251
10 7 4 1.3336 0.0625
10 7 5 -0.6991 -0.0634
10 7 6 -2.0062 -0.0168
10 7 7 -1.1933 0.0971
10 7 8 0.2948 -0.0284
10 8 1 0.3302 -0.0270
10 8 2 -0.4570 0.0654
10 8 3 -1.7520 0.0639
10 8 4 -1.2644 0.0209
10 8 5 0.5486 0.0022
10 8 6 0.9761 0.0419
10 8 7 -0.1217 0.0166
11 -6 0 -3.4120 -0.2279
11 -6 1 -0.6385 0.0845
11 -5 0 3.7634 0.2534
11 -5 1 1.9714 -0.0261
11 -5 2 0.8908 -0.1165
11 -4 0 -3.6616 -0.2661
11 -4 1 -1.9859 0.0284
11 -3 0 4.9118 0.2878
11 0 6 -1.5743 -0.0670
11 0 7 -1.2570 -0.0180
11 1 3 2.1098 0.0375
11 1 4 2.4020 -0.0003
11 1 5 2.5366 -0.0551
11 1 6 2.1768 0.0222
11 1 7 1.4461 0.1006
11 2 1 -3.7116 -0.0384
11 2 2 -3.1212 0.1371
11 2 3 -1.8542 0.0331
11 2 4 -1.2810 -0.0356
11 2 5 -1.5486 -0.0121
11 2 6 -1.9006 0.0371
11 2 7 -1.1504 -0.0249
11 3 0 1.3912 0.3434
11 3 1 2.2425 0.0025
11 3 2 0.6032 -0.0906
11 3 3 -0.6776 -0.0189
11 3 4 -0.5700 0.0220
11 3 5 -0.5957 0.0496
11 3 6 -0.3539 -0.0158
11 3 7 0.2342 0.0265
11 4 0 -2.1271 -0.3209
11 4 1 -2.3514 0.0393
11 4 2 0.1606 0.0769
11 4 3 1.8097 -0.0357
11 4 4 0.6294 -0.0499
11 4 5 0.0602 -0.0573
11 4 6 1.3041 0.0600
11 4 7 1.2736 0.0875
11 5 0 0.3935 0.3384
11 5 1 2.1406 -0.0048
11 5 2 1.2235 -0.0294
11 5 3 -0.4171 0.0563
11 5 4 0.2427 0.0518
11 5 5 1.6174 0.0761
11 5 6 0.8419 -0.0563
11 5 7 -0.5784 -0.2409
11 6 0 2.0527 -0.2976
11 6 1 0.1047 0.0396
11 6 2 -1.3592 0.0462
11 6 3 -0.7528 -0.0092
11 6 4 -0.1169 0.0406
11 6 5 -0.6220 0.0038
11 6 6 -1.2779 0.0384
12 2 4 -0.5362 -0.1949
12 3 2 -1.5313 0.0068
12 3 3 -0.1503 0.0278
12 3 4 0.6725 0.2247
12 4 1 1.2127 0.1085
12 4 2 2.2969 -0.0660
12 4 3 1.3973 -0.1009
0 0 0 0.0 0.0
;
_shelx_fab_checksum              79735
_olex2_submission_special_instructions 'No special instructions were received'
loop_
_space_group_symop_operation_xyz
'x, y, z'
'-x, -y, -z'
loop_
_atom_site_label
_atom_site_type_symbol
_atom_site_fract_x
_atom_site_fract_y
_atom_site_fract_z
_atom_site_U_iso_or_equiv
_atom_site_adp_type
_atom_site_occupancy
_atom_site_site_symmetry_order
_atom_site_calc_flag
_atom_site_refinement_flags_posn
_atom_site_refinement_flags_adp
_atom_site_refinement_flags_occupancy
C1 C 0.8195(5) 0.8232(4) 0.4975(4) 0.0312(11) Uani 1 1 d . U .
C2 C 0.7402(5) 0.5294(4) 0.3702(4) 0.0281(10) Uani 1 1 d . U .
C3 C 1.1861(5) 0.9842(4) 0.1769(4) 0.0290(10) Uani 1 1 d . U .
C4 C 1.2755(5) 0.9320(4) 0.1137(4) 0.0308(11) Uani 1 1 d . U .
C5 C 0.7316(5) 0.9339(4) 0.4410(4) 0.0302(11) Uani 1 1 d . U .
C6 C 0.8367(5) 0.6310(4) 0.2909(4) 0.0286(10) Uani 1 1 d . U .
C7 C 0.5908(5) 1.1486(5) 0.3336(4) 0.0457(13) Uani 1 1 d . U .
H7 H 0.539993 1.222976 0.295631 0.055 Uiso 1 1 calc R . .
C8 C 0.7140(5) 0.3571(4) 0.5579(4) 0.0359(12) Uani 1 1 d . U .
H8 H 0.748780 0.302398 0.634651 0.043 Uiso 1 1 calc R . .
C9 C 0.5829(5) 0.3341(4) 0.5284(5) 0.0439(13) Uani 1 1 d . U .
H9 H 0.527561 0.266174 0.582922 0.053 Uiso 1 1 calc R . .
C10 C 0.5370(5) 1.0408(5) 0.3455(5) 0.0481(14) Uani 1 1 d . U .
H10 H 0.446781 1.043660 0.314976 0.058 Uiso 1 1 calc R . .
C11 C 0.7237(5) 1.1413(5) 0.3806(4) 0.0400(12) Uani 1 1 d . U .
H11 H 0.764580 1.212315 0.374261 0.048 Uiso 1 1 calc R . .
C12 C 1.2853(5) 0.8863(5) -0.0436(4) 0.0449(13) Uani 1 1 d . U .
H12 H 1.245604 0.887492 -0.111598 0.054 Uiso 1 1 calc R . .
C13 C 0.5377(5) 0.4168(5) 0.4142(5) 0.0458(13) Uani 1 1 d . U .
H13 H 0.448953 0.403457 0.391158 0.055 Uiso 1 1 calc R . .
C14 C 1.4719(6) 0.8330(5) 0.0927(5) 0.0565(16) Uani 1 1 d . U .
H14 H 1.561725 0.796668 0.118250 0.068 Uiso 1 1 calc R . .
C15 C 1.4170(6) 0.8325(5) -0.0078(5) 0.0560(16) Uani 1 1 d . U .
H15 H 1.467767 0.796794 -0.049784 0.067 Uiso 1 1 calc R . .
Cu1 Cu 1.000000 1.000000 0.000000 0.0295(2) Uani 1 2 d S TU P
Cu2 Cu 1.000000 0.500000 0.500000 0.0299(2) Uani 1 2 d S TU P
Cu3 Cu 1.000000 1.000000 0.500000 0.0314(2) Uani 1 2 d S TU P
N1 N 0.9655(4) 0.6319(3) 0.3311(3) 0.0292(9) Uani 1 1 d . U .
N2 N 1.0313(4) 0.7330(3) 0.2438(3) 0.0393(10) Uani 1 1 d . U .
N3 N 0.9414(4) 0.7898(4) 0.1535(3) 0.0407(10) Uani 1 1 d . U .
N4 N 0.8171(4) 0.7263(3) 0.1815(3) 0.0385(10) Uani 1 1 d . U .
N5 N 0.7944(4) 0.4544(3) 0.4816(3) 0.0281(9) Uani 1 1 d . U .
N6 N 0.6142(4) 0.5162(4) 0.3333(3) 0.0413(10) Uani 1 1 d . U .
N7 N 1.0548(4) 1.0269(3) 0.1358(3) 0.0291(9) Uani 1 1 d . U .
N8 N 0.9921(4) 1.0599(4) 0.2139(3) 0.0379(10) Uani 1 1 d . U .
N9 N 1.0847(5) 1.0381(4) 0.2995(3) 0.0424(11) Uani 1 1 d . U .
N10 N 1.2072(4) 0.9890(4) 0.2796(3) 0.0402(10) Uani 1 1 d . U .
N11 N 1.2128(4) 0.9367(3) 0.0161(3) 0.0277(8) Uani 1 1 d . U .
N12 N 1.4038(4) 0.8822(4) 0.1542(4) 0.0425(11) Uani 1 1 d . U .
N13 N 0.9493(4) 0.8312(3) 0.5346(3) 0.0314(9) Uani 1 1 d . U .
N14 N 0.9142(5) 0.6457(4) 0.5682(4) 0.0464(11) Uani 1 1 d . U .
N15 N 0.7934(4) 0.7097(4) 0.5173(4) 0.0436(11) Uani 1 1 d . U .
N16 N 1.0069(4) 0.7204(4) 0.5774(4) 0.0412(11) Uani 1 1 d . U .
N17 N 0.7949(4) 1.0338(3) 0.4353(3) 0.0285(9) Uani 1 1 d . U .
N18 N 0.6046(4) 0.9333(4) 0.3974(4) 0.0417(11) Uani 1 1 d . U .
loop_
_atom_site_aniso_label
_atom_site_aniso_U_11
_atom_site_aniso_U_22
_atom_site_aniso_U_33
_atom_site_aniso_U_23
_atom_site_aniso_U_13
_atom_site_aniso_U_12
C1 0.035(3) 0.033(3) 0.031(3) -0.019(2) -0.002(2) -0.009(2)
C2 0.024(2) 0.026(3) 0.033(3) -0.012(2) -0.008(2) 0.0009(19)
C3 0.027(3) 0.028(3) 0.028(2) -0.010(2) -0.009(2) -0.004(2)
C4 0.027(3) 0.026(3) 0.029(3) -0.005(2) 0.002(2) -0.006(2)
C5 0.029(3) 0.039(3) 0.028(3) -0.020(2) 0.004(2) -0.009(2)
C6 0.026(3) 0.028(3) 0.025(2) -0.007(2) -0.005(2) -0.003(2)
C7 0.039(3) 0.042(3) 0.049(3) -0.015(3) -0.014(3) 0.005(3)
C8 0.037(3) 0.028(3) 0.034(3) -0.008(2) -0.004(2) -0.005(2)
C9 0.039(3) 0.035(3) 0.051(3) -0.015(3) 0.002(3) -0.019(2)
C10 0.032(3) 0.064(4) 0.051(3) -0.029(3) -0.008(3) -0.002(3)
C11 0.034(3) 0.041(3) 0.048(3) -0.023(3) -0.006(2) -0.001(2)
C12 0.042(3) 0.057(4) 0.032(3) -0.018(3) -0.005(2) 0.007(3)
C13 0.036(3) 0.051(4) 0.051(3) -0.023(3) -0.004(3) -0.017(3)
C14 0.030(3) 0.071(4) 0.055(4) -0.019(3) -0.011(3) 0.010(3)
C15 0.048(4) 0.070(4) 0.051(4) -0.030(3) -0.007(3) 0.021(3)
Cu1 0.0271(5) 0.0372(5) 0.0233(4) -0.0131(4) -0.0119(4) 0.0068(4)
Cu2 0.0276(5) 0.0199(4) 0.0274(4) 0.0018(4) -0.0118(4) -0.0065(3)
Cu3 0.0297(5) 0.0277(5) 0.0420(5) -0.0194(4) -0.0141(4) -0.0020(4)
N1 0.031(2) 0.019(2) 0.0210(19) 0.0042(16) -0.0072(17) -0.0055(16)
N2 0.035(2) 0.033(2) 0.034(2) -0.0013(19) -0.012(2) -0.0047(19)
N3 0.040(3) 0.035(2) 0.030(2) -0.0011(19) -0.006(2) -0.0064(19)
N4 0.037(2) 0.033(2) 0.030(2) -0.0011(19) -0.0115(19) -0.0045(19)
N5 0.027(2) 0.024(2) 0.028(2) -0.0078(17) -0.0069(17) -0.0060(16)
N6 0.032(2) 0.047(3) 0.038(2) -0.015(2) -0.012(2) -0.007(2)
N7 0.031(2) 0.032(2) 0.023(2) -0.0115(18) -0.0060(17) -0.0022(17)
N8 0.040(3) 0.044(3) 0.029(2) -0.017(2) -0.0064(19) 0.003(2)
N9 0.048(3) 0.048(3) 0.035(2) -0.022(2) -0.010(2) -0.002(2)
N10 0.034(2) 0.054(3) 0.035(2) -0.022(2) -0.009(2) -0.007(2)
N11 0.029(2) 0.025(2) 0.023(2) -0.0063(17) -0.0037(17) -0.0019(16)
N12 0.029(2) 0.054(3) 0.038(2) -0.017(2) -0.009(2) 0.004(2)
N13 0.033(2) 0.026(2) 0.039(2) -0.0182(19) -0.0102(18) 0.0002(17)
N14 0.047(3) 0.034(3) 0.062(3) -0.025(2) -0.008(2) -0.007(2)
N15 0.039(3) 0.041(3) 0.056(3) -0.027(2) -0.007(2) -0.009(2)
N16 0.042(3) 0.038(3) 0.049(3) -0.025(2) -0.010(2) -0.001(2)
N17 0.026(2) 0.031(2) 0.031(2) -0.0173(19) -0.0044(17) 0.0000(17)
N18 0.027(2) 0.048(3) 0.057(3) -0.030(2) -0.011(2) -0.004(2)
loop_
_atom_type_symbol
_atom_type_description
_atom_type_scat_dispersion_real
_atom_type_scat_dispersion_imag
_atom_type_scat_source
C C 0.0033 0.0016 'International Tables Vol C Tables 4.2.6.8 and 6.1.1.4'
H H 0.0000 0.0000 'International Tables Vol C Tables 4.2.6.8 and 6.1.1.4'
N N 0.0061 0.0033 'International Tables Vol C Tables 4.2.6.8 and 6.1.1.4'
Cu Cu 0.3201 1.2651 'International Tables Vol C Tables 4.2.6.8 and 6.1.1.4'
loop_
_geom_angle_atom_site_label_1
_geom_angle_atom_site_label_2
_geom_angle_atom_site_label_3
_geom_angle
_geom_angle_site_symmetry_1
_geom_angle_site_symmetry_3
N13 C1 C5 118.6(4) . .
N15 C1 C5 129.7(4) . .
N15 C1 N13 111.7(4) . .
N5 C2 C6 112.7(4) . .
N6 C2 C6 121.6(4) . .
N6 C2 N5 125.7(4) . .
N7 C3 C4 118.6(4) . .
N10 C3 C4 130.2(4) . .
N10 C3 N7 111.0(4) . .
N11 C4 C3 113.0(4) . .
N12 C4 C3 121.3(4) . .
N12 C4 N11 125.7(4) . .
N17 C5 C1 112.9(4) . .
N18 C5 C1 121.5(4) . .
N18 C5 N17 125.6(4) . .
N1 C6 C2 117.7(4) . .
N4 C6 C2 130.2(4) . .
N4 C6 N1 112.1(4) . .
C10 C7 H7 121.7 . .
C10 C7 C11 116.5(5) . .
C11 C7 H7 121.7 . .
C9 C8 H8 118.6 . .
N5 C8 H8 118.6 . .
N5 C8 C9 122.8(4) . .
C8 C9 H9 121.9 . .
C8 C9 C13 116.1(5) . .
C13 C9 H9 121.9 . .
C7 C10 H10 117.8 . .
N18 C10 C7 124.3(5) . .
N18 C10 H10 117.8 . .
C7 C11 H11 119.5 . .
N17 C11 C7 121.0(5) . .
N17 C11 H11 119.5 . .
C15 C12 H12 119.3 . .
N11 C12 H12 119.3 . .
N11 C12 C15 121.5(5) . .
C9 C13 H13 118.2 . .
N6 C13 C9 123.7(5) . .
N6 C13 H13 118.2 . .
C15 C14 H14 118.4 . .
N12 C14 H14 118.4 . .
N12 C14 C15 123.1(5) . .
C12 C15 C14 117.4(5) . .
C12 C15 H15 121.3 . .
C14 C15 H15 121.3 . .
N3 Cu1 N3 180.0 . 2_775
N7 Cu1 N3 87.16(14) 2_775 2_775
N7 Cu1 N3 92.84(14) 2_775 .
N7 Cu1 N3 87.16(14) . .
N7 Cu1 N3 92.84(14) . 2_775
N7 Cu1 N7 180.00(6) . 2_775
N7 Cu1 N11 80.47(14) 2_775 2_775
N7 Cu1 N11 99.53(14) . 2_775
N7 Cu1 N11 99.53(14) 2_775 .
N7 Cu1 N11 80.47(14) . .
N11 Cu1 N3 85.26(13) 2_775 2_775
N11 Cu1 N3 85.26(13) . .
N11 Cu1 N3 94.74(13) . 2_775
N11 Cu1 N3 94.74(13) 2_775 .
N11 Cu1 N11 180.0 2_775 .
N1 Cu2 N1 180.0 . 2_766
N1 Cu2 N5 80.18(14) 2_766 2_766
N1 Cu2 N5 99.82(14) . 2_766
N1 Cu2 N5 80.18(14) . .
N1 Cu2 N5 99.82(14) 2_766 .
N1 Cu2 N14 86.69(14) . .
N1 Cu2 N14 86.70(14) 2_766 2_766
N1 Cu2 N14 93.31(14) . 2_766
N1 Cu2 N14 93.30(14) 2_766 .
N5 Cu2 N5 180.0 . 2_766
N5 Cu2 N14 93.09(14) 2_766 2_766
N5 Cu2 N14 86.92(14) . 2_766
N5 Cu2 N14 93.08(14) . .
N5 Cu2 N14 86.92(14) 2_766 .
N14 Cu2 N14 180.0(2) . 2_766
N9 Cu3 N9 180.0(2) . 2_776
N13 Cu3 N9 92.32(14) . 2_776
N13 Cu3 N9 87.68(14) 2_776 2_776
N13 Cu3 N9 92.32(14) 2_776 .
N13 Cu3 N9 87.68(14) . .
N13 Cu3 N13 180.00(7) . 2_776
N13 Cu3 N17 80.61(14) . .
N13 Cu3 N17 99.39(14) . 2_776
N13 Cu3 N17 80.61(14) 2_776 2_776
N13 Cu3 N17 99.39(14) 2_776 .
N17 Cu3 N9 87.50(13) 2_776 2_776
N17 Cu3 N9 87.50(13) . .
N17 Cu3 N9 92.50(14) . 2_776
N17 Cu3 N9 92.50(14) 2_776 .
N17 Cu3 N17 180.0 2_776 .
C6 N1 Cu2 115.3(3) . .
C6 N1 N2 106.1(3) . .
N2 N1 Cu2 138.3(3) . .
N3 N2 N1 107.6(3) . .
N2 N3 Cu1 117.0(3) . .
N2 N3 N4 110.1(4) . .
N4 N3 Cu1 131.1(3) . .
C6 N4 N3 104.0(3) . .
C2 N5 Cu2 113.9(3) . .
C8 N5 C2 116.1(4) . .
C8 N5 Cu2 129.6(3) . .
C2 N6 C13 115.5(4) . .
C3 N7 Cu1 114.5(3) . .
N8 N7 C3 106.6(3) . .
N8 N7 Cu1 138.0(3) . .
N7 N8 N9 107.5(3) . .
N8 N9 Cu3 120.2(3) . .
N8 N9 N10 110.9(3) . .
N10 N9 Cu3 122.7(3) . .
C3 N10 N9 104.0(4) . .
C4 N11 Cu1 113.0(3) . .
C12 N11 C4 116.6(4) . .
C12 N11 Cu1 129.7(3) . .
C14 N12 C4 115.7(4) . .
C1 N13 Cu3 114.0(3) . .
N16 N13 C1 105.9(4) . .
N16 N13 Cu3 140.0(3) . .
N15 N14 Cu2 116.3(3) . .
N16 N14 Cu2 119.6(3) . .
N16 N14 N15 109.5(4) . .
C1 N15 N14 104.0(4) . .
N13 N16 N14 109.0(4) . .
C5 N17 Cu3 113.8(3) . .
C11 N17 C5 117.1(4) . .
C11 N17 Cu3 128.8(3) . .
C10 N18 C5 115.4(4) . .
loop_
_geom_bond_atom_site_label_1
_geom_bond_atom_site_label_2
_geom_bond_distance
_geom_bond_site_symmetry_2
C1 C5 1.445(6) .
C1 N13 1.335(5) .
C1 N15 1.325(5) .
C2 C6 1.456(6) .
C2 N5 1.353(5) .
C2 N6 1.320(5) .
C3 C4 1.446(6) .
C3 N7 1.338(5) .
C3 N10 1.326(5) .
C4 N11 1.346(5) .
C4 N12 1.330(5) .
C5 N17 1.348(5) .
C5 N18 1.324(5) .
C6 N1 1.322(5) .
C6 N4 1.315(5) .
C7 H7 0.9300 .
C7 C10 1.369(6) .
C7 C11 1.374(6) .
C8 H8 0.9300 .
C8 C9 1.364(6) .
C8 N5 1.332(5) .
C9 H9 0.9300 .
C9 C13 1.367(6) .
C10 H10 0.9300 .
C10 N18 1.316(6) .
C11 H11 0.9300 .
C11 N17 1.334(5) .
C12 H12 0.9300 .
C12 C15 1.363(6) .
C12 N11 1.320(5) .
C13 H13 0.9300 .
C13 N6 1.342(6) .
C14 H14 0.9300 .
C14 C15 1.371(6) .
C14 N12 1.309(6) .
C15 H15 0.9300 .
Cu1 N3 2.418(4) 2_775
Cu1 N3 2.418(4) .
Cu1 N7 1.957(3) 2_775
Cu1 N7 1.957(3) .
Cu1 N11 2.085(3) 2_775
Cu1 N11 2.085(3) .
Cu2 N1 1.972(3) 2_766
Cu2 N1 1.972(3) .
Cu2 N5 2.059(3) .
Cu2 N5 2.059(3) 2_766
Cu2 N14 2.419(4) 2_766
Cu2 N14 2.419(4) .
Cu3 N9 2.386(4) 2_776
Cu3 N9 2.386(4) .
Cu3 N13 1.975(4) .
Cu3 N13 1.975(4) 2_776
Cu3 N17 2.057(3) 2_776
Cu3 N17 2.058(3) .
N1 N2 1.331(5) .
N2 N3 1.322(4) .
N3 N4 1.346(5) .
N7 N8 1.319(4) .
N8 N9 1.321(4) .
N9 N10 1.338(5) .
N13 N16 1.311(5) .
N14 N15 1.349(5) .
N14 N16 1.325(5) .
loop_
_smtbx_masks_void_nr
_smtbx_masks_void_average_x
_smtbx_masks_void_average_y
_smtbx_masks_void_average_z
_smtbx_masks_void_volume
_smtbx_masks_void_count_electrons
_smtbx_masks_void_content
1 -0.365 0.500 0.000 343.2 77.2 '2 DMF'
