#------------------------------------------------------------------------------
#$Date: 2020-07-06 06:01:51 +0300 (Mon, 06 Jul 2020) $
#$Revision: 253881 $
#$URL: file:///home/coder/svn-repositories/cod/cif/7/70/44/7704423.cif $
#------------------------------------------------------------------------------
#
# This file is available in the Crystallography Open Database (COD),
# http://www.crystallography.net/
#
# All data on this site have been placed in the public domain by the
# contributors.
#
data_7704423
loop_
_publ_author_name
'Li, Peng'
'Guo, Meng-Yue'
'Gao, Lu-Lu'
'Yin, Xue-Mei'
'Yang, Shuai-Liang'
'Bu, Ran'
'Gao, En-Qing'
_publ_section_title
;
 Photoresponsivity and antibiotic sensing properties of an entangled
 tris(pyridinium)-based metal-organic framework.
;
_journal_issue                   22
_journal_name_full
'Dalton transactions (Cambridge, England : 2003)'
_journal_page_first              7488
_journal_page_last               7495
_journal_paper_doi               10.1039/d0dt00397b
_journal_volume                  49
_journal_year                    2020
_chemical_formula_sum            'C47 H31 Cd2 Cl N4 O13'
_chemical_formula_weight         1120.01
_space_group_crystal_system      monoclinic
_space_group_IT_number           14
_space_group_name_Hall           '-P 2yn'
_space_group_name_H-M_alt        'P 1 21/n 1'
_atom_sites_solution_hydrogens   mixed
_audit_creation_method           SHELXL-2014
_audit_update_record
;
2019-11-12 deposited with the CCDC.	2020-05-15 downloaded from the CCDC.
;
_cell_angle_alpha                90
_cell_angle_beta                 93.1390(10)
_cell_angle_gamma                90
_cell_formula_units_Z            4
_cell_length_a                   9.8438(2)
_cell_length_b                   18.8552(3)
_cell_length_c                   28.4652(5)
_cell_measurement_reflns_used    9962
_cell_measurement_temperature    293(2)
_cell_measurement_theta_max      68.24
_cell_measurement_theta_min      4.50
_cell_volume                     5275.41(16)
_computing_cell_refinement       'Bruker SAINT'
_computing_data_collection       'Bruker APEX2'
_computing_data_reduction        'Bruker SAINT'
_computing_molecular_graphics    'Bruker SHELXTL'
_computing_publication_material  'Bruker SHELXTL'
_computing_structure_refinement  'SHELXL-2014 (Sheldrick, 2014)'
_computing_structure_solution    'Bruker SAINT'
_diffrn_ambient_temperature      293(2)
_diffrn_measured_fraction_theta_full 0.937
_diffrn_measured_fraction_theta_max 0.997
_diffrn_measurement_device_type  'CCD area detector'
_diffrn_measurement_method       'phi and omega scans'
_diffrn_radiation_type           CuK\a
_diffrn_radiation_wavelength     1.54178
_diffrn_reflns_av_R_equivalents  0.0448
_diffrn_reflns_av_unetI/netI     0.0328
_diffrn_reflns_Laue_measured_fraction_full 0.937
_diffrn_reflns_Laue_measured_fraction_max 0.997
_diffrn_reflns_limit_h_max       11
_diffrn_reflns_limit_h_min       -11
_diffrn_reflns_limit_k_max       22
_diffrn_reflns_limit_k_min       -22
_diffrn_reflns_limit_l_max       33
_diffrn_reflns_limit_l_min       -32
_diffrn_reflns_number            39445
_diffrn_reflns_point_group_measured_fraction_full 0.937
_diffrn_reflns_point_group_measured_fraction_max 0.997
_diffrn_reflns_theta_full        67.679
_diffrn_reflns_theta_max         65.000
_diffrn_reflns_theta_min         2.812
_exptl_absorpt_coefficient_mu    7.441
_exptl_absorpt_correction_type   multi-scan
_exptl_absorpt_process_details   sadabs
_exptl_crystal_colour            orange-red
_exptl_crystal_density_diffrn    1.410
_exptl_crystal_description       acicular
_exptl_crystal_F_000             2232
_exptl_crystal_size_max          0.23
_exptl_crystal_size_mid          0.1
_exptl_crystal_size_min          0.05
_exptl_transmission_factor_max   0.92
_exptl_transmission_factor_min   0.65
_refine_diff_density_max         0.942
_refine_diff_density_min         -1.082
_refine_diff_density_rms         0.122
_refine_ls_extinction_method     none
_refine_ls_goodness_of_fit_ref   1.096
_refine_ls_hydrogen_treatment    mixed
_refine_ls_matrix_type           full
_refine_ls_number_parameters     631
_refine_ls_number_reflns         8949
_refine_ls_number_restraints     10
_refine_ls_restrained_S_all      1.098
_refine_ls_R_factor_all          0.0834
_refine_ls_R_factor_gt           0.0762
_refine_ls_shift/su_max          0.001
_refine_ls_shift/su_mean         0.000
_refine_ls_structure_factor_coef Fsqd
_refine_ls_weighting_details
'w=1/[\s^2^(Fo^2^)+(0.0891P)^2^+46.0059P] where P=(Fo^2^+2Fc^2^)/3'
_refine_ls_weighting_scheme      calc
_refine_ls_wR_factor_gt          0.2148
_refine_ls_wR_factor_ref         0.2200
_reflns_Friedel_coverage         0.000
_reflns_number_gt                7815
_reflns_number_total             8949
_reflns_threshold_expression     'I > 2\s(I)'
_cod_data_source_file            d0dt00397b2.cif
_cod_data_source_block           1
_cod_depositor_comments          'Adding full bibliography for 7704423.cif.'
_cod_original_sg_symbol_H-M      'P 21/n'
_cod_database_code               7704423
_shelx_space_group_comment
;
The symmetry employed for this shelxl refinement is uniquely defined
by the following loop, which should always be used as a source of
symmetry information in preference to the above space-group names.
They are only intended as comments.
;
_shelx_estimated_absorpt_t_min   0.45754
_shelx_estimated_absorpt_t_max   1.00000
_shelxl_version_number           2014-3
_shelx_res_file
;

TITL exp_524_a.res in P2(1)/n
REM Old TITL exp_524 in P2(1)/m
REM SHELXT solution in P2(1)/n
REM R1 0.199, Rweak 0.047, Alpha 0.118, Orientation as input
REM Formula found by SHELXT: C57 N14 O6 Cd2
CELL  1.54178   9.8438  18.8552  28.4652   90.000   93.139   90.000
ZERR  4   0.0002   0.0003   0.0005    0.000    0.001    0.000
LATT 1
SYMM 0.5-X,0.5+Y,0.5-Z
SFAC C H N O Cd Cl
UNIT 188 124 16 52 8 4
L.S. 20
PLAN  10
BOND $H
ABIN
HTAB
ACTA
FMAP 2 53
EQIV $1 0.5+x, 2.5-y, z+0.5
EADP o2 o2'
EADP O4 O4'
EADP O5 O5'
OMIT -3 130
DFIX 1.24 C8 O3 C8 o4 C8 O4'
DANG  2.18 O4 O3 O4' O3
DFIX 0.86 O13 H13B O13 H13C
DFIX 1.39 H13B H13C
DFIX 2.85 CD1 H13C
DFIX 2.0 H13B O6_$1

WGHT    0.089100   46.005901
FVAR       0.20941   0.71574   0.42677   0.70000
CD1   5    0.686705    1.193595    0.418871    11.00000    0.04089    0.04582 =
         0.04482    0.00759   -0.00359    0.00004
CD2   5    0.568245    1.187319    0.080385    11.00000    0.03854    0.04886 =
         0.04751    0.00613    0.00048   -0.00140
O1    4    0.547534    1.105417    0.443061    11.00000    0.02787    0.05476 =
         0.20281    0.02823   -0.00263    0.00245
O3    4   -0.170125    1.094507    0.429238    11.00000    0.04659    0.10153 =
         0.25681    0.02855    0.01870    0.00617
PART   1
O2    4    0.443788    1.194628    0.412813    31.00000    0.04678    0.03938 =
         0.03403    0.00285    0.02254    0.00558
O4    4   -0.069893    1.177566    0.396743    21.00000    0.05662    0.07703 =
         0.06945    0.00319   -0.01518    0.01429
O5    4    0.423758    1.100587    0.089965    21.00000    0.03809    0.03939 =
         0.14442    0.02598   -0.04492   -0.00468

CL1   6    0.555628    1.252391    0.005115    21.00000    0.08425    0.09351 =
         0.05710    0.02273    0.00718   -0.00245
PART   2
O2'   4    0.420241    1.200451    0.426096   -31.00000    0.04678    0.03938 =
         0.03403    0.00285    0.02254    0.00558
O4'   4   -0.075185    1.189048    0.440268   -21.00000    0.05662    0.07703 =
         0.06945    0.00319   -0.01518    0.01429
O5'   4    0.401931    1.094817    0.071705   -21.00000    0.03809    0.03939 =
         0.14442    0.02598   -0.04492   -0.00468
CL1'  6    0.557974    1.282489    0.025521   -21.00000    0.16234    0.13829 =
         0.12249   -0.02871   -0.01606   -0.01183
PART   0

O6    4    0.299906    1.191441    0.069691    11.00000    0.05488    0.03795 =
         0.11215   -0.00970   -0.01443   -0.00003
O7    4   -0.289757    1.056578    0.084687    11.00000    0.04048    0.22804 =
         0.31727   -0.13704    0.03517   -0.03719
O8    4   -0.207014    1.160117    0.081837    11.00000    0.06413    0.12759 =
         0.13026    0.04367    0.03194    0.03776
O9    4    0.716793    0.295847    0.374681    11.00000    0.09418    0.03978 =
         0.05039   -0.00050   -0.01159   -0.00105
O10   4    0.643068    0.202082    0.335884    11.00000    0.05611    0.04269 =
         0.04712    0.00370   -0.00017    0.00021
O11   4    0.576944    0.211043    0.161208    11.00000    0.05301    0.10328 =
         0.05591   -0.02101   -0.00512   -0.00179
O12   4    0.661400    0.295109    0.122449    11.00000    0.22013    0.07627 =
         0.04721    0.00408    0.00334   -0.01411
O13   4    0.666690    1.260469    0.487212    11.00000    0.12433    0.06813 =
         0.04916   -0.00929   -0.00524    0.00029
H13C  2    0.631713    1.302040    0.484940    11.00000   -1.50000
H13B  2    0.731695    1.262652    0.509098    11.00000   -1.50000
N1    3    0.253318    0.865545    0.421380    11.00000    0.05769    0.03227 =
         0.05597    0.00199    0.00629   -0.00527
N2    3    0.457379    0.714467    0.212499    11.00000    0.06070    0.04670 =
         0.06810    0.00540   -0.00908   -0.00901
N3    3    0.807797    0.523213    0.250079    11.00000    0.05715    0.03621 =
         0.07623   -0.00245    0.01799    0.00418
N4    3    0.168708    0.853965    0.090486    11.00000    0.07600    0.02888 =
         0.05799    0.00207   -0.01485   -0.02221
C1    1    0.438409    1.134914    0.433521    11.00000    0.04532    0.04241 =
         0.05350   -0.01048    0.00125    0.00323
C2    1    0.310265    1.093364    0.437989    11.00000    0.04050    0.03698 =
         0.04096    0.00041    0.00073    0.00648
C3    1    0.315261    1.022066    0.450428    11.00000    0.04274    0.03952 =
         0.04472    0.00316    0.00712    0.00662
AFIX  43
H3A   2    0.398985    1.000439    0.457154    11.00000   -1.20000
AFIX   0
C4    1    0.197921    0.983295    0.452878    11.00000    0.05058    0.04222 =
         0.03563    0.00397    0.00697   -0.00550
C5    1    0.071179    1.015655    0.443342    11.00000    0.04524    0.06602 =
         0.04771    0.00439    0.01554   -0.01552
AFIX  43
H5A   2   -0.008570    0.989730    0.445604    11.00000   -1.20000
AFIX   0
C6    1    0.065537    1.086819    0.430473    11.00000    0.04336    0.05700 =
         0.04154    0.00959    0.01086    0.00672
C7    1    0.184800    1.124473    0.427761    11.00000    0.04497    0.03840 =
         0.04497    0.00125    0.00476    0.00428
AFIX  43
H7A   2    0.180888    1.171913    0.418847    11.00000   -1.20000
AFIX   0
C8    1   -0.068233    1.125351    0.421686    11.00000    0.04329    0.07250 =
         0.05785    0.00492    0.00822    0.00274
C9    1    0.207318    0.904586    0.463308    11.00000    0.08500    0.04290 =
         0.04907    0.00927    0.01315    0.00396
AFIX  23
H9A   2    0.271171    0.896558    0.489949    11.00000   -1.20000
H9B   2    0.119018    0.886973    0.471406    11.00000   -1.20000
AFIX   0
C10   1    0.380038    0.846129    0.419024    11.00000    0.06178    0.04354 =
         0.05492    0.01059   -0.00894    0.00391
AFIX  43
H10A  2    0.440392    0.855315    0.444582    11.00000   -1.20000
AFIX   0
C11   1    0.428573    0.812304    0.379929    11.00000    0.05545    0.03849 =
         0.05113    0.00381   -0.00377   -0.00588
AFIX  43
H11A  2    0.518811    0.797786    0.379624    11.00000   -1.20000
AFIX   0
C12   1    0.340037    0.800901    0.341849    11.00000    0.04865    0.02483 =
         0.06012    0.00718    0.00740   -0.00267
C13   1    0.204605    0.821969    0.345431    11.00000    0.05353    0.04671 =
         0.05917   -0.00859   -0.00387   -0.00917
AFIX  43
H13A  2    0.141375    0.813897    0.320524    11.00000   -1.20000
AFIX   0
C14   1    0.164987    0.854361    0.385412    11.00000    0.04209    0.04790 =
         0.07904   -0.01014    0.00828   -0.00714
AFIX  43
H14A  2    0.075062    0.868681    0.387352    11.00000   -1.20000
AFIX   0
C15   1    0.381052    0.770092    0.296168    11.00000    0.04527    0.03144 =
         0.06168   -0.00036    0.00015   -0.00811
C16   1    0.480649    0.717813    0.296530    11.00000    0.04907    0.02846 =
         0.04750    0.00598   -0.00159   -0.00333
AFIX  43
H16A  2    0.522670    0.702481    0.324780    11.00000   -1.20000
AFIX   0
C17   1    0.516598    0.688741    0.254034    11.00000    0.06036    0.02698 =
         0.05598    0.00356   -0.00029   -0.00065
C18   1    0.358557    0.767530    0.214740    11.00000    0.04225    0.03098 =
         0.05979   -0.00345    0.00680   -0.00906
C19   1    0.322272    0.794548    0.255755    11.00000    0.02821    0.02460 =
         0.05266   -0.00078    0.00618   -0.00372
AFIX  43
H19A  2    0.256737    0.830035    0.256186    11.00000   -1.20000
AFIX   0
C20   1    0.620518    0.631876    0.252817    11.00000    0.05502    0.02868 =
         0.04940    0.00144    0.00175   -0.00977
C21   1    0.685385    0.605681    0.293363    11.00000    0.09833    0.04404 =
         0.06368   -0.01290   -0.00299    0.02028
AFIX  43
H21A  2    0.666516    0.624566    0.322475    11.00000   -1.20000
AFIX   0
C22   1    0.779036    0.550950    0.290484    11.00000    0.08352    0.04899 =
         0.06519   -0.00308   -0.01960    0.00825
AFIX  43
H22A  2    0.822386    0.533584    0.317970    11.00000   -1.20000
AFIX   0
C23   1    0.752351    0.548444    0.210287    11.00000    0.09804    0.04717 =
         0.07220    0.00980    0.03347    0.00858
AFIX  43
H23A  2    0.779075    0.530392    0.181822    11.00000   -1.20000
AFIX   0
C24   1    0.653254    0.602330    0.210272    11.00000    0.09123    0.05029 =
         0.05291    0.00895    0.02458    0.01158
AFIX  43
H24A  2    0.610473    0.617845    0.182193    11.00000   -1.20000
AFIX   0
C25   1    0.901307    0.461388    0.247550    11.00000    0.04939    0.03569 =
         0.12139    0.00073    0.01399    0.00523
AFIX  23
H25A  2    0.966343    0.461818    0.274410    11.00000   -1.20000
H25B  2    0.951283    0.464337    0.219177    11.00000   -1.20000
AFIX   0
C26   1    0.819331    0.393149    0.247304    11.00000    0.05470    0.03368 =
         0.06214    0.00099    0.00889    0.00524
C27   1    0.790556    0.360619    0.290429    11.00000    0.04467    0.04101 =
         0.05461    0.00391   -0.00554    0.00735
AFIX  43
H27A  2    0.824292    0.380360    0.318650    11.00000   -1.20000
AFIX   0
C28   1    0.711463    0.298779    0.290882    11.00000    0.04485    0.03400 =
         0.04566   -0.00065   -0.00476    0.00730
C29   1    0.662605    0.269462    0.248446    11.00000    0.03948    0.03412 =
         0.05817    0.00515    0.00821    0.01142
AFIX  43
H29A  2    0.609560    0.228658    0.248620    11.00000   -1.20000
AFIX   0
C30   1    0.692165    0.300580    0.205169    11.00000    0.06059    0.04391 =
         0.04327   -0.00225    0.00592    0.01495
C31   1    0.767810    0.363088    0.205986    11.00000    0.05820    0.03720 =
         0.05531    0.00958    0.01730    0.00838
AFIX  43
H31A  2    0.784055    0.385263    0.177654    11.00000   -1.20000
AFIX   0
C32   1    0.689023    0.263177    0.336376    11.00000    0.03848    0.03778 =
         0.04375   -0.00216   -0.00645    0.00340
C33   1    0.642178    0.266892    0.160324    11.00000    0.07867    0.05425 =
         0.04843    0.00141   -0.00029    0.01372
C34   1    0.293664    0.796016    0.170470    11.00000    0.05297    0.02349 =
         0.05993    0.00058    0.00094   -0.01231
C35   1    0.159909    0.820719    0.169516    11.00000    0.05784    0.04167 =
         0.08858    0.01851    0.01474   -0.00825
AFIX  43
H35A  2    0.110625    0.817234    0.196376    11.00000   -1.20000
AFIX   0
C36   1    0.101241    0.849634    0.130009    11.00000    0.05431    0.04270 =
         0.08883    0.01318   -0.00419   -0.00445
AFIX  43
H36A  2    0.012706    0.866792    0.130243    11.00000   -1.20000
AFIX   0
C37   1    0.294452    0.830562    0.089824    11.00000    0.06662    0.03287 =
         0.06089   -0.00986    0.00675   -0.00635
AFIX  43
H37A  2    0.340464    0.834879    0.062291    11.00000   -1.20000
AFIX   0
C38   1    0.360387    0.799698    0.128872    11.00000    0.05717    0.03840 =
         0.05633   -0.00075    0.00119   -0.00623
AFIX  43
H38A  2    0.447983    0.781727    0.127237    11.00000   -1.20000
AFIX   0
C39   1    0.101668    0.887922    0.048016    11.00000    0.09340    0.04639 =
         0.06826   -0.00321   -0.03300   -0.01715
AFIX  23
H39A  2    0.013613    0.866243    0.040826    11.00000   -1.20000
H39B  2    0.157043    0.881390    0.021192    11.00000   -1.20000
AFIX   0
C40   1    0.084289    0.966368    0.057717    11.00000    0.06365    0.03779 =
         0.06222    0.00480   -0.02616   -0.01174
C41   1    0.198109    1.009269    0.060738    11.00000    0.04955    0.03688 =
         0.04560    0.00161   -0.01270   -0.00277
AFIX  43
H41A  2    0.283405    0.990257    0.055923    11.00000   -1.20000
AFIX   0
C42   1    0.184756    1.081872    0.071124    11.00000    0.03894    0.03581 =
         0.03940    0.00761   -0.00562   -0.00660
C43   1    0.057347    1.110202    0.075144    11.00000    0.03872    0.04901 =
         0.03483    0.00590    0.00410   -0.00305
AFIX  43
H43A  2    0.047780    1.158785    0.079537    11.00000   -1.20000
AFIX   0
C44   1   -0.056202    1.067619    0.072754    11.00000    0.05658    0.06233 =
         0.04256   -0.00065   -0.00556   -0.00656
C45   1   -0.044184    0.994741    0.063276    11.00000    0.05961    0.05719 =
         0.05094    0.00630   -0.00774   -0.02382
AFIX  43
H45A  2   -0.120995    0.965983    0.060768    11.00000   -1.20000
AFIX   0
C46   1   -0.194970    1.098017    0.079543    11.00000    0.04754    0.11948 =
         0.05676   -0.00318    0.00176    0.00374
C47   1    0.308992    1.128694    0.076060    11.00000    0.03577    0.03693 =
         0.04166    0.00571   -0.00033    0.00069

HKLF 4

REM  exp_524_a.res in P2(1)/n
REM R1 =  0.0762 for    7815 Fo > 4sig(Fo)  and  0.0834 for all    8949 data
REM    631 parameters refined using     10 restraints

END

WGHT      0.0604     52.2670

REM Instructions for potential hydrogen bonds
HTAB O13 O6_$1
EQIV $2 -x+1, -y+2, -z+1
HTAB C9 O1_$2
EQIV $3 -x, -y+2, -z+1
HTAB C9 O3_$3
EQIV $4 -x+1/2, y-1/2, -z+1/2
HTAB C9 Cl1'_$4
HTAB C24 O4_$4
EQIV $5 -x+1/2, y+1/2, -z+1/2
HTAB C36 O9_$5
EQIV $6 -x+1, -y+2, -z
HTAB C37 Cl1_$6
HTAB C38 O4_$4

REM Highest difference peak  0.942,  deepest hole -1.082,  1-sigma level  0.122
Q1    1  -0.1123  1.1838  0.0817  11.00000  0.05    0.94
Q2    1   0.0164  1.1959  0.4158  11.00000  0.05    0.93
Q3    1   0.3451  1.1950  0.4170  11.00000  0.05    0.89
Q4    1   0.7131  1.2387  0.4173  11.00000  0.05    0.78
Q5    1   0.5466  0.5777  0.2600  11.00000  0.05    0.73
Q6    1  -0.0046  1.1847  0.0785  11.00000  0.05    0.72
Q7    1  -0.3086  1.1941  0.0820  11.00000  0.05    0.71
Q8    1   0.7196  1.1604  0.3986  11.00000  0.05    0.71
Q9    1   0.3209  1.1719  0.1033  11.00000  0.05    0.71
Q10   1   0.2174  1.1839  0.0828  11.00000  0.05    0.69
;
_shelx_res_checksum              49743
_shelx_fab_file
;
    2    0    0     43.20      0.00
    4    0    0    -43.34      0.00
    6    0    0     -1.34      0.00
    8    0    0      5.59      0.00
   10    0    0      0.67      0.00
    1    1    0   -101.78      0.00
    2    1    0     87.78      0.00
    3    1    0     31.51      0.00
    4    1    0      6.30      0.00
    5    1    0      7.48      0.00
    6    1    0    -14.17      0.00
    7    1    0     -7.20      0.00
    8    1    0     -0.78      0.00
    9    1    0      3.55      0.00
   10    1    0     -0.96      0.00
   11    1    0     -1.26      0.00
    1    2    0   -112.50      0.00
    2    2    0     35.50      0.00
    3    2    0    -21.91      0.00
    4    2    0     17.67      0.00
    5    2    0     28.28      0.00
    6    2    0      3.29      0.00
    7    2    0      7.27      0.00
    8    2    0     -1.68      0.00
    9    2    0     -5.32      0.00
   10    2    0      0.04      0.00
   11    2    0     -0.19      0.00
    1    3    0     11.83      0.00
    2    3    0     26.90      0.00
    3    3    0    -19.84      0.00
    4    3    0     -5.41      0.00
    5    3    0    -19.22      0.00
    6    3    0    -11.62      0.00
    7    3    0     -0.19      0.00
    8    3    0      3.27      0.00
    9    3    0      3.51      0.00
   10    3    0     -3.51      0.00
   11    3    0     -1.68      0.00
    0    4    0     58.91      0.00
    1    4    0    -12.78      0.00
    2    4    0     30.06      0.00
    3    4    0     23.29      0.00
    5    4    0     15.53      0.00
    6    4    0     -2.62      0.00
    7    4    0     -0.74      0.00
    8    4    0     -6.55      0.00
    9    4    0     -1.09      0.00
   10    4    0      5.06      0.00
   11    4    0     -0.23      0.00
    1    5    0     -7.00      0.00
    2    5    0     -5.65      0.00
    3    5    0    -12.98      0.00
    4    5    0     -6.70      0.00
    5    5    0    -11.82      0.00
    6    5    0     -1.20      0.00
    7    5    0      0.71      0.00
    8    5    0      0.16      0.00
    9    5    0     -0.35      0.00
   10    5    0     -5.09      0.00
   11    5    0     -2.73      0.00
    0    6    0     31.48      0.00
    1    6    0     33.42      0.00
    2    6    0      7.52      0.00
    3    6    0     26.13      0.00
    4    6    0      4.04      0.00
    5    6    0      7.46      0.00
    6    6    0      0.79      0.00
    7    6    0     -2.47      0.00
    8    6    0      2.71      0.00
    9    6    0      0.11      0.00
   10    6    0     -0.44      0.00
   11    6    0     -0.53      0.00
    1    7    0    -48.59      0.00
    2    7    0    -19.06      0.00
    3    7    0    -12.21      0.00
    4    7    0     -6.71      0.00
    5    7    0      5.66      0.00
    6    7    0      2.36      0.00
    7    7    0      0.60      0.00
    8    7    0      2.84      0.00
    9    7    0     -2.01      0.00
   10    7    0     -2.51      0.00
   11    7    0     -0.70      0.00
    0    8    0     77.52      0.00
    1    8    0      0.66      0.00
    2    8    0      2.23      0.00
    3    8    0     -4.92      0.00
    4    8    0    -17.91      0.00
    5    8    0      8.38      0.00
    6    8    0     -4.13      0.00
    7    8    0      1.12      0.00
    8    8    0      4.50      0.00
    9    8    0     -6.64      0.00
   10    8    0      0.45      0.00
   11    8    0     -0.79      0.00
    1    9    0    -31.32      0.00
    2    9    0     25.53      0.00
    3    9    0    -12.56      0.00
    4    9    0     11.68      0.00
    5    9    0      7.34      0.00
    6    9    0     -4.02      0.00
    7    9    0      1.91      0.00
    8    9    0     -3.34      0.00
    9    9    0     -2.26      0.00
   10    9    0      1.68      0.00
    0   10    0     -5.39      0.00
    1   10    0    -18.42      0.00
    2   10    0    -14.50      0.00
    3   10    0    -10.22      0.00
    4   10    0      4.67      0.00
    5   10    0      8.98      0.00
    6   10    0      0.08      0.00
    7   10    0      4.93      0.00
    8   10    0     -0.40      0.00
    9   10    0     -4.76      0.00
   10   10    0     -0.97      0.00
    1   11    0      0.45      0.00
    2   11    0    -12.47      0.00
    3   11    0     -7.79      0.00
    4   11    0      3.55      0.00
    5   11    0      0.55      0.00
    6   11    0     -4.05      0.00
    7   11    0     -0.52      0.00
    8   11    0     -3.44      0.00
    9   11    0      3.66      0.00
   10   11    0      0.79      0.00
    0   12    0     -6.21      0.00
    1   12    0      1.16      0.00
    2   12    0     -8.87      0.00
    3   12    0      4.28      0.00
    5   12    0      1.95      0.00
    6   12    0     -1.93      0.00
    7   12    0     -0.50      0.00
    8   12    0     -0.41      0.00
    9   12    0     -0.40      0.00
   10   12    0     -1.67      0.00
    1   13    0      0.54      0.00
    2   13    0     -2.04      0.00
    3   13    0      9.04      0.00
    4   13    0      4.47      0.00
    5   13    0      0.11      0.00
    6   13    0     -5.54      0.00
    7   13    0     -1.59      0.00
    8   13    0      0.07      0.00
    9   13    0      1.21      0.00
    0   14    0    -10.73      0.00
    1   14    0     -0.05      0.00
    2   14    0     -8.40      0.00
    3   14    0      0.18      0.00
    4   14    0      0.47      0.00
    5   14    0      4.71      0.00
    6   14    0      0.69      0.00
    7   14    0     -1.05      0.00
    8   14    0      1.73      0.00
    9   14    0     -1.72      0.00
    1   15    0      6.33      0.00
    2   15    0     -0.01      0.00
    3   15    0      1.24      0.00
    4   15    0     -4.18      0.00
    5   15    0     -4.24      0.00
    6   15    0     -0.14      0.00
    7   15    0      1.76      0.00
    8   15    0      4.11      0.00
    0   16    0     -0.51      0.00
    1   16    0     -1.06      0.00
    2   16    0      0.38      0.00
    3   16    0      3.87      0.00
    4   16    0      2.45      0.00
    5   16    0      1.97      0.00
    6   16    0     -3.56      0.00
    7   16    0     -2.52      0.00
    8   16    0      0.25      0.00
    1   17    0      5.18      0.00
    2   17    0      2.98      0.00
    3   17    0     -6.55      0.00
    4   17    0      0.72      0.00
    5   17    0     -0.10      0.00
    6   17    0      1.33      0.00
    7   17    0      1.35      0.00
    0   18    0     -3.65      0.00
    1   18    0     -1.65      0.00
    2   18    0      1.13      0.00
    3   18    0      3.15      0.00
    4   18    0      2.50      0.00
    5   18    0     -0.68      0.00
    6   18    0     -0.51      0.00
    7   18    0      0.15      0.00
    1   19    0      2.03      0.00
    2   19    0     -1.42      0.00
    3   19    0     -5.05      0.00
    4   19    0      2.12      0.00
    5   19    0     -2.83      0.00
    6   19    0     -0.35      0.00
    0   20    0     -0.72      0.00
    1   20    0     -1.27      0.00
    2   20    0      1.31      0.00
    3   20    0      2.14      0.00
    4   20    0     -0.59      0.00
    5   20    0     -0.40      0.00
    1   21    0     -0.97      0.00
    2   21    0      1.84      0.00
    3   21    0     -0.41      0.00
    4   21    0      1.57      0.00
  -11    0    1      2.38      0.00
   -9    0    1     -3.06      0.00
   -7    0    1     -7.39      0.00
   -5    0    1     -0.44      0.00
   -3    0    1     18.83      0.00
   -1    0    1     70.57      0.00
    1    0    1   -128.80      0.00
    3    0    1    -63.40      0.00
    5    0    1    -21.74      0.00
    7    0    1     -1.08      0.00
    9    0    1      3.72      0.00
   11    0    1      1.04      0.00
  -11    1    1      0.14      0.00
  -10    1    1     -3.68      0.00
   -9    1    1      0.61      0.00
   -8    1    1     -5.97      0.00
   -7    1    1      2.30      0.00
   -6    1    1     -2.05      0.00
   -5    1    1     -8.66      0.00
   -4    1    1      1.23      0.00
   -3    1    1    -13.92      0.00
   -2    1    1     28.52      0.00
   -1    1    1      3.05      0.00
    0    1    1      7.47      0.00
    1    1    1     62.97      0.00
    2    1    1     53.69      0.00
    3    1    1      4.80      0.00
    4    1    1     17.25      0.00
    5    1    1     -4.10      0.00
    6    1    1      2.57      0.00
    7    1    1      2.24      0.00
    8    1    1      0.08      0.00
    9    1    1      0.67      0.00
   10    1    1      0.39      0.00
   11    1    1      0.64      0.00
  -11    2    1     -2.18      0.00
  -10    2    1     -1.04      0.00
   -9    2    1     -5.60      0.00
   -8    2    1     -0.56      0.00
   -7    2    1     -3.36      0.00
   -6    2    1      6.03      0.00
   -5    2    1     13.83      0.00
   -4    2    1     24.77      0.00
   -3    2    1     -0.21      0.00
   -2    2    1     -5.58      0.00
   -1    2    1     11.83      0.00
    0    2    1     -2.47      0.00
    1    2    1    -99.31      0.00
    2    2    1     25.09      0.00
    3    2    1    -21.16      0.00
    4    2    1      5.50      0.00
    5    2    1    -13.88      0.00
    6    2    1     -5.93      0.00
    7    2    1      1.48      0.00
    8    2    1      0.11      0.00
    9    2    1      2.55      0.00
   10    2    1     -1.23      0.00
   11    2    1     -0.89      0.00
  -11    3    1      1.95      0.00
  -10    3    1     -1.34      0.00
   -9    3    1     -2.82      0.00
   -8    3    1     -1.35      0.00
   -7    3    1     -4.50      0.00
   -6    3    1     -7.79      0.00
   -5    3    1    -18.91      0.00
   -4    3    1     14.26      0.00
   -3    3    1     26.89      0.00
   -2    3    1     44.07      0.00
   -1    3    1     33.35      0.00
    0    3    1     -0.53      0.00
    1    3    1     22.69      0.00
    2    3    1    -35.31      0.00
    3    3    1     -5.46      0.00
    4    3    1     21.63      0.00
    5    3    1      0.83      0.00
    6    3    1     12.83      0.00
    7    3    1      5.24      0.00
    8    3    1      1.46      0.00
    9    3    1      1.44      0.00
   10    3    1     -2.14      0.00
   11    3    1      2.19      0.00
  -11    4    1     -0.58      0.00
  -10    4    1      2.51      0.00
   -9    4    1     -3.91      0.00
   -8    4    1      3.30      0.00
   -7    4    1     -2.18      0.00
   -6    4    1      5.02      0.00
   -5    4    1     -6.13      0.00
   -4    4    1     -2.30      0.00
   -3    4    1    -58.64      0.00
   -2    4    1     24.98      0.00
   -1    4    1     54.82      0.00
    0    4    1     83.35      0.00
    1    4    1     21.60      0.00
    2    4    1     25.50      0.00
    3    4    1    -16.81      0.00
    4    4    1    -16.68      0.00
    5    4    1    -20.06      0.00
    6    4    1     -5.42      0.00
    7    4    1      1.92      0.00
    8    4    1      1.03      0.00
    9    4    1     -0.24      0.00
   10    4    1     -1.77      0.00
   11    4    1      0.94      0.00
  -11    5    1     -0.97      0.00
  -10    5    1     -0.28      0.00
   -9    5    1      0.56      0.00
   -8    5    1     -1.79      0.00
   -7    5    1     -4.39      0.00
   -6    5    1     -3.10      0.00
   -5    5    1     -1.07      0.00
   -4    5    1     19.75      0.00
   -3    5    1     -0.19      0.00
   -2    5    1      5.36      0.00
   -1    5    1    -51.25      0.00
    0    5    1    -19.15      0.00
    1    5    1     -9.45      0.00
    2    5    1    -12.09      0.00
    3    5    1     56.07      0.00
    4    5    1     21.19      0.00
    5    5    1      1.86      0.00
    6    5    1      7.18      0.00
    7    5    1     -1.80      0.00
    8    5    1      0.63      0.00
    9    5    1     -2.09      0.00
   10    5    1     -0.32      0.00
   11    5    1      5.11      0.00
  -11    6    1      0.16      0.00
  -10    6    1      3.07      0.00
   -9    6    1     -1.75      0.00
   -8    6    1      1.01      0.00
   -7    6    1     -2.94      0.00
   -6    6    1     -6.10      0.00
   -5    6    1     -8.48      0.00
   -4    6    1    -19.91      0.00
   -3    6    1     -7.55      0.00
   -2    6    1     63.17      0.00
   -1    6    1     32.40      0.00
    0    6    1     86.78      0.00
    1    6    1    -40.74      0.00
    2    6    1      7.66      0.00
    3    6    1    -14.24      0.00
    4    6    1     -4.26      0.00
    5    6    1      8.87      0.00
    6    6    1     -1.91      0.00
    7    6    1      3.55      0.00
    8    6    1     -3.40      0.00
    9    6    1     -6.15      0.00
   10    6    1      2.10      0.00
   11    6    1      0.94      0.00
  -11    7    1     -0.28      0.00
  -10    7    1      2.49      0.00
   -9    7    1     -0.88      0.00
   -8    7    1     -2.61      0.00
   -7    7    1      1.51      0.00
   -6    7    1      0.53      0.00
   -5    7    1     -1.53      0.00
   -4    7    1     -0.86      0.00
   -3    7    1      5.19      0.00
   -2    7    1    -24.50      0.00
   -1    7    1    -10.60      0.00
    0    7    1     -3.03      0.00
    1    7    1    -22.62      0.00
    2    7    1     33.65      0.00
    3    7    1      6.79      0.00
    4    7    1     10.90      0.00
    5    7    1     -8.96      0.00
    6    7    1      1.24      0.00
    7    7    1      2.60      0.00
    8    7    1      1.66      0.00
    9    7    1      1.88      0.00
   10    7    1     -0.22      0.00
   11    7    1     -0.11      0.00
  -11    8    1      1.69      0.00
  -10    8    1      3.52      0.00
   -9    8    1      1.51      0.00
   -8    8    1     -3.27      0.00
   -7    8    1     -5.38      0.00
   -6    8    1     -3.74      0.00
   -5    8    1    -13.88      0.00
   -4    8    1      1.55      0.00
   -3    8    1      5.46      0.00
   -2    8    1     35.28      0.00
   -1    8    1     29.01      0.00
    0    8    1     22.64      0.00
    1    8    1    -12.78      0.00
    2    8    1     12.20      0.00
    3    8    1     -9.55      0.00
    4    8    1     16.94      0.00
    5    8    1     -2.92      0.00
    6    8    1     -6.14      0.00
    7    8    1     -3.40      0.00
    8    8    1     -5.49      0.00
    9    8    1     -0.44      0.00
   10    8    1      6.65      0.00
   11    8    1      1.17      0.00
  -10    9    1      2.10      0.00
   -9    9    1     -0.03      0.00
   -8    9    1      0.64      0.00
   -7    9    1      6.05      0.00
   -6    9    1     -6.61      0.00
   -5    9    1     -5.91      0.00
   -4    9    1     -3.42      0.00
   -3    9    1    -17.04      0.00
   -2    9    1     -4.39      0.00
   -1    9    1    -17.44      0.00
    0    9    1     -6.93      0.00
    1    9    1     14.66      0.00
    2    9    1     13.26      0.00
    3    9    1      9.46      0.00
    4    9    1      6.95      0.00
    5    9    1     -9.09      0.00
    6    9    1      7.04      0.00
    7    9    1      1.23      0.00
    8    9    1     -1.65      0.00
    9    9    1      0.60      0.00
   10    9    1     -4.66      0.00
  -10   10    1      1.70      0.00
   -9   10    1     -1.08      0.00
   -8   10    1     -2.68      0.00
   -7   10    1      1.40      0.00
   -6   10    1      0.71      0.00
   -5   10    1      4.08      0.00
   -4   10    1      8.79      0.00
   -3   10    1      4.34      0.00
   -2   10    1     16.07      0.00
   -1   10    1     -9.83      0.00
    0   10    1      6.57      0.00
    1   10    1     -9.52      0.00
    2   10    1     -0.61      0.00
    3   10    1     15.60      0.00
    4   10    1      3.87      0.00
    5   10    1     -2.11      0.00
    6   10    1     -4.46      0.00
    7   10    1      0.17      0.00
    8   10    1      1.33      0.00
    9   10    1      2.32      0.00
   10   10    1      2.21      0.00
  -10   11    1      2.88      0.00
   -9   11    1     -0.11      0.00
   -8   11    1      3.32      0.00
   -7   11    1     -3.22      0.00
   -6   11    1     -6.85      0.00
   -5   11    1     -3.72      0.00
   -4   11    1     -5.30      0.00
   -3   11    1      4.30      0.00
   -2   11    1      2.62      0.00
   -1   11    1    -14.58      0.00
    0   11    1      1.96      0.00
    1   11    1     -9.56      0.00
    2   11    1    -11.85      0.00
    3   11    1     -0.76      0.00
    4   11    1     -5.42      0.00
    5   11    1      3.38      0.00
    6   11    1      3.24      0.00
    7   11    1      0.41      0.00
    8   11    1     -1.24      0.00
    9   11    1      1.80      0.00
   10   11    1     -4.55      0.00
  -10   12    1     -0.82      0.00
   -9   12    1      2.03      0.00
   -8   12    1      2.62      0.00
   -7   12    1      2.62      0.00
   -6   12    1      4.45      0.00
   -5   12    1      0.02      0.00
   -4   12    1     -0.49      0.00
   -3   12    1     -3.69      0.00
   -2   12    1      0.45      0.00
   -1   12    1     10.69      0.00
    0   12    1     16.73      0.00
    1   12    1     12.72      0.00
    2   12    1      3.90      0.00
    3   12    1      8.02      0.00
    4   12    1    -12.99      0.00
    5   12    1     -4.57      0.00
    6   12    1     -5.29      0.00
    7   12    1      1.45      0.00
    8   12    1      2.76      0.00
    9   12    1     -1.22      0.00
   10   12    1      0.39      0.00
   -9   13    1      0.19      0.00
   -8   13    1      0.86      0.00
   -7   13    1     -0.26      0.00
   -6   13    1      1.48      0.00
   -5   13    1     -0.82      0.00
   -4   13    1      3.77      0.00
   -3   13    1     -1.29      0.00
   -2   13    1     -7.07      0.00
   -1   13    1    -24.28      0.00
    0   13    1     -4.99      0.00
    1   13    1    -16.31      0.00
    2   13    1     -7.47      0.00
    3   13    1     10.16      0.00
    4   13    1     -0.06      0.00
    5   13    1      6.02      0.00
    6   13    1     -3.72      0.00
    7   13    1     -1.67      0.00
    8   13    1     -2.05      0.00
    9   13    1     -1.28      0.00
   -9   14    1      1.81      0.00
   -8   14    1      1.72      0.00
   -7   14    1      2.10      0.00
   -6   14    1     -2.28      0.00
   -5   14    1      2.70      0.00
   -4   14    1     -4.34      0.00
   -3   14    1      2.29      0.00
   -2   14    1      5.02      0.00
   -1   14    1      9.03      0.00
    0   14    1     11.18      0.00
    1   14    1     -2.20      0.00
    2   14    1      0.23      0.00
    3   14    1     -2.79      0.00
    4   14    1     -6.17      0.00
    5   14    1      2.97      0.00
    6   14    1      0.00      0.00
    7   14    1      2.73      0.00
    8   14    1      3.03      0.00
    9   14    1     -4.21      0.00
   -8   15    1      3.00      0.00
   -7   15    1      1.72      0.00
   -6   15    1      1.96      0.00
   -5   15    1      1.76      0.00
   -4   15    1      0.39      0.00
   -3   15    1      2.78      0.00
   -2   15    1     -5.37      0.00
   -1   15    1     -5.90      0.00
    0   15    1     -4.29      0.00
    1   15    1    -14.79      0.00
    2   15    1     -2.31      0.00
    3   15    1     -0.91      0.00
    4   15    1     -2.25      0.00
    5   15    1     -2.13      0.00
    6   15    1     -4.20      0.00
    7   15    1     -0.30      0.00
    8   15    1      0.52      0.00
   -8   16    1      0.53      0.00
   -7   16    1     -1.05      0.00
   -6   16    1     -1.80      0.00
   -5   16    1      0.53      0.00
   -4   16    1     -2.95      0.00
   -3   16    1      2.21      0.00
   -2   16    1      4.87      0.00
   -1   16    1      7.29      0.00
    0   16    1      2.71      0.00
    1   16    1      4.33      0.00
    2   16    1      2.44      0.00
    3   16    1     -2.06      0.00
    4   16    1      1.20      0.00
    5   16    1     -1.07      0.00
    6   16    1     -2.04      0.00
    7   16    1     -1.00      0.00
    8   16    1      0.91      0.00
   -7   17    1      3.05      0.00
   -6   17    1      1.11      0.00
   -5   17    1     -0.37      0.00
   -4   17    1      1.05      0.00
   -3   17    1      0.83      0.00
   -2   17    1      1.55      0.00
   -1   17    1     -4.14      0.00
    0   17    1     -4.75      0.00
    1   17    1     -2.78      0.00
    2   17    1     -1.43      0.00
    3   17    1      3.22      0.00
    4   17    1      1.30      0.00
    5   17    1     -0.36      0.00
    6   17    1      0.35      0.00
    7   17    1      1.00      0.00
   -7   18    1     -0.02      0.00
   -6   18    1     -1.67      0.00
   -5   18    1      3.08      0.00
   -4   18    1     -0.92      0.00
   -3   18    1      1.48      0.00
   -2   18    1      5.91      0.00
   -1   18    1     -1.90      0.00
    0   18    1      1.08      0.00
    1   18    1     -2.17      0.00
    2   18    1      0.02      0.00
    3   18    1     -0.38      0.00
    4   18    1     -0.42      0.00
    5   18    1     -0.59      0.00
    6   18    1     -2.61      0.00
    7   18    1     -0.42      0.00
   -6   19    1     -0.67      0.00
   -5   19    1     -0.36      0.00
   -4   19    1      1.81      0.00
   -3   19    1      3.20      0.00
   -2   19    1      1.61      0.00
   -1   19    1      0.86      0.00
    0   19    1      0.18      0.00
    1   19    1      1.20      0.00
    2   19    1      0.18      0.00
    3   19    1     -0.36      0.00
    4   19    1      1.86      0.00
    5   19    1     -1.25      0.00
    6   19    1      1.01      0.00
   -5   20    1      0.83      0.00
   -4   20    1     -3.01      0.00
   -3   20    1     -0.19      0.00
   -2   20    1      2.85      0.00
   -1   20    1     -0.96      0.00
    0   20    1      0.34      0.00
    1   20    1      0.11      0.00
    2   20    1      1.16      0.00
    3   20    1      1.20      0.00
    4   20    1     -0.40      0.00
    5   20    1     -0.87      0.00
   -4   21    1      2.67      0.00
   -3   21    1     -0.11      0.00
   -2   21    1     -0.49      0.00
   -1   21    1      1.75      0.00
    1   21    1      1.77      0.00
    2   21    1     -0.43      0.00
    3   21    1      0.03      0.00
    4   21    1      0.63      0.00
   -2   22    1      0.86      0.00
    2   22    1      0.72      0.00
  -10    0    2     -0.35      0.00
   -8    0    2      2.28      0.00
   -6    0    2     -2.14      0.00
   -4    0    2      0.15      0.00
   -2    0    2     -3.00      0.00
    2    0    2    -23.63      0.00
    4    0    2      8.94      0.00
    8    0    2      3.26      0.00
   10    0    2     -3.37      0.00
  -11    1    2      0.05      0.00
  -10    1    2      0.72      0.00
   -9    1    2     -3.69      0.00
   -8    1    2      2.83      0.00
   -7    1    2      4.99      0.00
   -6    1    2      0.23      0.00
   -5    1    2      2.46      0.00
   -4    1    2     -0.03      0.00
   -3    1    2    -30.93      0.00
   -2    1    2     14.80      0.00
   -1    1    2    -31.58      0.00
    0    1    2     -1.10      0.00
    1    1    2    -71.57      0.00
    2    1    2      8.44      0.00
    3    1    2    -17.16      0.00
    4    1    2    -10.01      0.00
    5    1    2    -12.73      0.00
    6    1    2     -4.33      0.00
    7    1    2     -7.57      0.00
    8    1    2     -1.42      0.00
    9    1    2      5.06      0.00
   10    1    2     -0.81      0.00
   11    1    2      0.27      0.00
  -11    2    2     -3.43      0.00
  -10    2    2     -1.48      0.00
   -9    2    2     -1.80      0.00
   -8    2    2      1.80      0.00
   -7    2    2     -8.22      0.00
   -6    2    2      8.88      0.00
   -5    2    2      5.48      0.00
   -4    2    2      7.45      0.00
   -3    2    2    -13.13      0.00
   -2    2    2     -4.37      0.00
   -1    2    2    -28.62      0.00
    0    2    2    -98.05      0.00
    1    2    2    -41.84      0.00
    2    2    2     -0.60      0.00
    3    2    2     27.74      0.00
    4    2    2     15.26      0.00
    5    2    2      6.03      0.00
    6    2    2     16.68      0.00
    7    2    2     -1.84      0.00
    8    2    2      3.79      0.00
    9    2    2     -3.19      0.00
   10    2    2     -0.55      0.00
   11    2    2      1.72      0.00
  -11    3    2      2.35      0.00
  -10    3    2     -2.79      0.00
   -9    3    2     -4.62      0.00
   -8    3    2      0.09      0.00
   -7    3    2     -4.10      0.00
   -6    3    2     -0.33      0.00
   -5    3    2      3.05      0.00
   -4    3    2     10.99      0.00
   -3    3    2     16.13      0.00
   -2    3    2     60.01      0.00
   -1    3    2    -35.53      0.00
    0    3    2     10.43      0.00
    1    3    2    -74.73      0.00
    2    3    2    -24.06      0.00
    3    3    2    -10.86      0.00
    4    3    2    -35.43      0.00
    5    3    2     -0.69      0.00
    6    3    2     -5.08      0.00
    7    3    2     -3.02      0.00
    8    3    2     -1.12      0.00
    9    3    2      1.19      0.00
   10    3    2      1.76      0.00
   11    3    2     -0.55      0.00
  -11    4    2     -1.73      0.00
  -10    4    2      1.88      0.00
   -9    4    2     -0.98      0.00
   -8    4    2     -1.57      0.00
   -7    4    2     -3.57      0.00
   -6    4    2     10.94      0.00
   -5    4    2     -4.28      0.00
   -3    4    2      6.49      0.00
   -2    4    2    -11.89      0.00
   -1    4    2      1.68      0.00
    0    4    2    -10.01      0.00
    1    4    2    -42.25      0.00
    2    4    2     63.03      0.00
    3    4    2    -13.45      0.00
    4    4    2    -12.11      0.00
    5    4    2      1.25      0.00
    6    4    2     -1.26      0.00
    7    4    2      1.91      0.00
    8    4    2      0.17      0.00
    9    4    2      1.10      0.00
   10    4    2      7.06      0.00
   11    4    2      0.20      0.00
  -11    5    2      0.13      0.00
  -10    5    2     -6.17      0.00
   -9    5    2     -2.23      0.00
   -8    5    2     -2.77      0.00
   -7    5    2     -2.36      0.00
   -6    5    2      8.94      0.00
   -5    5    2     -4.87      0.00
   -4    5    2     17.93      0.00
   -3    5    2     19.17      0.00
   -2    5    2    -34.96      0.00
   -1    5    2      2.80      0.00
    0    5    2    -15.55      0.00
    1    5    2    -30.08      0.00
    2    5    2     47.93      0.00
    3    5    2     -8.04      0.00
    4    5    2     -1.03      0.00
    5    5    2      3.77      0.00
    6    5    2     -5.06      0.00
    7    5    2     -0.03      0.00
    8    5    2     -4.58      0.00
    9    5    2      0.18      0.00
   10    5    2      0.76      0.00
   11    5    2     -1.77      0.00
  -11    6    2     -0.22      0.00
  -10    6    2      1.84      0.00
   -9    6    2     -4.65      0.00
   -8    6    2     -3.43      0.00
   -7    6    2      3.98      0.00
   -6    6    2      3.65      0.00
   -5    6    2     -4.60      0.00
   -4    6    2     21.35      0.00
   -3    6    2      9.45      0.00
   -2    6    2     -0.11      0.00
   -1    6    2     21.96      0.00
    0    6    2    -58.76      0.00
    1    6    2    -13.80      0.00
    2    6    2     23.50      0.00
    3    6    2    -50.34      0.00
    4    6    2     18.95      0.00
    5    6    2    -10.93      0.00
    6    6    2      3.76      0.00
    7    6    2      4.15      0.00
    8    6    2     -0.31      0.00
    9    6    2      4.89      0.00
   10    6    2      3.07      0.00
   11    6    2     -1.12      0.00
  -11    7    2     -0.47      0.00
  -10    7    2     -1.20      0.00
   -9    7    2     -1.77      0.00
   -8    7    2     -2.70      0.00
   -7    7    2      2.67      0.00
   -6    7    2     -4.46      0.00
   -5    7    2     -7.78      0.00
   -4    7    2     24.34      0.00
   -3    7    2     -9.73      0.00
   -2    7    2     10.93      0.00
   -1    7    2     36.05      0.00
    0    7    2     -6.26      0.00
    1    7    2     21.46      0.00
    2    7    2      2.55      0.00
    3    7    2     -5.62      0.00
    4    7    2      4.85      0.00
    5    7    2     -5.29      0.00
    6    7    2      4.72      0.00
    7    7    2     -0.65      0.00
    8    7    2     -0.58      0.00
    9    7    2     -0.64      0.00
   10    7    2     -0.11      0.00
   11    7    2      0.59      0.00
  -11    8    2      1.73      0.00
  -10    8    2      0.93      0.00
   -9    8    2     -8.21      0.00
   -8    8    2      2.43      0.00
   -7    8    2      3.45      0.00
   -6    8    2     -5.55      0.00
   -5    8    2      7.19      0.00
   -4    8    2     -0.04      0.00
   -3    8    2    -12.82      0.00
   -2    8    2     11.56      0.00
   -1    8    2     -8.96      0.00
    0    8    2      5.17      0.00
    1    8    2     10.67      0.00
    2    8    2      3.58      0.00
    3    8    2    -20.88      0.00
    4    8    2      8.57      0.00
    5    8    2    -17.83      0.00
    6    8    2      2.96      0.00
    7    8    2     -1.80      0.00
    8    8    2     -2.05      0.00
    9    8    2      3.37      0.00
   10    8    2      2.06      0.00
   11    8    2     -1.40      0.00
  -10    9    2      0.16      0.00
   -9    9    2     -2.01      0.00
   -8    9    2      2.20      0.00
   -7    9    2     -4.69      0.00
   -6    9    2     -3.40      0.00
   -5    9    2      8.74      0.00
   -4    9    2     16.37      0.00
   -3    9    2      0.23      0.00
   -2    9    2      7.16      0.00
   -1    9    2     14.42      0.00
    0    9    2     -8.05      0.00
    1    9    2      8.36      0.00
    2    9    2     11.16      0.00
    3    9    2     15.05      0.00
    4    9    2      9.48      0.00
    5    9    2     -0.49      0.00
    6    9    2      5.60      0.00
    7    9    2     -5.05      0.00
    8    9    2     -2.44      0.00
    9    9    2     -1.93      0.00
   10    9    2     -0.40      0.00
  -10   10    2     -3.81      0.00
   -9   10    2     -2.64      0.00
   -8   10    2      2.96      0.00
   -7   10    2     -5.87      0.00
   -6   10    2      2.24      0.00
   -5   10    2     -4.02      0.00
   -4   10    2     -5.38      0.00
   -3   10    2     -9.56      0.00
   -2   10    2     13.35      0.00
   -1   10    2     -3.25      0.00
    0   10    2      4.07      0.00
    1   10    2     -5.94      0.00
    2   10    2     -7.03      0.00
    3   10    2     -1.48      0.00
    4   10    2      3.77      0.00
    5   10    2     -3.89      0.00
    6   10    2      3.47      0.00
    7   10    2     -0.96      0.00
    8   10    2     -0.63      0.00
    9   10    2      2.58      0.00
   10   10    2     -0.54      0.00
  -10   11    2     -1.24      0.00
   -9   11    2     -1.36      0.00
   -8   11    2     -3.94      0.00
   -7   11    2     -4.26      0.00
   -6   11    2      3.28      0.00
   -5   11    2      7.29      0.00
   -4   11    2     10.26      0.00
   -3   11    2      2.47      0.00
   -2   11    2     12.82      0.00
   -1   11    2      2.39      0.00
    0   11    2     -0.16      0.00
    1   11    2      5.35      0.00
    2   11    2      4.06      0.00
    3   11    2      9.21      0.00
    4   11    2     -3.28      0.00
    5   11    2      2.27      0.00
    6   11    2     -1.52      0.00
    7   11    2     -4.57      0.00
    8   11    2      1.29      0.00
    9   11    2      0.69      0.00
   10   11    2      0.52      0.00
  -10   12    2      1.58      0.00
   -9   12    2      0.65      0.00
   -8   12    2      0.12      0.00
   -7   12    2     -2.84      0.00
   -6   12    2      2.23      0.00
   -5   12    2     -9.81      0.00
   -4   12    2     -6.83      0.00
   -3   12    2     -1.43      0.00
   -2   12    2      7.77      0.00
   -1   12    2      4.04      0.00
    0   12    2     10.24      0.00
    1   12    2     -8.18      0.00
    2   12    2      8.45      0.00
    3   12    2     -1.69      0.00
    4   12    2     -3.61      0.00
    5   12    2     -1.01      0.00
    6   12    2     -4.16      0.00
    7   12    2      0.63      0.00
    8   12    2     -0.83      0.00
    9   12    2      0.05      0.00
   -9   13    2     -3.67      0.00
   -8   13    2     -1.74      0.00
   -7   13    2     -1.28      0.00
   -6   13    2      1.82      0.00
   -5   13    2     -0.62      0.00
   -4   13    2      2.83      0.00
   -3   13    2      2.03      0.00
   -2   13    2    -10.38      0.00
   -1   13    2      1.64      0.00
    0   13    2     -3.62      0.00
    1   13    2      5.97      0.00
    2   13    2     15.06      0.00
    3   13    2      2.86      0.00
    4   13    2      6.45      0.00
    5   13    2      0.28      0.00
    6   13    2     -4.70      0.00
    7   13    2     -0.37      0.00
    8   13    2      0.73      0.00
    9   13    2     -1.67      0.00
   -9   14    2      1.00      0.00
   -8   14    2     -1.01      0.00
   -7   14    2     -0.44      0.00
   -6   14    2      2.63      0.00
   -5   14    2     -6.28      0.00
   -4   14    2      5.26      0.00
   -3   14    2      0.89      0.00
   -2   14    2      1.34      0.00
   -1   14    2      7.80      0.00
    0   14    2    -13.65      0.00
    1   14    2     -1.66      0.00
    2   14    2     -2.77      0.00
    3   14    2     -9.26      0.00
    4   14    2      2.03      0.00
    5   14    2     -2.72      0.00
    6   14    2      0.79      0.00
    7   14    2      2.50      0.00
    8   14    2     -0.61      0.00
    9   14    2     -2.52      0.00
   -8   15    2     -1.98      0.00
   -7   15    2     -0.38      0.00
   -6   15    2     -4.68      0.00
   -5   15    2     -1.49      0.00
   -4   15    2      4.70      0.00
   -3   15    2     -3.57      0.00
   -2   15    2     -1.74      0.00
   -1   15    2      1.41      0.00
    0   15    2     -1.39      0.00
    1   15    2      6.11      0.00
    2   15    2     -0.01      0.00
    3   15    2      0.13      0.00
    4   15    2     -1.11      0.00
    5   15    2     -4.19      0.00
    6   15    2     -1.55      0.00
    7   15    2      1.96      0.00
    8   15    2     -0.93      0.00
   -8   16    2     -0.65      0.00
   -7   16    2      2.26      0.00
   -6   16    2     -0.98      0.00
   -5   16    2      1.13      0.00
   -4   16    2      0.83      0.00
   -3   16    2     -0.19      0.00
   -2   16    2      1.27      0.00
   -1   16    2      1.30      0.00
    0   16    2     -2.41      0.00
    1   16    2      4.29      0.00
    2   16    2     -2.08      0.00
    3   16    2     -5.19      0.00
    4   16    2     -0.59      0.00
    5   16    2     -4.28      0.00
    6   16    2     -1.72      0.00
    7   16    2      0.50      0.00
    8   16    2     -1.14      0.00
   -7   17    2     -0.61      0.00
   -6   17    2     -2.21      0.00
   -5   17    2      2.25      0.00
   -4   17    2     -0.15      0.00
   -3   17    2     -2.40      0.00
   -2   17    2     -5.24      0.00
   -1   17    2     -1.73      0.00
    0   17    2     -4.07      0.00
    1   17    2     -0.85      0.00
    2   17    2      0.42      0.00
    3   17    2      1.05      0.00
    4   17    2     -0.46      0.00
    5   17    2      0.01      0.00
    6   17    2     -0.14      0.00
    7   17    2     -0.33      0.00
   -7   18    2     -0.38      0.00
   -6   18    2      2.20      0.00
   -5   18    2      1.59      0.00
   -4   18    2      3.30      0.00
   -3   18    2      1.44      0.00
   -2   18    2      1.04      0.00
   -1   18    2     -0.16      0.00
    0   18    2     -2.40      0.00
    1   18    2      2.75      0.00
    2   18    2     -2.87      0.00
    3   18    2     -4.42      0.00
    4   18    2     -0.45      0.00
    5   18    2     -2.51      0.00
    6   18    2      0.82      0.00
    7   18    2      2.24      0.00
   -6   19    2     -1.11      0.00
   -5   19    2     -1.21      0.00
   -4   19    2      0.48      0.00
   -3   19    2     -2.10      0.00
   -2   19    2      2.58      0.00
   -1   19    2     -0.97      0.00
    0   19    2     -4.03      0.00
    1   19    2     -0.83      0.00
    2   19    2     -2.66      0.00
    3   19    2     -0.38      0.00
    4   19    2     -2.23      0.00
    5   19    2     -0.48      0.00
    6   19    2     -1.31      0.00
   -5   20    2      0.22      0.00
   -4   20    2      0.85      0.00
   -3   20    2     -0.07      0.00
   -2   20    2      1.28      0.00
   -1   20    2     -2.10      0.00
    0   20    2      3.15      0.00
    1   20    2      0.82      0.00
    2   20    2      1.01      0.00
    3   20    2     -2.87      0.00
    4   20    2     -0.14      0.00
    5   20    2      0.67      0.00
   -4   21    2      1.12      0.00
   -3   21    2      0.14      0.00
   -2   21    2      2.26      0.00
   -1   21    2     -1.83      0.00
    0   21    2     -4.12      0.00
    1   21    2      0.26      0.00
    2   21    2     -0.89      0.00
    3   21    2     -1.57      0.00
    4   21    2      0.72      0.00
   -2   22    2      0.32      0.00
    2   22    2      0.24      0.00
  -11    0    3      0.04      0.00
   -9    0    3      2.10      0.00
   -7    0    3      3.03      0.00
   -5    0    3     11.37      0.00
   -3    0    3    -50.51      0.00
   -1    0    3   -168.63      0.00
    1    0    3    139.23      0.00
    3    0    3     43.74      0.00
    5    0    3    -16.59      0.00
    7    0    3    -11.75      0.00
    9    0    3     -1.05      0.00
   11    0    3      0.61      0.00
  -11    1    3     -2.10      0.00
  -10    1    3      0.93      0.00
   -9    1    3      0.23      0.00
   -8    1    3      8.43      0.00
   -7    1    3     -2.32      0.00
   -6    1    3     -9.36      0.00
   -5    1    3     11.64      0.00
   -4    1    3    -24.86      0.00
   -3    1    3      9.00      0.00
   -2    1    3     62.80      0.00
   -1    1    3    -85.68      0.00
    0    1    3     36.57      0.00
    1    1    3    -40.68      0.00
    2    1    3     -7.61      0.00
    3    1    3     26.49      0.00
    4    1    3      3.96      0.00
    5    1    3     14.05      0.00
    6    1    3     11.00      0.00
    7    1    3      1.18      0.00
    8    1    3      8.82      0.00
    9    1    3     -1.22      0.00
   10    1    3      0.56      0.00
   11    1    3     -0.89      0.00
  -11    2    3     -1.50      0.00
  -10    2    3     -3.21      0.00
   -9    2    3      5.20      0.00
   -8    2    3      4.97      0.00
   -7    2    3      1.88      0.00
   -6    2    3     10.95      0.00
   -5    2    3      9.45      0.00
   -4    2    3    -21.35      0.00
   -3    2    3      6.94      0.00
   -2    2    3    -30.57      0.00
   -1    2    3    -92.67      0.00
    0    2    3    108.41      0.00
    1    2    3     17.03      0.00
    2    2    3    -10.59      0.00
    3    2    3     15.82      0.00
    4    2    3    -33.83      0.00
    5    2    3      3.83      0.00
    6    2    3     -2.61      0.00
    7    2    3     -1.27      0.00
    8    2    3      3.16      0.00
    9    2    3     -1.85      0.00
   10    2    3     -0.26      0.00
   11    2    3     -2.02      0.00
  -11    3    3     -1.44      0.00
  -10    3    3     -0.40      0.00
   -9    3    3      0.98      0.00
   -8    3    3      5.29      0.00
   -7    3    3     -4.96      0.00
   -6    3    3      3.62      0.00
   -5    3    3      3.26      0.00
   -4    3    3    -23.75      0.00
   -3    3    3     32.90      0.00
   -2    3    3    -29.30      0.00
   -1    3    3    -51.24      0.00
    0    3    3     19.69      0.00
    1    3    3    -78.01      0.00
    2    3    3     36.66      0.00
    3    3    3    -16.04      0.00
    4    3    3      9.25      0.00
    5    3    3     14.34      0.00
    6    3    3      1.14      0.00
    7    3    3      2.79      0.00
    8    3    3      2.03      0.00
    9    3    3      4.63      0.00
   10    3    3      0.91      0.00
   11    3    3     -3.41      0.00
  -11    4    3     -4.09      0.00
  -10    4    3     -0.69      0.00
   -9    4    3      9.92      0.00
   -8    4    3      0.84      0.00
   -7    4    3      2.33      0.00
   -6    4    3     10.89      0.00
   -5    4    3     -8.99      0.00
   -4    4    3      1.91      0.00
   -3    4    3     -0.73      0.00
   -2    4    3    -25.71      0.00
   -1    4    3     40.99      0.00
    0    4    3     17.83      0.00
    1    4    3      7.19      0.00
    2    4    3     -9.15      0.00
    3    4    3    -18.35      0.00
    4    4    3     -8.71      0.00
    5    4    3     -4.47      0.00
    6    4    3      6.28      0.00
    7    4    3     -0.03      0.00
    8    4    3     -0.88      0.00
    9    4    3     -1.58      0.00
   10    4    3     -1.62      0.00
   11    4    3     -0.26      0.00
  -11    5    3     -4.43      0.00
  -10    5    3      0.35      0.00
   -9    5    3      2.78      0.00
   -8    5    3      2.84      0.00
   -7    5    3      3.94      0.00
   -6    5    3      5.14      0.00
   -5    5    3      2.43      0.00
   -4    5    3     -3.86      0.00
   -3    5    3     -3.30      0.00
   -2    5    3    -19.12      0.00
   -1    5    3    -39.05      0.00
    0    5    3     -4.96      0.00
    1    5    3    -14.44      0.00
    2    5    3     14.14      0.00
    3    5    3      5.26      0.00
    4    5    3      3.50      0.00
    5    5    3     -2.76      0.00
    6    5    3     -1.25      0.00
    7    5    3     -2.13      0.00
    8    5    3      3.02      0.00
    9    5    3      3.96      0.00
   10    5    3      0.64      0.00
   11    5    3     -3.17      0.00
  -11    6    3     -5.04      0.00
  -10    6    3      1.09      0.00
   -9    6    3      0.02      0.00
   -8    6    3     -1.33      0.00
   -7    6    3      4.20      0.00
   -6    6    3      0.64      0.00
   -5    6    3      9.46      0.00
   -4    6    3      5.66      0.00
   -3    6    3      7.61      0.00
   -2    6    3      6.09      0.00
   -1    6    3    -10.85      0.00
    0    6    3    -32.26      0.00
    1    6    3    -18.73      0.00
    2    6    3    -10.57      0.00
    3    6    3     10.49      0.00
    4    6    3      9.77      0.00
    5    6    3      4.50      0.00
    6    6    3     14.90      0.00
    7    6    3     -2.88      0.00
    8    6    3     -2.16      0.00
    9    6    3     -0.02      0.00
   10    6    3     -0.58      0.00
   11    6    3      1.07      0.00
  -11    7    3     -2.58      0.00
  -10    7    3      1.84      0.00
   -9    7    3      1.35      0.00
   -8    7    3      2.87      0.00
   -7    7    3      1.27      0.00
   -6    7    3      0.96      0.00
   -5    7    3      2.46      0.00
   -4    7    3      5.92      0.00
   -3    7    3     14.29      0.00
   -2    7    3     12.38      0.00
   -1    7    3     -3.14      0.00
    0    7    3      9.74      0.00
    1    7    3    -29.70      0.00
    2    7    3     -9.64      0.00
    3    7    3    -15.25      0.00
    4    7    3    -23.88      0.00
    5    7    3     -8.13      0.00
    6    7    3      0.74      0.00
    7    7    3      1.77      0.00
    8    7    3      6.64      0.00
    9    7    3      2.99      0.00
   10    7    3     -0.64      0.00
   11    7    3     -2.91      0.00
  -11    8    3     -2.95      0.00
  -10    8    3     -1.79      0.00
   -9    8    3      0.84      0.00
   -8    8    3      2.36      0.00
   -7    8    3      3.46      0.00
   -6    8    3      2.28      0.00
   -5    8    3      8.81      0.00
   -4    8    3     -4.19      0.00
   -3    8    3     -1.34      0.00
   -2    8    3      2.23      0.00
   -1    8    3    -21.71      0.00
    0    8    3      9.21      0.00
    1    8    3     18.16      0.00
    2    8    3     17.48      0.00
    3    8    3     16.38      0.00
    4    8    3     -2.68      0.00
    5    8    3     -1.68      0.00
    6    8    3      5.27      0.00
    7    8    3     -8.59      0.00
    8    8    3      0.90      0.00
    9    8    3      3.80      0.00
   10    8    3      1.48      0.00
  -10    9    3     -0.18      0.00
   -9    9    3     -0.66      0.00
   -8    9    3     -1.53      0.00
   -7    9    3      1.79      0.00
   -6    9    3      1.14      0.00
   -5    9    3      6.89      0.00
   -4    9    3      8.67      0.00
   -3    9    3     -2.23      0.00
   -2    9    3      5.60      0.00
   -1    9    3    -30.94      0.00
    0    9    3      1.86      0.00
    1    9    3    -26.95      0.00
    2    9    3      5.01      0.00
    3    9    3      0.87      0.00
    4    9    3    -21.39      0.00
    5    9    3      5.88      0.00
    6    9    3      1.58      0.00
    7    9    3      3.76      0.00
    8    9    3      2.07      0.00
    9    9    3     -3.23      0.00
   10    9    3     -2.44      0.00
  -10   10    3      1.83      0.00
   -9   10    3     -0.01      0.00
   -8   10    3      0.86      0.00
   -7   10    3      2.62      0.00
   -6   10    3      0.06      0.00
   -5   10    3      6.52      0.00
   -4   10    3     -2.90      0.00
   -3   10    3     18.07      0.00
   -2   10    3      2.95      0.00
   -1   10    3    -15.14      0.00
    0   10    3     28.37      0.00
    1   10    3    -14.04      0.00
    2   10    3     16.57      0.00
    3   10    3     -1.02      0.00
    4   10    3     -3.91      0.00
    5   10    3      4.04      0.00
    6   10    3     -0.33      0.00
    7   10    3      0.69      0.00
    8   10    3      3.33      0.00
    9   10    3      2.32      0.00
   10   10    3     -1.42      0.00
  -10   11    3     -2.24      0.00
   -9   11    3     -2.23      0.00
   -8   11    3      2.67      0.00
   -7   11    3     -1.50      0.00
   -6   11    3      0.52      0.00
   -5   11    3      3.07      0.00
   -4   11    3      0.09      0.00
   -3   11    3      1.64      0.00
   -2   11    3     -5.36      0.00
   -1   11    3      0.94      0.00
    0   11    3      1.38      0.00
    1   11    3    -11.47      0.00
    2   11    3      5.65      0.00
    3   11    3    -16.68      0.00
    4   11    3     -8.16      0.00
    5   11    3      4.24      0.00
    6   11    3      2.46      0.00
    7   11    3      2.22      0.00
    8   11    3     -0.38      0.00
    9   11    3     -1.06      0.00
   10   11    3      0.01      0.00
  -10   12    3      1.33      0.00
   -9   12    3     -3.30      0.00
   -8   12    3      0.43      0.00
   -7   12    3     -2.89      0.00
   -6   12    3     -0.69      0.00
   -5   12    3     -4.36      0.00
   -4   12    3      3.77      0.00
   -3   12    3      2.26      0.00
   -2   12    3      1.31      0.00
   -1   12    3      6.77      0.00
    0   12    3     12.98      0.00
    1   12    3      6.80      0.00
    2   12    3     12.98      0.00
    3   12    3      0.17      0.00
    4   12    3     -1.30      0.00
    5   12    3     -5.16      0.00
    6   12    3      2.35      0.00
    7   12    3      0.17      0.00
    8   12    3     -1.13      0.00
    9   12    3      0.53      0.00
   -9   13    3      2.40      0.00
   -8   13    3      0.91      0.00
   -7   13    3     -2.25      0.00
   -6   13    3      0.63      0.00
   -5   13    3      6.46      0.00
   -4   13    3     -1.04      0.00
   -3   13    3     -2.33      0.00
   -2   13    3      1.27      0.00
   -1   13    3     -6.82      0.00
    0   13    3     -3.81      0.00
    1   13    3      0.38      0.00
    2   13    3     -3.87      0.00
    3   13    3      6.04      0.00
    4   13    3      4.24      0.00
    5   13    3      3.52      0.00
    6   13    3      3.09      0.00
    7   13    3     -3.05      0.00
    8   13    3     -0.52      0.00
    9   13    3     -2.50      0.00
   -9   14    3     -4.39      0.00
   -8   14    3      0.03      0.00
   -7   14    3     -4.23      0.00
   -6   14    3     -2.91      0.00
   -5   14    3     -1.29      0.00
   -4   14    3     -3.00      0.00
   -3   14    3      3.29      0.00
   -2   14    3      6.47      0.00
   -1   14    3     -1.18      0.00
    0   14    3      7.58      0.00
    1   14    3     -4.31      0.00
    2   14    3      2.38      0.00
    3   14    3      1.55      0.00
    4   14    3     -3.94      0.00
    5   14    3      4.74      0.00
    6   14    3      6.39      0.00
    7   14    3      0.18      0.00
    8   14    3      0.79      0.00
    9   14    3      0.38      0.00
   -8   15    3     -2.67      0.00
   -7   15    3     -3.09      0.00
   -6   15    3      2.42      0.00
   -5   15    3      3.36      0.00
   -4   15    3     -5.02      0.00
   -3   15    3      7.89      0.00
   -2   15    3     -2.95      0.00
   -1   15    3      0.74      0.00
    0   15    3      4.35      0.00
    1   15    3     -2.28      0.00
    2   15    3      2.74      0.00
    3   15    3      4.07      0.00
    4   15    3     -1.79      0.00
    5   15    3     -1.29      0.00
    6   15    3     -0.75      0.00
    7   15    3     -0.63      0.00
    8   15    3     -0.57      0.00
   -8   16    3      0.38      0.00
   -7   16    3     -2.22      0.00
   -6   16    3     -0.50      0.00
   -5   16    3     -7.18      0.00
   -4   16    3     -0.71      0.00
   -3   16    3     -0.65      0.00
   -2   16    3     -3.26      0.00
   -1   16    3      0.41      0.00
    0   16    3      1.51      0.00
    1   16    3      0.33      0.00
    2   16    3      2.95      0.00
    3   16    3      2.15      0.00
    4   16    3      1.25      0.00
    5   16    3      2.81      0.00
    6   16    3      1.23      0.00
    7   16    3     -0.69      0.00
    8   16    3     -1.26      0.00
   -7   17    3      1.83      0.00
   -6   17    3      0.90      0.00
   -5   17    3      0.10      0.00
   -4   17    3      1.85      0.00
   -3   17    3     -0.07      0.00
   -2   17    3     -0.70      0.00
   -1   17    3     -1.20      0.00
    0   17    3      2.78      0.00
    1   17    3     -1.45      0.00
    2   17    3      5.30      0.00
    3   17    3      4.25      0.00
    4   17    3     -2.22      0.00
    5   17    3      1.66      0.00
    6   17    3      1.05      0.00
    7   17    3      1.12      0.00
   -7   18    3     -1.09      0.00
   -6   18    3     -2.45      0.00
   -5   18    3     -2.93      0.00
   -4   18    3      0.66      0.00
   -3   18    3     -5.52      0.00
   -2   18    3     -4.02      0.00
   -1   18    3     -2.56      0.00
    0   18    3      0.78      0.00
    1   18    3     -3.01      0.00
    2   18    3      1.55      0.00
    3   18    3     -0.92      0.00
    4   18    3      2.52      0.00
    5   18    3     -0.72      0.00
    6   18    3      0.36      0.00
    7   18    3     -0.48      0.00
   -6   19    3     -0.71      0.00
   -5   19    3      1.91      0.00
   -4   19    3      0.51      0.00
   -3   19    3      1.27      0.00
   -2   19    3      1.23      0.00
   -1   19    3     -1.11      0.00
    0   19    3      1.46      0.00
    1   19    3      0.06      0.00
    2   19    3      4.46      0.00
    3   19    3     -1.76      0.00
    4   19    3     -0.90      0.00
    5   19    3      0.21      0.00
    6   19    3     -0.45      0.00
   -5   20    3     -2.98      0.00
   -4   20    3     -1.47      0.00
   -3   20    3     -4.31      0.00
   -2   20    3     -3.31      0.00
   -1   20    3      0.64      0.00
    0   20    3     -0.11      0.00
    1   20    3     -0.42      0.00
    2   20    3      1.74      0.00
    3   20    3     -0.59      0.00
    4   20    3      4.13      0.00
    5   20    3     -4.02      0.00
   -4   21    3     -1.00      0.00
   -3   21    3      0.42      0.00
   -2   21    3      0.18      0.00
   -1   21    3     -3.66      0.00
    0   21    3      1.46      0.00
    1   21    3      1.89      0.00
    2   21    3     -0.47      0.00
    3   21    3     -0.04      0.00
    4   21    3     -0.45      0.00
   -2   22    3     -1.37      0.00
   -1   22    3      0.56      0.00
    2   22    3      2.22      0.00
  -10    0    4      1.12      0.00
   -8    0    4      1.56      0.00
   -6    0    4     -5.68      0.00
   -4    0    4     -4.34      0.00
   -2    0    4      8.47      0.00
    0    0    4     32.19      0.00
    2    0    4      3.33      0.00
    4    0    4     -0.31      0.00
    6    0    4    -12.58      0.00
    8    0    4     -3.11      0.00
   10    0    4     -0.11      0.00
  -11    1    4      1.80      0.00
  -10    1    4     -0.34      0.00
   -9    1    4     -1.00      0.00
   -8    1    4      0.41      0.00
   -7    1    4     -2.07      0.00
   -6    1    4      2.25      0.00
   -5    1    4     -8.55      0.00
   -4    1    4    -10.07      0.00
   -3    1    4    -11.43      0.00
   -2    1    4    -22.12      0.00
   -1    1    4     73.05      0.00
    0    1    4    -13.37      0.00
    1    1    4     41.21      0.00
    2    1    4     42.47      0.00
    3    1    4     -2.74      0.00
    4    1    4     11.39      0.00
    5    1    4      0.29      0.00
    6    1    4      0.02      0.00
    7    1    4      0.20      0.00
    8    1    4     -3.18      0.00
    9    1    4     -8.88      0.00
   10    1    4     -1.64      0.00
   11    1    4     -0.93      0.00
  -11    2    4      0.49      0.00
  -10    2    4     -0.18      0.00
   -9    2    4      2.98      0.00
   -8    2    4     -1.34      0.00
   -7    2    4     -1.05      0.00
   -6    2    4     -2.83      0.00
   -5    2    4     -2.55      0.00
   -4    2    4     20.51      0.00
   -3    2    4      5.78      0.00
   -2    2    4     -5.81      0.00
   -1    2    4    -12.94      0.00
    0    2    4    -63.01      0.00
    1    2    4    -12.06      0.00
    2    2    4     -9.43      0.00
    3    2    4     22.23      0.00
    4    2    4     11.90      0.00
    5    2    4      4.60      0.00
    6    2    4     -4.38      0.00
    7    2    4      0.86      0.00
    8    2    4      0.21      0.00
    9    2    4      2.17      0.00
   10    2    4     -1.45      0.00
   11    2    4      2.05      0.00
  -11    3    4      1.49      0.00
  -10    3    4      3.61      0.00
   -9    3    4     -2.53      0.00
   -8    3    4      2.89      0.00
   -7    3    4     -0.05      0.00
   -6    3    4     -5.41      0.00
   -5    3    4    -11.33      0.00
   -4    3    4    -20.41      0.00
   -3    3    4      9.92      0.00
   -2    3    4     23.89      0.00
   -1    3    4     69.05      0.00
    0    3    4     13.55      0.00
    1    3    4     64.75      0.00
    2    3    4      3.17      0.00
    3    3    4    -23.65      0.00
    4    3    4      5.86      0.00
    5    3    4     -3.08      0.00
    6    3    4      3.53      0.00
    7    3    4     -2.02      0.00
    8    3    4     -0.19      0.00
    9    3    4     -4.38      0.00
   10    3    4     -2.60      0.00
   11    3    4     -2.37      0.00
  -11    4    4     -2.69      0.00
  -10    4    4      5.54      0.00
   -9    4    4     -0.23      0.00
   -8    4    4      0.18      0.00
   -7    4    4     -0.19      0.00
   -6    4    4      2.30      0.00
   -5    4    4      0.04      0.00
   -4    4    4     -1.84      0.00
   -3    4    4    -18.95      0.00
   -2    4    4    -52.95      0.00
   -1    4    4    -28.66      0.00
    0    4    4    -39.12      0.00
    1    4    4     31.07      0.00
    2    4    4     23.85      0.00
    3    4    4     19.22      0.00
    5    4    4     -0.34      0.00
    6    4    4     -6.63      0.00
    7    4    4     -1.69      0.00
    8    4    4      0.77      0.00
    9    4    4      1.40      0.00
   10    4    4     -0.45      0.00
   11    4    4      0.27      0.00
  -11    5    4     -0.05      0.00
  -10    5    4      2.35      0.00
   -9    5    4     -2.60      0.00
   -8    5    4      7.95      0.00
   -7    5    4     -3.78      0.00
   -6    5    4     -3.04      0.00
   -5    5    4     -6.65      0.00
   -4    5    4     -8.83      0.00
   -3    5    4     22.23      0.00
   -2    5    4    -24.87      0.00
   -1    5    4     32.58      0.00
    0    5    4     -8.31      0.00
    1    5    4     33.62      0.00
    2    5    4     12.33      0.00
    3    5    4     -8.69      0.00
    4    5    4     28.38      0.00
    5    5    4     -0.70      0.00
    6    5    4      5.35      0.00
    7    5    4     -2.23      0.00
    8    5    4     -0.67      0.00
    9    5    4     -2.20      0.00
   10    5    4     -4.24      0.00
   11    5    4     -0.27      0.00
  -11    6    4      0.68      0.00
  -10    6    4      2.18      0.00
   -9    6    4     -1.05      0.00
   -8    6    4      3.14      0.00
   -7    6    4      1.00      0.00
   -6    6    4      6.21      0.00
   -5    6    4     -0.81      0.00
   -4    6    4      5.91      0.00
   -3    6    4    -31.03      0.00
   -2    6    4    -27.13      0.00
   -1    6    4     -4.54      0.00
    0    6    4    -47.86      0.00
    1    6    4     32.66      0.00
    2    6    4    -17.20      0.00
    3    6    4     -7.20      0.00
    4    6    4     -9.81      0.00
    5    6    4      5.93      0.00
    6    6    4      3.53      0.00
    7    6    4     -3.13      0.00
    8    6    4      2.23      0.00
    9    6    4     -1.24      0.00
   10    6    4     -3.67      0.00
   11    6    4      0.62      0.00
  -11    7    4     -0.68      0.00
  -10    7    4      0.93      0.00
   -9    7    4      1.79      0.00
   -8    7    4      0.85      0.00
   -7    7    4     -1.56      0.00
   -6    7    4     -5.96      0.00
   -5    7    4     -0.07      0.00
   -4    7    4     -6.41      0.00
   -3    7    4      0.22      0.00
   -2    7    4     -1.94      0.00
   -1    7    4      8.19      0.00
    0    7    4      9.53      0.00
    1    7    4      7.37      0.00
    2    7    4     -4.55      0.00
    3    7    4     -5.32      0.00
    4    7    4      5.54      0.00
    5    7    4      2.69      0.00
    6    7    4      2.84      0.00
    7    7    4      2.19      0.00
    8    7    4      0.69      0.00
    9    7    4      0.74      0.00
   10    7    4     -0.44      0.00
   11    7    4      1.58      0.00
  -11    8    4      1.59      0.00
  -10    8    4     -0.14      0.00
   -9    8    4      2.50      0.00
   -8    8    4      2.55      0.00
   -7    8    4      1.42      0.00
   -6    8    4      0.53      0.00
   -5    8    4      2.24      0.00
   -4    8    4    -16.35      0.00
   -3    8    4    -18.24      0.00
   -2    8    4    -10.70      0.00
   -1    8    4     -2.11      0.00
    0    8    4      0.71      0.00
    1    8    4     10.35      0.00
    2    8    4     -6.19      0.00
    3    8    4    -11.47      0.00
    4    8    4     -4.23      0.00
    5    8    4      5.98      0.00
    6    8    4     -4.53      0.00
    7    8    4     -5.55      0.00
    8    8    4     -1.39      0.00
    9    8    4     -0.59      0.00
   10    8    4     -0.41      0.00
  -10    9    4      0.87      0.00
   -9    9    4      1.99      0.00
   -8    9    4      1.63      0.00
   -7    9    4      2.27      0.00
   -6    9    4      2.84      0.00
   -5    9    4      2.31      0.00
   -4    9    4     -3.69      0.00
   -3    9    4     -2.64      0.00
   -2    9    4    -16.39      0.00
   -1    9    4      0.92      0.00
    0    9    4     -9.43      0.00
    1    9    4     -5.09      0.00
    2    9    4     17.85      0.00
    3    9    4     -8.96      0.00
    4    9    4     13.00      0.00
    5    9    4      3.18      0.00
    6    9    4      2.13      0.00
    7    9    4      3.20      0.00
    8    9    4     -2.42      0.00
    9    9    4      3.14      0.00
   10    9    4     -0.14      0.00
  -10   10    4     -2.10      0.00
   -9   10    4      1.14      0.00
   -8   10    4     -2.22      0.00
   -7   10    4     -0.85      0.00
   -6   10    4      0.70      0.00
   -5   10    4     -2.92      0.00
   -4   10    4     -0.45      0.00
   -3   10    4     -3.54      0.00
   -2   10    4     -3.39      0.00
   -1   10    4      3.48      0.00
    0   10    4    -24.53      0.00
    1   10    4     -2.15      0.00
    2   10    4    -19.69      0.00
    3   10    4     -5.99      0.00
    4   10    4     10.06      0.00
    5   10    4     -1.06      0.00
    6   10    4      2.09      0.00
    7   10    4     -4.26      0.00
    8   10    4      1.65      0.00
    9   10    4      1.81      0.00
   10   10    4      0.03      0.00
  -10   11    4      3.01      0.00
   -9   11    4      2.22      0.00
   -8   11    4      2.22      0.00
   -7   11    4      3.10      0.00
   -6   11    4      2.01      0.00
   -5   11    4     -2.00      0.00
   -4   11    4      1.31      0.00
   -3   11    4     -8.64      0.00
   -2   11    4     11.78      0.00
   -1   11    4      1.97      0.00
    0   11    4     -0.98      0.00
    1   11    4      9.44      0.00
    2   11    4     -6.00      0.00
    3   11    4     -8.94      0.00
    4   11    4     -4.31      0.00
    5   11    4     -2.58      0.00
    6   11    4      3.02      0.00
    7   11    4      0.65      0.00
    8   11    4      3.20      0.00
    9   11    4      3.48      0.00
   10   11    4     -0.66      0.00
  -10   12    4      0.75      0.00
   -9   12    4     -1.17      0.00
   -8   12    4      0.90      0.00
   -7   12    4      2.10      0.00
   -6   12    4     -0.33      0.00
   -5   12    4      4.67      0.00
   -4   12    4     -2.08      0.00
   -3   12    4     -1.34      0.00
   -2   12    4     -5.63      0.00
   -1   12    4     -8.18      0.00
    0   12    4     -5.67      0.00
    1   12    4      1.76      0.00
    2   12    4     -1.30      0.00
    3   12    4      7.17      0.00
    4   12    4     -0.77      0.00
    5   12    4     -3.64      0.00
    6   12    4     -1.07      0.00
    7   12    4     -6.04      0.00
    8   12    4      2.85      0.00
    9   12    4      1.30      0.00
   -9   13    4      1.07      0.00
   -8   13    4      2.25      0.00
   -7   13    4     -0.75      0.00
   -6   13    4      3.93      0.00
   -5   13    4     -0.72      0.00
   -4   13    4     -1.43      0.00
   -3   13    4      4.30      0.00
   -2   13    4     -0.97      0.00
   -1   13    4     -1.61      0.00
    0   13    4     -1.14      0.00
    1   13    4      4.29      0.00
    2   13    4     -2.65      0.00
    3   13    4     -1.84      0.00
    4   13    4      0.77      0.00
    5   13    4      4.18      0.00
    6   13    4      3.77      0.00
    7   13    4      0.69      0.00
    8   13    4      2.31      0.00
    9   13    4     -2.16      0.00
   -9   14    4     -0.88      0.00
   -8   14    4      0.49      0.00
   -7   14    4      1.06      0.00
   -6   14    4      3.03      0.00
   -5   14    4      2.07      0.00
   -4   14    4      4.04      0.00
   -3   14    4      1.03      0.00
   -2   14    4     -2.80      0.00
   -1   14    4     -3.18      0.00
    0   14    4     -5.87      0.00
    1   14    4     -0.44      0.00
    2   14    4     -0.55      0.00
    3   14    4      1.06      0.00
    4   14    4     -2.87      0.00
    5   14    4      0.53      0.00
    6   14    4      0.68      0.00
    7   14    4     -0.34      0.00
    8   14    4      3.71      0.00
    9   14    4      0.16      0.00
   -8   15    4     -1.50      0.00
   -7   15    4      2.59      0.00
   -6   15    4     -0.18      0.00
   -5   15    4     -0.03      0.00
   -4   15    4      1.56      0.00
   -3   15    4      1.80      0.00
   -2   15    4      1.90      0.00
   -1   15    4      2.08      0.00
    0   15    4      6.33      0.00
    1   15    4     -0.24      0.00
    2   15    4     -5.68      0.00
    3   15    4     -1.10      0.00
    4   15    4     -0.11      0.00
    5   15    4      2.74      0.00
    6   15    4      3.32      0.00
    7   15    4     -1.15      0.00
    8   15    4      1.03      0.00
   -8   16    4      1.43      0.00
   -7   16    4      1.59      0.00
   -6   16    4     -2.80      0.00
   -5   16    4      3.74      0.00
   -4   16    4     -1.01      0.00
   -3   16    4     -2.56      0.00
   -2   16    4      2.50      0.00
   -1   16    4     -2.31      0.00
    0   16    4      7.31      0.00
    1   16    4      2.28      0.00
    2   16    4      8.19      0.00
    3   16    4      0.97      0.00
    4   16    4     -1.55      0.00
    5   16    4      1.47      0.00
    6   16    4      0.97      0.00
    7   16    4     -0.18      0.00
    8   16    4      0.39      0.00
   -7   17    4      2.09      0.00
   -6   17    4      0.16      0.00
   -5   17    4      3.18      0.00
   -4   17    4     -3.04      0.00
   -3   17    4      2.61      0.00
   -2   17    4     -1.28      0.00
   -1   17    4      0.16      0.00
    0   17    4     -0.15      0.00
    1   17    4     -6.27      0.00
    2   17    4      0.94      0.00
    3   17    4      0.95      0.00
    4   17    4      5.24      0.00
    5   17    4      4.11      0.00
    6   17    4      2.58      0.00
    7   17    4     -1.39      0.00
   -7   18    4     -2.18      0.00
   -6   18    4     -0.69      0.00
   -5   18    4      1.27      0.00
   -4   18    4      0.17      0.00
   -3   18    4     -0.32      0.00
   -2   18    4      5.65      0.00
   -1   18    4      2.25      0.00
    0   18    4      4.93      0.00
    1   18    4      2.57      0.00
    2   18    4      1.00      0.00
    3   18    4     -1.93      0.00
    4   18    4      1.12      0.00
    5   18    4      1.15      0.00
    6   18    4      3.85      0.00
    7   18    4     -0.53      0.00
   -6   19    4     -1.05      0.00
   -5   19    4     -1.01      0.00
   -4   19    4     -0.77      0.00
   -3   19    4      0.31      0.00
   -2   19    4      0.82      0.00
   -1   19    4     -1.11      0.00
    0   19    4      1.54      0.00
    1   19    4     -1.45      0.00
    2   19    4      1.55      0.00
    3   19    4      1.14      0.00
    4   19    4      2.70      0.00
    5   19    4      1.64      0.00
    6   19    4      1.84      0.00
   -5   20    4      0.49      0.00
   -4   20    4      1.92      0.00
   -3   20    4     -1.08      0.00
   -1   20    4     -0.32      0.00
    0   20    4      3.73      0.00
    1   20    4      1.39      0.00
    2   20    4      0.29      0.00
    3   20    4     -0.02      0.00
    4   20    4      1.78      0.00
    5   20    4      0.16      0.00
   -4   21    4     -0.32      0.00
   -3   21    4     -0.04      0.00
   -2   21    4     -0.46      0.00
   -1   21    4     -1.40      0.00
    0   21    4      2.36      0.00
    1   21    4     -1.45      0.00
    2   21    4      1.25      0.00
    3   21    4      0.68      0.00
    4   21    4      2.43      0.00
   -2   22    4      1.14      0.00
   -1   22    4     -0.12      0.00
    0   22    4      0.87      0.00
    1   22    4      1.50      0.00
    2   22    4      0.16      0.00
  -11    0    5      8.35      0.00
   -9    0    5      0.76      0.00
   -7    0    5      3.39      0.00
   -5    0    5     -6.42      0.00
   -3    0    5     -9.98      0.00
   -1    0    5    -52.03      0.00
    1    0    5     74.51      0.00
    3    0    5    -11.50      0.00
    5    0    5    -20.81      0.00
    7    0    5     -2.42      0.00
    9    0    5      3.96      0.00
   11    0    5      1.75      0.00
  -11    1    5     -2.97      0.00
  -10    1    5     -4.19      0.00
   -9    1    5      1.15      0.00
   -8    1    5     -3.88      0.00
   -7    1    5      1.32      0.00
   -6    1    5      5.80      0.00
   -5    1    5      5.95      0.00
   -4    1    5     30.80      0.00
   -3    1    5    -11.36      0.00
   -2    1    5     44.31      0.00
   -1    1    5    -18.53      0.00
    0    1    5     27.75      0.00
    1    1    5     12.81      0.00
    2    1    5    -51.85      0.00
    3    1    5     32.69      0.00
    4    1    5     -6.08      0.00
    5    1    5      7.61      0.00
    6    1    5      1.52      0.00
    7    1    5     -4.51      0.00
    8    1    5     -5.79      0.00
    9    1    5     -1.54      0.00
   10    1    5      3.59      0.00
   11    1    5      0.84      0.00
  -11    2    5      1.44      0.00
  -10    2    5     -0.27      0.00
   -9    2    5     -2.91      0.00
   -8    2    5      2.83      0.00
   -7    2    5     -4.61      0.00
   -6    2    5     -8.69      0.00
   -5    2    5      3.70      0.00
   -4    2    5      3.33      0.00
   -3    2    5     20.12      0.00
   -2    2    5     -4.60      0.00
   -1    2    5    -36.19      0.00
    0    2    5     50.87      0.00
    1    2    5    -17.30      0.00
    2    2    5    -37.74      0.00
    3    2    5     -6.22      0.00
    4    2    5    -13.30      0.00
    5    2    5      3.69      0.00
    6    2    5      1.66      0.00
    7    2    5      4.61      0.00
    8    2    5      2.56      0.00
    9    2    5     -0.47      0.00
   10    2    5     -3.08      0.00
   11    2    5     -0.52      0.00
  -11    3    5      1.47      0.00
  -10    3    5      4.68      0.00
   -9    3    5     -1.55      0.00
   -8    3    5      0.74      0.00
   -7    3    5     -6.41      0.00
   -6    3    5      5.66      0.00
   -5    3    5     -5.80      0.00
   -4    3    5      8.77      0.00
   -3    3    5     -0.32      0.00
   -2    3    5     20.67      0.00
   -1    3    5     54.70      0.00
    0    3    5     32.65      0.00
    1    3    5     19.11      0.00
    2    3    5    -27.65      0.00
    3    3    5      6.65      0.00
    4    3    5     -7.55      0.00
    5    3    5     -0.70      0.00
    6    3    5     -6.06      0.00
    7    3    5     -5.06      0.00
    8    3    5     -1.23      0.00
    9    3    5      1.05      0.00
   10    3    5      4.44      0.00
   11    3    5      2.00      0.00
  -11    4    5     -1.24      0.00
  -10    4    5      1.94      0.00
   -9    4    5     -0.20      0.00
   -8    4    5      2.60      0.00
   -7    4    5     -9.44      0.00
   -6    4    5     -1.21      0.00
   -5    4    5     -2.05      0.00
   -4    4    5      0.88      0.00
   -3    4    5     -6.33      0.00
   -2    4    5     -7.52      0.00
   -1    4    5     10.24      0.00
    0    4    5     10.29      0.00
    1    4    5      0.06      0.00
    2    4    5    -12.23      0.00
    3    4    5     12.40      0.00
    4    4    5     -3.73      0.00
    5    4    5      7.04      0.00
    6    4    5     -3.88      0.00
    7    4    5      0.28      0.00
    8    4    5     -2.02      0.00
    9    4    5     -5.34      0.00
   10    4    5     -2.01      0.00
   11    4    5      1.80      0.00
  -11    5    5      3.48      0.00
  -10    5    5      0.35      0.00
   -9    5    5     -2.37      0.00
   -8    5    5     -1.69      0.00
   -7    5    5     -8.65      0.00
   -6    5    5      4.23      0.00
   -5    5    5     -3.60      0.00
   -4    5    5     -8.00      0.00
   -3    5    5     -2.88      0.00
   -2    5    5     10.01      0.00
   -1    5    5     25.72      0.00
    0    5    5     15.37      0.00
    1    5    5     25.34      0.00
    2    5    5    -17.76      0.00
    3    5    5     20.04      0.00
    4    5    5     -5.36      0.00
    5    5    5     -0.67      0.00
    6    5    5     -5.28      0.00
    7    5    5     -2.75      0.00
    8    5    5      0.59      0.00
    9    5    5     -1.84      0.00
   10    5    5      2.61      0.00
   11    5    5      0.81      0.00
  -11    6    5      1.44      0.00
  -10    6    5      1.77      0.00
   -9    6    5      1.53      0.00
   -8    6    5     -3.29      0.00
   -7    6    5     -5.55      0.00
   -6    6    5      1.05      0.00
   -5    6    5     -0.15      0.00
   -4    6    5     -6.80      0.00
   -3    6    5     14.88      0.00
   -2    6    5     -8.14      0.00
   -1    6    5    -16.11      0.00
    0    6    5    -25.58      0.00
    1    6    5    -19.17      0.00
    2    6    5      8.51      0.00
    3    6    5     11.68      0.00
    4    6    5      3.93      0.00
    5    6    5     13.22      0.00
    6    6    5     -9.26      0.00
    7    6    5      1.69      0.00
    8    6    5     -2.08      0.00
    9    6    5     -2.28      0.00
   10    6    5      0.32      0.00
   11    6    5      1.73      0.00
  -11    7    5      1.77      0.00
  -10    7    5     -1.89      0.00
   -9    7    5      2.19      0.00
   -8    7    5     -3.94      0.00
   -7    7    5     -4.10      0.00
   -6    7    5      0.47      0.00
   -5    7    5    -13.96      0.00
   -4    7    5    -15.65      0.00
   -3    7    5     21.26      0.00
   -2    7    5     -2.13      0.00
   -1    7    5     54.16      0.00
    0    7    5     17.30      0.00
    1    7    5     13.37      0.00
    2    7    5    -11.24      0.00
    3    7    5    -17.08      0.00
    4    7    5     -2.24      0.00
    5    7    5     -4.66      0.00
    6    7    5     -2.44      0.00
    7    7    5     -0.91      0.00
    8    7    5      0.16      0.00
    9    7    5     -0.74      0.00
   10    7    5     -0.86      0.00
   11    7    5     -1.08      0.00
  -11    8    5      0.67      0.00
  -10    8    5      2.04      0.00
   -9    8    5      1.44      0.00
   -8    8    5     -4.85      0.00
   -7    8    5      0.64      0.00
   -6    8    5      3.09      0.00
   -5    8    5     -8.01      0.00
   -4    8    5     -1.54      0.00
   -3    8    5    -12.13      0.00
   -2    8    5    -26.17      0.00
   -1    8    5    -18.20      0.00
    0    8    5    -25.05      0.00
    1    8    5     31.76      0.00
    2    8    5     11.32      0.00
    3    8    5      6.23      0.00
    4    8    5      1.93      0.00
    5    8    5     -3.45      0.00
    6    8    5     -7.97      0.00
    7    8    5     -0.59      0.00
    8    8    5      1.32      0.00
    9    8    5     -0.78      0.00
   10    8    5     -0.47      0.00
  -10    9    5      2.56      0.00
   -9    9    5      1.86      0.00
   -8    9    5     -2.86      0.00
   -7    9    5      1.89      0.00
   -6    9    5     -8.42      0.00
   -5    9    5     -7.67      0.00
   -4    9    5     -1.66      0.00
   -3    9    5      7.14      0.00
   -2    9    5      1.78      0.00
   -1    9    5     17.73      0.00
    0    9    5      2.75      0.00
    1    9    5      8.07      0.00
    2    9    5     -8.33      0.00
    3    9    5      3.46      0.00
    4    9    5      9.73      0.00
    5    9    5      0.80      0.00
    6    9    5      0.53      0.00
    7    9    5     -0.43      0.00
    8    9    5     -1.20      0.00
    9    9    5     -3.80      0.00
   10    9    5     -1.80      0.00
  -10   10    5      1.88      0.00
   -9   10    5     -2.41      0.00
   -8   10    5      1.61      0.00
   -7   10    5      0.75      0.00
   -6   10    5     -1.04      0.00
   -5   10    5      1.06      0.00
   -4   10    5     -4.28      0.00
   -3   10    5     -7.51      0.00
   -2   10    5    -17.73      0.00
   -1   10    5    -14.42      0.00
    0   10    5     -9.46      0.00
    1   10    5      4.06      0.00
    2   10    5    -14.27      0.00
    3   10    5     -2.33      0.00
    4   10    5     -2.60      0.00
    5   10    5      3.48      0.00
    6   10    5      0.91      0.00
    7   10    5      3.34      0.00
    8   10    5      1.30      0.00
    9   10    5     -0.92      0.00
   10   10    5      1.02      0.00
  -10   11    5      2.96      0.00
   -9   11    5     -0.36      0.00
   -8   11    5      3.12      0.00
   -7   11    5     -4.97      0.00
   -6   11    5     -3.01      0.00
   -5   11    5     -2.25      0.00
   -4   11    5     -2.29      0.00
   -3   11    5      5.17      0.00
   -2   11    5     -0.37      0.00
   -1   11    5     21.52      0.00
    0   11    5      2.02      0.00
    1   11    5      7.52      0.00
    2   11    5     -2.52      0.00
    3   11    5     -5.83      0.00
    4   11    5      0.34      0.00
    5   11    5     -1.85      0.00
    6   11    5      0.73      0.00
    7   11    5      1.58      0.00
    8   11    5     -2.16      0.00
    9   11    5     -0.29      0.00
   10   11    5      0.76      0.00
  -10   12    5      1.33      0.00
   -9   12    5      1.20      0.00
   -8   12    5      2.72      0.00
   -7   12    5     -2.46      0.00
   -6   12    5      4.74      0.00
   -5   12    5     -1.64      0.00
   -4   12    5     -3.55      0.00
   -3   12    5     -8.16      0.00
   -2   12    5    -16.57      0.00
   -1   12    5      2.61      0.00
    0   12    5    -11.26      0.00
    1   12    5      7.68      0.00
    2   12    5    -10.87      0.00
    3   12    5      4.06      0.00
    4   12    5     -0.52      0.00
    5   12    5      0.99      0.00
    6   12    5     -0.52      0.00
    7   12    5     -1.52      0.00
    8   12    5     -0.83      0.00
    9   12    5      1.91      0.00
   -9   13    5      1.34      0.00
   -8   13    5      1.90      0.00
   -7   13    5     -0.73      0.00
   -6   13    5      5.02      0.00
   -5   13    5     -2.39      0.00
   -4   13    5      1.34      0.00
   -3   13    5     -4.28      0.00
   -2   13    5      0.38      0.00
   -1   13    5      5.03      0.00
    0   13    5     -3.46      0.00
    1   13    5      5.39      0.00
    2   13    5     -3.02      0.00
    3   13    5      0.00      0.00
    4   13    5      1.38      0.00
    5   13    5      4.06      0.00
    6   13    5     -0.53      0.00
    7   13    5     -1.21      0.00
    8   13    5     -0.90      0.00
    9   13    5      0.70      0.00
   -9   14    5     -2.06      0.00
   -8   14    5      1.00      0.00
   -7   14    5      1.47      0.00
   -6   14    5      3.04      0.00
   -5   14    5      3.06      0.00
   -4   14    5     -3.14      0.00
   -3   14    5      1.48      0.00
   -2   14    5     -9.61      0.00
   -1   14    5      0.65      0.00
    0   14    5    -10.23      0.00
    1   14    5     -5.49      0.00
    2   14    5     -4.12      0.00
    3   14    5     -3.06      0.00
    4   14    5     -0.92      0.00
    5   14    5      1.88      0.00
    6   14    5      0.76      0.00
    7   14    5     -0.54      0.00
    8   14    5      2.56      0.00
    9   14    5      0.79      0.00
   -8   15    5      1.34      0.00
   -7   15    5     -0.37      0.00
   -6   15    5      2.86      0.00
   -5   15    5     -3.91      0.00
   -4   15    5     -0.15      0.00
   -3   15    5      3.35      0.00
   -2   15    5     -0.58      0.00
   -1   15    5     11.04      0.00
    0   15    5     -0.97      0.00
    1   15    5      2.60      0.00
    2   15    5      0.19      0.00
    3   15    5     -5.17      0.00
    4   15    5     -0.57      0.00
    5   15    5     -3.12      0.00
    6   15    5     -3.79      0.00
    7   15    5     -0.44      0.00
    8   15    5      3.76      0.00
   -8   16    5      2.12      0.00
   -7   16    5      2.13      0.00
   -6   16    5      3.09      0.00
   -5   16    5     -0.92      0.00
   -4   16    5     -2.53      0.00
   -3   16    5      0.63      0.00
   -2   16    5     -8.23      0.00
   -1   16    5      1.62      0.00
    0   16    5     -7.82      0.00
    1   16    5      1.26      0.00
    2   16    5      0.71      0.00
    3   16    5     -2.78      0.00
    4   16    5     -0.13      0.00
    5   16    5      0.30      0.00
    6   16    5     -1.78      0.00
    7   16    5     -1.46      0.00
    8   16    5      0.49      0.00
   -7   17    5      1.39      0.00
   -6   17    5      0.90      0.00
   -5   17    5     -1.24      0.00
   -4   17    5      5.04      0.00
   -3   17    5      1.17      0.00
   -2   17    5     -0.93      0.00
   -1   17    5      4.32      0.00
    0   17    5     -2.40      0.00
    1   17    5      1.27      0.00
    2   17    5      2.31      0.00
    3   17    5     -0.87      0.00
    4   17    5     -0.62      0.00
    5   17    5     -1.29      0.00
    6   17    5     -0.20      0.00
    7   17    5      1.04      0.00
   -7   18    5      0.56      0.00
   -6   18    5      0.80      0.00
   -5   18    5      0.75      0.00
   -4   18    5      0.86      0.00
   -3   18    5      2.50      0.00
   -2   18    5     -1.40      0.00
   -1   18    5     -0.92      0.00
    0   18    5     -4.73      0.00
    1   18    5     -3.62      0.00
    2   18    5     -1.29      0.00
    3   18    5     -3.45      0.00
    4   18    5     -1.66      0.00
    5   18    5      1.48      0.00
    6   18    5     -1.76      0.00
   -6   19    5      0.06      0.00
   -5   19    5     -0.46      0.00
   -4   19    5      1.01      0.00
   -3   19    5     -1.41      0.00
   -2   19    5      0.30      0.00
   -1   19    5      6.14      0.00
    0   19    5     -0.69      0.00
    1   19    5      1.46      0.00
    2   19    5      3.07      0.00
    3   19    5     -4.21      0.00
    4   19    5     -0.58      0.00
    5   19    5     -1.32      0.00
    6   19    5      0.40      0.00
   -5   20    5      0.69      0.00
   -4   20    5      1.95      0.00
   -3   20    5     -0.82      0.00
   -2   20    5     -0.12      0.00
   -1   20    5     -2.39      0.00
    0   20    5     -2.02      0.00
    1   20    5      0.21      0.00
    2   20    5     -1.21      0.00
    3   20    5     -0.03      0.00
    4   20    5     -0.04      0.00
    5   20    5      0.49      0.00
   -4   21    5     -1.77      0.00
   -3   21    5     -1.16      0.00
   -2   21    5      2.33      0.00
   -1   21    5      2.14      0.00
    0   21    5     -1.00      0.00
    1   21    5     -0.21      0.00
    2   21    5      1.64      0.00
    3   21    5     -3.05      0.00
    4   21    5     -0.04      0.00
   -2   22    5      0.33      0.00
   -1   22    5     -2.55      0.00
    0   22    5      0.52      0.00
    1   22    5     -0.75      0.00
    2   22    5     -0.97      0.00
  -10    0    6     -6.80      0.00
   -8    0    6     -2.74      0.00
   -6    0    6     -1.31      0.00
   -4    0    6      6.88      0.00
   -2    0    6     26.94      0.00
    2    0    6     23.44      0.00
    4    0    6      9.54      0.00
    6    0    6     -0.54      0.00
    8    0    6      3.28      0.00
   10    0    6      4.01      0.00
  -11    1    6      2.57      0.00
  -10    1    6      1.64      0.00
   -9    1    6      5.35      0.00
   -8    1    6     -0.13      0.00
   -7    1    6      6.33      0.00
   -6    1    6      5.24      0.00
   -5    1    6     -2.46      0.00
   -4    1    6      9.61      0.00
   -3    1    6    -47.40      0.00
   -2    1    6      9.51      0.00
   -1    1    6    -40.84      0.00
    0    1    6    -29.24      0.00
    1    1    6    -46.92      0.00
    2    1    6      5.86      0.00
    3    1    6      5.48      0.00
    4    1    6     -0.98      0.00
    5    1    6      1.75      0.00
    6    1    6     -4.15      0.00
    7    1    6      1.01      0.00
    8    1    6      0.13      0.00
    9    1    6      1.93      0.00
   10    1    6      1.94      0.00
   11    1    6     -1.11      0.00
  -11    2    6      0.07      0.00
  -10    2    6     -7.81      0.00
   -9    2    6     -3.72      0.00
   -8    2    6     -2.05      0.00
   -7    2    6     -3.41      0.00
   -6    2    6     -0.97      0.00
   -5    2    6      5.11      0.00
   -4    2    6     22.79      0.00
   -3    2    6      3.71      0.00
   -2    2    6     38.59      0.00
   -1    2    6    -20.37      0.00
    0    2    6     10.17      0.00
    1    2    6     12.62      0.00
    2    2    6    -11.36      0.00
    3    2    6     10.92      0.00
    4    2    6     11.22      0.00
    5    2    6     -1.98      0.00
    6    2    6      3.40      0.00
    7    2    6     -0.74      0.00
    8    2    6      3.48      0.00
    9    2    6     -0.16      0.00
   10    2    6      1.91      0.00
   11    2    6     -2.47      0.00
  -11    3    6      2.29      0.00
  -10    3    6      1.64      0.00
   -9    3    6     -0.74      0.00
   -8    3    6      0.37      0.00
   -7    3    6      5.73      0.00
   -6    3    6      1.23      0.00
   -5    3    6      0.30      0.00
   -4    3    6      1.48      0.00
   -3    3    6    -27.17      0.00
   -2    3    6     68.46      0.00
   -1    3    6    -42.70      0.00
    0    3    6      4.63      0.00
    1    3    6    -12.32      0.00
    2    3    6    -40.52      0.00
    3    3    6      1.39      0.00
    4    3    6    -30.54      0.00
    5    3    6      1.90      0.00
    6    3    6     -8.08      0.00
    7    3    6      6.76      0.00
    8    3    6      2.82      0.00
    9    3    6      3.35      0.00
   10    3    6      5.03      0.00
   11    3    6     -1.19      0.00
  -11    4    6      2.03      0.00
  -10    4    6     -4.83      0.00
   -9    4    6     -1.03      0.00
   -8    4    6      1.23      0.00
   -7    4    6     -1.93      0.00
   -6    4    6      1.17      0.00
   -5    4    6     12.85      0.00
   -3    4    6     14.29      0.00
   -2    4    6     -6.58      0.00
   -1    4    6    -15.45      0.00
    0    4    6     63.78      0.00
    1    4    6     16.61      0.00
    2    4    6     12.60      0.00
    3    4    6      9.68      0.00
    5    4    6     -3.69      0.00
    6    4    6     -6.04      0.00
    7    4    6      2.84      0.00
    8    4    6     -0.40      0.00
    9    4    6      2.94      0.00
   10    4    6      1.72      0.00
   11    4    6     -1.95      0.00
  -11    5    6     -0.15      0.00
  -10    5    6     -4.18      0.00
   -9    5    6     -0.85      0.00
   -8    5    6      2.72      0.00
   -7    5    6      1.10      0.00
   -6    5    6      6.22      0.00
   -5    5    6      0.28      0.00
   -4    5    6      1.01      0.00
   -3    5    6      6.38      0.00
   -2    5    6     20.41      0.00
   -1    5    6    -22.76      0.00
    0    5    6     -7.20      0.00
    1    5    6     -7.16      0.00
    2    5    6    -25.40      0.00
    3    5    6      9.09      0.00
    4    5    6     -3.74      0.00
    5    5    6      2.44      0.00
    6    5    6     -1.87      0.00
    7    5    6      1.96      0.00
    8    5    6     -0.16      0.00
    9    5    6      1.40      0.00
   10    5    6      2.82      0.00
   11    5    6     -0.40      0.00
  -11    6    6      0.92      0.00
  -10    6    6     -3.95      0.00
   -9    6    6     -0.71      0.00
   -8    6    6     -2.88      0.00
   -7    6    6     -1.22      0.00
   -6    6    6     -1.70      0.00
   -5    6    6      5.40      0.00
   -4    6    6      6.84      0.00
   -3    6    6     12.78      0.00
   -2    6    6      1.38      0.00
   -1    6    6     18.52      0.00
    0    6    6     27.97      0.00
    1    6    6      3.12      0.00
    2    6    6    -21.26      0.00
    3    6    6     -1.47      0.00
    4    6    6      0.50      0.00
    5    6    6     -0.85      0.00
    6    6    6      5.45      0.00
    7    6    6      7.74      0.00
    8    6    6      4.10      0.00
    9    6    6     -0.07      0.00
   10    6    6     -3.21      0.00
   11    6    6     -1.17      0.00
  -11    7    6      0.03      0.00
  -10    7    6      0.22      0.00
   -9    7    6      3.17      0.00
   -8    7    6     -0.21      0.00
   -7    7    6      2.45      0.00
   -6    7    6      1.46      0.00
   -5    7    6     -1.85      0.00
   -4    7    6      0.02      0.00
   -3    7    6     10.18      0.00
   -2    7    6     27.22      0.00
   -1    7    6     -2.95      0.00
    0    7    6     18.64      0.00
    1    7    6     -3.82      0.00
    2    7    6    -32.80      0.00
    3    7    6     15.01      0.00
    4    7    6    -11.51      0.00
    5    7    6     -4.80      0.00
    6    7    6     -5.76      0.00
    7    7    6     -4.57      0.00
    8    7    6      4.27      0.00
    9    7    6      1.70      0.00
   10    7    6      5.07      0.00
  -11    8    6     -1.08      0.00
  -10    8    6     -2.76      0.00
   -9    8    6     -1.99      0.00
   -8    8    6     -1.12      0.00
   -7    8    6     -0.03      0.00
   -6    8    6     -5.36      0.00
   -5    8    6      6.09      0.00
   -4    8    6     -6.94      0.00
   -3    8    6      5.85      0.00
   -2    8    6      5.62      0.00
   -1    8    6      8.59      0.00
    0    8    6     35.64      0.00
    1    8    6     -0.94      0.00
    2    8    6      2.91      0.00
    3    8    6      9.46      0.00
    4    8    6     -1.07      0.00
    5    8    6      5.10      0.00
    6    8    6      1.06      0.00
    7    8    6      4.19      0.00
    8    8    6     -3.34      0.00
    9    8    6     -5.12      0.00
   10    8    6     -1.49      0.00
  -10    9    6     -0.15      0.00
   -9    9    6      1.33      0.00
   -8    9    6     -1.71      0.00
   -7    9    6      1.07      0.00
   -6    9    6      0.88      0.00
   -5    9    6      1.49      0.00
   -4    9    6      0.11      0.00
   -3    9    6     16.12      0.00
   -2    9    6     -2.01      0.00
   -1    9    6     -0.18      0.00
    0    9    6     -3.67      0.00
    1    9    6    -10.13      0.00
    2    9    6     -6.48      0.00
    3    9    6     20.13      0.00
    4    9    6     -3.70      0.00
    5    9    6     -5.28      0.00
    6    9    6     -5.22      0.00
    7    9    6     -0.06      0.00
    8    9    6      1.25      0.00
    9    9    6      1.76      0.00
   10    9    6     -0.28      0.00
  -10   10    6     -2.46      0.00
   -9   10    6      1.48      0.00
   -8   10    6     -2.78      0.00
   -7   10    6     -3.18      0.00
   -6   10    6      0.24      0.00
   -5   10    6     -0.91      0.00
   -4   10    6      1.79      0.00
   -3   10    6      5.99      0.00
   -2   10    6     13.12      0.00
   -1   10    6      2.04      0.00
    0   10    6      5.03      0.00
    1   10    6     -2.97      0.00
    2   10    6     -9.80      0.00
    3   10    6     12.66      0.00
    4   10    6      2.83      0.00
    5   10    6     11.05      0.00
    6   10    6     -2.48      0.00
    7   10    6      2.14      0.00
    8   10    6     -3.81      0.00
    9   10    6      0.78      0.00
   10   10    6     -0.65      0.00
  -10   11    6      1.09      0.00
   -9   11    6      0.43      0.00
   -8   11    6     -2.09      0.00
   -7   11    6      3.34      0.00
   -6   11    6     -3.71      0.00
   -5   11    6     -1.84      0.00
   -4   11    6     -3.09      0.00
   -3   11    6      6.71      0.00
   -2   11    6      9.04      0.00
   -1   11    6      7.07      0.00
    0   11    6      7.63      0.00
    1   11    6      5.54      0.00
    2   11    6     -8.70      0.00
    3   11    6      5.28      0.00
    4   11    6    -16.01      0.00
    5   11    6     -4.17      0.00
    6   11    6     -2.00      0.00
    7   11    6      2.67      0.00
    8   11    6     -0.90      0.00
    9   11    6      3.09      0.00
   10   11    6     -2.97      0.00
   -9   12    6     -1.04      0.00
   -8   12    6     -2.08      0.00
   -7   12    6     -0.14      0.00
   -6   12    6     -0.22      0.00
   -5   12    6      0.54      0.00
   -4   12    6     -3.59      0.00
   -3   12    6     -0.42      0.00
   -2   12    6     -5.05      0.00
   -1   12    6     -9.68      0.00
    0   12    6      4.71      0.00
    1   12    6      3.56      0.00
    2   12    6      4.79      0.00
    3   12    6     18.60      0.00
    4   12    6      4.11      0.00
    5   12    6      0.98      0.00
    6   12    6     -7.29      0.00
    7   12    6     -0.04      0.00
    8   12    6     -1.80      0.00
    9   12    6      1.24      0.00
   -9   13    6     -1.09      0.00
   -8   13    6      2.61      0.00
   -7   13    6     -0.84      0.00
   -6   13    6     -3.29      0.00
   -5   13    6     -1.87      0.00
   -4   13    6     -2.45      0.00
   -3   13    6      8.84      0.00
   -2   13    6      5.78      0.00
   -1   13    6      6.13      0.00
    0   13    6     -2.57      0.00
    1   13    6      1.27      0.00
    2   13    6     -9.68      0.00
    3   13    6     -0.33      0.00
    4   13    6      0.76      0.00
    5   13    6      0.91      0.00
    6   13    6      3.39      0.00
    7   13    6      1.35      0.00
    8   13    6      0.06      0.00
    9   13    6      0.10      0.00
   -9   14    6     -1.91      0.00
   -8   14    6     -0.52      0.00
   -7   14    6     -0.30      0.00
   -6   14    6      0.02      0.00
   -5   14    6     -0.71      0.00
   -4   14    6     -4.01      0.00
   -3   14    6     -3.08      0.00
   -2   14    6     -7.67      0.00
   -1   14    6     -1.29      0.00
    0   14    6     -1.37      0.00
    1   14    6      4.01      0.00
    2   14    6     -6.10      0.00
    3   14    6      8.24      0.00
    4   14    6     -1.16      0.00
    5   14    6     -3.80      0.00
    6   14    6      2.92      0.00
    7   14    6     -0.66      0.00
    8   14    6      1.65      0.00
   -8   15    6     -1.05      0.00
   -7   15    6     -1.92      0.00
   -6   15    6     -3.12      0.00
   -5   15    6     -0.33      0.00
   -4   15    6      0.63      0.00
   -3   15    6      1.80      0.00
   -2   15    6      6.79      0.00
   -1   15    6     -1.73      0.00
    0   15    6      3.05      0.00
    1   15    6      1.07      0.00
    2   15    6     -6.71      0.00
    3   15    6      2.19      0.00
    4   15    6     -3.47      0.00
    5   15    6     -2.89      0.00
    6   15    6      0.49      0.00
    7   15    6     -0.86      0.00
    8   15    6      1.22      0.00
   -8   16    6      1.87      0.00
   -7   16    6      0.89      0.00
   -6   16    6     -1.43      0.00
   -5   16    6      0.47      0.00
   -4   16    6     -6.79      0.00
   -3   16    6      2.32      0.00
   -2   16    6     -6.44      0.00
   -1   16    6     -0.15      0.00
    0   16    6      0.09      0.00
    1   16    6     -2.42      0.00
    2   16    6     -0.69      0.00
    3   16    6      3.85      0.00
    4   16    6     -0.62      0.00
    5   16    6      1.38      0.00
    6   16    6      0.68      0.00
    7   16    6     -2.06      0.00
    8   16    6      1.19      0.00
   -7   17    6      0.13      0.00
   -6   17    6      1.48      0.00
   -5   17    6      0.15      0.00
   -4   17    6     -0.98      0.00
   -3   17    6     -2.49      0.00
   -2   17    6     -0.86      0.00
   -1   17    6     -0.98      0.00
    0   17    6      1.41      0.00
    1   17    6     -0.65      0.00
    2   17    6     -1.54      0.00
    3   17    6     -1.72      0.00
    4   17    6     -1.34      0.00
    5   17    6     -1.28      0.00
    6   17    6     -1.94      0.00
    7   17    6      0.34      0.00
   -7   18    6     -0.37      0.00
   -6   18    6      0.72      0.00
   -5   18    6     -0.09      0.00
   -4   18    6      0.70      0.00
   -3   18    6      2.13      0.00
   -2   18    6     -4.70      0.00
   -1   18    6     -0.73      0.00
    0   18    6     -4.56      0.00
    1   18    6     -1.46      0.00
    2   18    6     -2.00      0.00
    3   18    6      0.16      0.00
    4   18    6      0.60      0.00
    5   18    6      0.44      0.00
    6   18    6     -1.57      0.00
   -6   19    6      0.45      0.00
   -5   19    6     -1.13      0.00
   -4   19    6     -0.32      0.00
   -3   19    6     -2.79      0.00
   -2   19    6      4.08      0.00
   -1   19    6     -1.50      0.00
    0   19    6      1.49      0.00
    1   19    6     -0.82      0.00
    2   19    6     -2.23      0.00
    3   19    6     -2.03      0.00
    4   19    6     -0.23      0.00
    5   19    6     -2.37      0.00
    6   19    6     -1.40      0.00
   -5   20    6      0.59      0.00
   -4   20    6     -3.14      0.00
   -3   20    6     -0.60      0.00
   -2   20    6     -3.05      0.00
   -1   20    6     -1.63      0.00
    0   20    6      0.60      0.00
    1   20    6     -1.93      0.00
    2   20    6      0.37      0.00
    3   20    6      0.20      0.00
    4   20    6      0.51      0.00
    5   20    6     -1.59      0.00
   -4   21    6     -0.19      0.00
   -3   21    6      1.14      0.00
   -2   21    6      0.14      0.00
   -1   21    6     -1.67      0.00
    0   21    6     -0.76      0.00
    1   21    6     -0.40      0.00
    2   21    6     -0.49      0.00
    3   21    6     -2.11      0.00
   -2   22    6     -1.24      0.00
   -1   22    6     -0.35      0.00
    0   22    6      0.58      0.00
    1   22    6     -2.16      0.00
  -11    0    7     -0.75      0.00
   -9    0    7      1.91      0.00
   -7    0    7      1.45      0.00
   -5    0    7    -32.06      0.00
   -3    0    7    -31.86      0.00
   -1    0    7     37.84      0.00
    1    0    7    -28.55      0.00
    3    0    7    -45.14      0.00
    5    0    7     -4.96      0.00
    7    0    7      0.88      0.00
    9    0    7     -0.08      0.00
   11    0    7     -1.22      0.00
  -11    1    7     -0.23      0.00
  -10    1    7      0.28      0.00
   -9    1    7      0.14      0.00
   -8    1    7     -1.58      0.00
   -7    1    7      3.65      0.00
   -6    1    7      6.11      0.00
   -5    1    7     -0.11      0.00
   -4    1    7     15.28      0.00
   -3    1    7    -32.21      0.00
   -2    1    7    -42.43      0.00
   -1    1    7    -22.50      0.00
    0    1    7      9.47      0.00
    1    1    7     12.13      0.00
    2    1    7     60.86      0.00
    3    1    7     17.77      0.00
    4    1    7     18.26      0.00
    5    1    7      3.89      0.00
    6    1    7      3.31      0.00
    7    1    7      2.95      0.00
    8    1    7     -3.24      0.00
    9    1    7      0.67      0.00
   10    1    7     -2.55      0.00
   11    1    7     -0.69      0.00
  -11    2    7      0.05      0.00
  -10    2    7     -2.46      0.00
   -9    2    7      2.02      0.00
   -8    2    7      0.70      0.00
   -7    2    7     -1.05      0.00
   -6    2    7     -0.83      0.00
   -5    2    7    -10.75      0.00
   -4    2    7     20.72      0.00
   -3    2    7     -0.76      0.00
   -2    2    7     15.76      0.00
   -1    2    7     13.93      0.00
    0    2    7    -33.20      0.00
    1    2    7    -82.53      0.00
    2    2    7    -43.97      0.00
    3    2    7    -19.58      0.00
    4    2    7     10.29      0.00
    5    2    7      2.60      0.00
    6    2    7     -0.09      0.00
    7    2    7      2.88      0.00
    8    2    7     -2.16      0.00
    9    2    7      1.58      0.00
   10    2    7     -3.24      0.00
   11    2    7     -0.86      0.00
  -11    3    7      2.25      0.00
  -10    3    7      0.70      0.00
   -9    3    7     -0.24      0.00
   -8    3    7     -1.00      0.00
   -7    3    7      3.60      0.00
   -6    3    7     -1.85      0.00
   -5    3    7    -11.95      0.00
   -4    3    7     -4.12      0.00
   -3    3    7    -27.85      0.00
   -2    3    7     -0.36      0.00
   -1    3    7     17.47      0.00
    0    3    7     13.61      0.00
    1    3    7      7.93      0.00
    2    3    7     25.10      0.00
    3    3    7    -12.16      0.00
    4    3    7      0.38      0.00
    5    3    7     -0.54      0.00
    6    3    7      3.88      0.00
    7    3    7      5.52      0.00
    8    3    7     -4.40      0.00
    9    3    7      2.59      0.00
   10    3    7     -5.29      0.00
   11    3    7     -1.17      0.00
  -11    4    7     -1.82      0.00
  -10    4    7     -0.51      0.00
   -9    4    7      2.48      0.00
   -8    4    7      0.03      0.00
   -7    4    7     -0.85      0.00
   -6    4    7      7.03      0.00
   -5    4    7     -1.01      0.00
   -4    4    7      9.54      0.00
   -3    4    7    -18.40      0.00
   -2    4    7     -7.20      0.00
   -1    4    7      4.56      0.00
    0    4    7    -32.70      0.00
    1    4    7    -33.53      0.00
    2    4    7     -3.39      0.00
    3    4    7     24.27      0.00
    4    4    7      0.19      0.00
    5    4    7    -11.70      0.00
    6    4    7     -4.08      0.00
    7    4    7     -3.59      0.00
    8    4    7      0.93      0.00
    9    4    7      1.78      0.00
   10    4    7     -1.04      0.00
   11    4    7      1.00      0.00
  -11    5    7     -0.59      0.00
  -10    5    7      1.80      0.00
   -9    5    7     -3.00      0.00
   -8    5    7      1.77      0.00
   -7    5    7      3.09      0.00
   -6    5    7      0.96      0.00
   -5    5    7      1.50      0.00
   -4    5    7      4.09      0.00
   -3    5    7      2.74      0.00
   -2    5    7      9.22      0.00
   -1    5    7    -34.55      0.00
    0    5    7     -9.07      0.00
    1    5    7    -27.02      0.00
    2    5    7     10.69      0.00
    3    5    7      6.54      0.00
    4    5    7      4.55      0.00
    5    5    7     12.11      0.00
    6    5    7      2.61      0.00
    7    5    7      2.46      0.00
    8    5    7     -4.07      0.00
    9    5    7     -2.53      0.00
   10    5    7     -1.36      0.00
   11    5    7     -0.67      0.00
  -11    6    7     -1.93      0.00
  -10    6    7      1.20      0.00
   -9    6    7     -3.80      0.00
   -8    6    7      0.80      0.00
   -7    6    7     -0.72      0.00
   -6    6    7      5.29      0.00
   -5    6    7      0.34      0.00
   -4    6    7      1.97      0.00
   -3    6    7     14.03      0.00
   -2    6    7    -13.76      0.00
   -1    6    7     20.45      0.00
    0    6    7    -16.32      0.00
    1    6    7    -44.01      0.00
    2    6    7     22.12      0.00
    3    6    7     -8.42      0.00
    4    6    7    -10.49      0.00
    5    6    7     -6.07      0.00
    6    6    7      1.63      0.00
    7    6    7      5.14      0.00
    8    6    7      0.94      0.00
    9    6    7     -0.65      0.00
   10    6    7     -0.87      0.00
   11    6    7     -1.04      0.00
  -11    7    7      1.41      0.00
  -10    7    7      0.39      0.00
   -9    7    7     -3.07      0.00
   -8    7    7      2.72      0.00
   -7    7    7      0.76      0.00
   -6    7    7      5.04      0.00
   -5    7    7     -5.41      0.00
   -4    7    7     10.88      0.00
   -3    7    7      9.00      0.00
   -2    7    7    -12.23      0.00
   -1    7    7      2.11      0.00
    0    7    7     -8.31      0.00
    1    7    7    -11.34      0.00
    2    7    7     19.30      0.00
    3    7    7    -11.04      0.00
    4    7    7      2.90      0.00
    5    7    7     -1.87      0.00
    6    7    7     -2.04      0.00
    7    7    7      3.13      0.00
    8    7    7      0.77      0.00
    9    7    7      2.80      0.00
   10    7    7      2.00      0.00
  -10    8    7     -0.61      0.00
   -9    8    7      0.94      0.00
   -8    8    7      2.28      0.00
   -7    8    7      2.82      0.00
   -6    8    7      4.26      0.00
   -5    8    7      1.98      0.00
   -4    8    7     11.32      0.00
   -3    8    7     -2.88      0.00
   -2    8    7     -9.90      0.00
   -1    8    7     24.04      0.00
    0    8    7    -19.35      0.00
    1    8    7      3.81      0.00
    2    8    7     12.57      0.00
    3    8    7    -15.70      0.00
    4    8    7     -2.96      0.00
    5    8    7     -2.07      0.00
    6    8    7      1.52      0.00
    7    8    7      0.19      0.00
    8    8    7     -5.33      0.00
    9    8    7     -1.23      0.00
   10    8    7     -0.28      0.00
  -10    9    7     -4.03      0.00
   -9    9    7     -2.27      0.00
   -8    9    7     -0.92      0.00
   -7    9    7      2.40      0.00
   -6    9    7     -0.61      0.00
   -5    9    7     -0.20      0.00
   -4    9    7     14.15      0.00
   -3    9    7     -6.45      0.00
   -2    9    7     -3.65      0.00
   -1    9    7     -7.05      0.00
    0    9    7     -6.82      0.00
    1    9    7      2.41      0.00
    2    9    7      7.91      0.00
    3    9    7      7.68      0.00
    4    9    7     -1.51      0.00
    5    9    7      3.94      0.00
    6    9    7     -0.13      0.00
    7    9    7      5.30      0.00
    8    9    7     -1.24      0.00
    9    9    7      1.65      0.00
   10    9    7     -1.12      0.00
  -10   10    7     -2.33      0.00
   -9   10    7      0.94      0.00
   -8   10    7     -0.40      0.00
   -7   10    7      0.19      0.00
   -6   10    7      1.03      0.00
   -5   10    7      6.94      0.00
   -4   10    7      4.97      0.00
   -3   10    7      6.84      0.00
   -2   10    7      5.05      0.00
   -1   10    7      9.84      0.00
    0   10    7     -6.04      0.00
    1   10    7     -8.09      0.00
    2   10    7     -7.00      0.00
    3   10    7    -12.75      0.00
    4   10    7      2.59      0.00
    5   10    7      3.97      0.00
    6   10    7     -2.18      0.00
    7   10    7      3.34      0.00
    8   10    7     -3.52      0.00
    9   10    7      0.50      0.00
   10   10    7     -1.23      0.00
  -10   11    7     -1.94      0.00
   -9   11    7     -1.46      0.00
   -8   11    7     -0.39      0.00
   -7   11    7     -2.97      0.00
   -6   11    7     -1.12      0.00
   -5   11    7     -1.47      0.00
   -4   11    7      2.42      0.00
   -3   11    7      0.22      0.00
   -2   11    7     -3.00      0.00
   -1   11    7     13.07      0.00
    0   11    7     -2.57      0.00
    1   11    7      7.33      0.00
    2   11    7      0.65      0.00
    3   11    7     -0.61      0.00
    4   11    7     -4.98      0.00
    5   11    7     -0.96      0.00
    6   11    7     -0.75      0.00
    7   11    7     -1.00      0.00
    8   11    7     -2.40      0.00
    9   11    7      3.69      0.00
   -9   12    7      1.29      0.00
   -8   12    7     -1.35      0.00
   -7   12    7     -1.24      0.00
   -6   12    7      4.76      0.00
   -5   12    7     -1.26      0.00
   -4   12    7      5.59      0.00
   -3   12    7     -0.56      0.00
   -2   12    7      1.80      0.00
   -1   12    7      8.56      0.00
    0   12    7      0.48      0.00
    1   12    7      8.01      0.00
    2   12    7     -1.25      0.00
    3   12    7      6.58      0.00
    4   12    7      3.43      0.00
    5   12    7     -1.64      0.00
    6   12    7     -2.44      0.00
    7   12    7     -0.12      0.00
    8   12    7     -3.96      0.00
    9   12    7     -1.63      0.00
   -9   13    7     -4.32      0.00
   -8   13    7     -2.10      0.00
   -7   13    7     -2.43      0.00
   -6   13    7     -2.60      0.00
   -5   13    7     -0.55      0.00
   -4   13    7      0.21      0.00
   -3   13    7      2.82      0.00
   -2   13    7     -1.37      0.00
   -1   13    7     -2.18      0.00
    0   13    7    -10.27      0.00
    1   13    7      1.02      0.00
    2   13    7     -1.56      0.00
    3   13    7      4.85      0.00
    4   13    7      0.61      0.00
    5   13    7      1.72      0.00
    6   13    7      0.98      0.00
    7   13    7     -3.57      0.00
    8   13    7      1.25      0.00
    9   13    7     -0.42      0.00
   -9   14    7     -0.26      0.00
   -8   14    7     -2.06      0.00
   -7   14    7     -2.14      0.00
   -6   14    7      0.67      0.00
   -5   14    7     -0.88      0.00
   -4   14    7      1.43      0.00
   -3   14    7      4.34      0.00
   -2   14    7      4.05      0.00
   -1   14    7     10.16      0.00
    0   14    7      2.35      0.00
    1   14    7     -2.18      0.00
    2   14    7      0.01      0.00
    3   14    7      2.93      0.00
    4   14    7      0.39      0.00
    5   14    7      1.17      0.00
    6   14    7     -0.25      0.00
    7   14    7     -1.09      0.00
    8   14    7      0.52      0.00
   -8   15    7     -0.81      0.00
   -7   15    7     -3.02      0.00
   -6   15    7     -1.66      0.00
   -5   15    7     -2.48      0.00
   -4   15    7     -2.15      0.00
   -3   15    7      4.81      0.00
   -2   15    7     -5.32      0.00
   -1   15    7      4.21      0.00
    0   15    7     -2.87      0.00
    1   15    7      6.10      0.00
    2   15    7     -0.37      0.00
    3   15    7     -4.34      0.00
    4   15    7     -0.49      0.00
    5   15    7     -2.26      0.00
    6   15    7     -0.36      0.00
    7   15    7      0.13      0.00
    8   15    7      0.81      0.00
   -8   16    7     -3.67      0.00
   -7   16    7      0.28      0.00
   -6   16    7     -0.83      0.00
   -5   16    7     -3.13      0.00
   -4   16    7      4.19      0.00
   -3   16    7     -1.37      0.00
   -2   16    7      0.17      0.00
   -1   16    7      4.32      0.00
    0   16    7     -4.61      0.00
    1   16    7      5.34      0.00
    2   16    7      4.14      0.00
    3   16    7      6.65      0.00
    4   16    7      3.35      0.00
    5   16    7     -1.03      0.00
    6   16    7     -2.09      0.00
    7   16    7     -0.74      0.00
   -7   17    7      2.54      0.00
   -6   17    7     -2.23      0.00
   -5   17    7      0.44      0.00
   -4   17    7      0.67      0.00
   -3   17    7     -0.17      0.00
   -2   17    7      2.62      0.00
   -1   17    7     -0.07      0.00
    0   17    7     -0.30      0.00
    1   17    7     -0.43      0.00
    2   17    7     -6.62      0.00
    3   17    7     -0.43      0.00
    4   17    7      0.83      0.00
    5   17    7      0.83      0.00
    6   17    7      1.89      0.00
    7   17    7      2.12      0.00
   -6   18    7     -2.59      0.00
   -5   18    7      2.21      0.00
   -4   18    7     -0.48      0.00
   -3   18    7     -0.37      0.00
   -2   18    7      0.96      0.00
   -1   18    7      1.05      0.00
    0   18    7      1.47      0.00
    1   18    7      3.86      0.00
    2   18    7      3.28      0.00
    3   18    7      0.67      0.00
    4   18    7     -1.17      0.00
    5   18    7     -0.74      0.00
    6   18    7      0.15      0.00
   -6   19    7     -0.67      0.00
   -5   19    7     -0.72      0.00
   -4   19    7     -0.23      0.00
   -3   19    7      1.94      0.00
   -2   19    7     -0.65      0.00
   -1   19    7     -0.36      0.00
    0   19    7      0.74      0.00
    1   19    7     -1.13      0.00
    2   19    7     -1.00      0.00
    3   19    7      0.73      0.00
    4   19    7     -0.61      0.00
    5   19    7     -1.66      0.00
   -5   20    7     -1.27      0.00
   -4   20    7     -0.20      0.00
   -3   20    7      2.40      0.00
   -2   20    7      0.47      0.00
   -1   20    7      1.91      0.00
    0   20    7     -0.57      0.00
    1   20    7      2.34      0.00
    2   20    7      1.18      0.00
    3   20    7     -1.48      0.00
    4   20    7      0.98      0.00
   -3   21    7     -1.46      0.00
   -2   21    7      0.50      0.00
   -1   21    7     -0.04      0.00
    0   21    7      2.30      0.00
    1   21    7      0.24      0.00
    2   21    7     -0.93      0.00
    3   21    7     -0.11      0.00
   -1   22    7     -0.48      0.00
    0   22    7     -0.21      0.00
    1   22    7      0.00      0.00
  -10    0    8      1.30      0.00
   -8    0    8     -0.10      0.00
   -6    0    8      0.06      0.00
   -4    0    8     11.18      0.00
   -2    0    8     74.13      0.00
    2    0    8     57.92      0.00
    4    0    8     28.95      0.00
    6    0    8      3.95      0.00
    8    0    8     -5.88      0.00
   10    0    8      1.15      0.00
  -11    1    8      2.37      0.00
  -10    1    8     -5.08      0.00
   -9    1    8      3.94      0.00
   -8    1    8     -2.23      0.00
   -7    1    8     -2.05      0.00
   -6    1    8     -0.82      0.00
   -5    1    8     -2.82      0.00
   -4    1    8      8.80      0.00
   -3    1    8    -21.26      0.00
   -2    1    8      5.82      0.00
   -1    1    8    -20.85      0.00
    0    1    8    -17.00      0.00
    1    1    8      3.61      0.00
    2    1    8    -11.43      0.00
    3    1    8    -20.09      0.00
    4    1    8      2.50      0.00
    5    1    8    -14.80      0.00
    6    1    8      5.14      0.00
    7    1    8     -7.71      0.00
    8    1    8     -0.72      0.00
    9    1    8     -1.45      0.00
   10    1    8     -2.66      0.00
   11    1    8      2.50      0.00
  -11    2    8      3.30      0.00
  -10    2    8      1.26      0.00
   -9    2    8      2.32      0.00
   -8    2    8     -2.15      0.00
   -7    2    8      1.86      0.00
   -6    2    8     -4.98      0.00
   -5    2    8     -6.69      0.00
   -4    2    8     11.10      0.00
   -3    2    8    -16.23      0.00
   -2    2    8     71.53      0.00
   -1    2    8    -55.77      0.00
    0    2    8     15.59      0.00
    1    2    8     42.65      0.00
    2    2    8     17.02      0.00
    3    2    8     24.33      0.00
    4    2    8      8.48      0.00
    5    2    8     -1.92      0.00
    6    2    8     10.05      0.00
    7    2    8      1.05      0.00
    8    2    8      1.76      0.00
    9    2    8      2.08      0.00
   10    2    8      0.50      0.00
   11    2    8     -0.25      0.00
  -11    3    8     -2.06      0.00
  -10    3    8     -1.13      0.00
   -9    3    8      4.24      0.00
   -8    3    8      0.84      0.00
   -7    3    8      1.11      0.00
   -6    3    8     -5.71      0.00
   -5    3    8      7.66      0.00
   -4    3    8      7.18      0.00
   -3    3    8     -2.03      0.00
   -2    3    8     15.54      0.00
   -1    3    8    -50.94      0.00
    0    3    8     21.09      0.00
    1    3    8    -22.58      0.00
    2    3    8    -17.65      0.00
    3    3    8     -6.80      0.00
    4    3    8    -16.42      0.00
    6    3    8     -1.59      0.00
    7    3    8     -6.18      0.00
    8    3    8     -3.82      0.00
    9    3    8     -4.18      0.00
   10    3    8     -0.35      0.00
   11    3    8      1.60      0.00
  -11    4    8     -1.14      0.00
  -10    4    8      3.00      0.00
   -9    4    8     -2.66      0.00
   -8    4    8      0.66      0.00
   -7    4    8     -2.91      0.00
   -6    4    8     -6.67      0.00
   -5    4    8    -13.25      0.00
   -3    4    8     -7.74      0.00
   -2    4    8     14.85      0.00
   -1    4    8    -17.24      0.00
    0    4    8     68.19      0.00
    1    4    8      6.05      0.00
    2    4    8     32.41      0.00
    3    4    8      0.79      0.00
    4    4    8     -8.64      0.00
    5    4    8      4.69      0.00
    6    4    8      5.48      0.00
    7    4    8      5.44      0.00
    8    4    8      1.18      0.00
    9    4    8      0.17      0.00
   10    4    8     -0.33      0.00
   11    4    8     -3.66      0.00
  -11    5    8      0.28      0.00
  -10    5    8      3.11      0.00
   -9    5    8      1.12      0.00
   -8    5    8      5.46      0.00
   -7    5    8     -1.89      0.00
   -6    5    8      3.10      0.00
   -5    5    8     10.66      0.00
   -4    5    8      8.17      0.00
   -3    5    8    -12.81      0.00
   -2    5    8    -46.62      0.00
   -1    5    8    -35.88      0.00
    0    5    8    -13.70      0.00
    1    5    8    -15.77      0.00
    2    5    8     28.58      0.00
    3    5    8     -4.73      0.00
    4    5    8     14.83      0.00
    5    5    8      1.62      0.00
    6    5    8     -4.08      0.00
    7    5    8     -5.47      0.00
    8    5    8     -8.97      0.00
    9    5    8     -0.48      0.00
   10    5    8      0.59      0.00
   11    5    8      0.33      0.00
  -11    6    8     -0.19      0.00
  -10    6    8      0.20      0.00
   -9    6    8     -2.57      0.00
   -8    6    8      0.56      0.00
   -7    6    8     -6.32      0.00
   -6    6    8     -5.59      0.00
   -5    6    8     -8.72      0.00
   -4    6    8     13.06      0.00
   -3    6    8      0.71      0.00
   -2    6    8     29.67      0.00
   -1    6    8     21.62      0.00
    0    6    8    -12.96      0.00
    1    6    8    -23.07      0.00
    2    6    8    -14.03      0.00
    3    6    8    -15.50      0.00
    4    6    8      5.35      0.00
    5    6    8      7.66      0.00
    6    6    8     12.49      0.00
    7    6    8      2.82      0.00
    8    6    8     -0.31      0.00
    9    6    8     -1.75      0.00
   10    6    8     -3.52      0.00
  -11    7    8      3.34      0.00
  -10    7    8     -1.37      0.00
   -9    7    8      0.91      0.00
   -8    7    8      3.00      0.00
   -7    7    8     -0.70      0.00
   -6    7    8      0.69      0.00
   -5    7    8      2.68      0.00
   -4    7    8    -11.22      0.00
   -3    7    8    -30.34      0.00
   -2    7    8     -9.20      0.00
   -1    7    8    -15.22      0.00
    0    7    8     14.67      0.00
    1    7    8     13.54      0.00
    2    7    8     10.89      0.00
    3    7    8     -5.27      0.00
    4    7    8     -1.38      0.00
    5    7    8     -5.50      0.00
    6    7    8     -5.65      0.00
    7    7    8     -3.05      0.00
    8    7    8     -1.95      0.00
    9    7    8      2.05      0.00
   10    7    8      0.47      0.00
  -10    8    8     -2.08      0.00
   -9    8    8      1.66      0.00
   -8    8    8     -0.75      0.00
   -7    8    8     -2.61      0.00
   -6    8    8      0.13      0.00
   -5    8    8      6.19      0.00
   -4    8    8     -0.25      0.00
   -3    8    8      1.97      0.00
   -2    8    8      9.53      0.00
   -1    8    8    -11.03      0.00
    0    8    8    -24.29      0.00
    1    8    8    -11.20      0.00
    2    8    8      6.11      0.00
    3    8    8      8.61      0.00
    4    8    8      6.09      0.00
    5    8    8      2.51      0.00
    6    8    8      2.00      0.00
    7    8    8     -4.79      0.00
    8    8    8     -1.44      0.00
    9    8    8      0.44      0.00
   10    8    8     -1.40      0.00
  -10    9    8     -5.11      0.00
   -9    9    8      3.85      0.00
   -8    9    8      1.02      0.00
   -7    9    8     -0.71      0.00
   -6    9    8      3.91      0.00
   -5    9    8     -1.95      0.00
   -4    9    8     -4.24      0.00
   -3    9    8     -7.95      0.00
   -2    9    8     -2.90      0.00
   -1    9    8    -12.30      0.00
    0    9    8      1.96      0.00
    1    9    8     -6.37      0.00
    2    9    8      2.29      0.00
    3    9    8      1.20      0.00
    4    9    8      1.80      0.00
    5    9    8      4.30      0.00
    6    9    8     -1.30      0.00
    7    9    8      0.19      0.00
    8    9    8      0.87      0.00
    9    9    8     -1.85      0.00
   10    9    8     -1.78      0.00
  -10   10    8     -3.40      0.00
   -9   10    8      2.10      0.00
   -8   10    8     -3.31      0.00
   -7   10    8      1.66      0.00
   -6   10    8      2.60      0.00
   -5   10    8     -0.29      0.00
   -4   10    8      0.47      0.00
   -3   10    8      3.74      0.00
   -2   10    8      0.00      0.00
   -1   10    8    -12.48      0.00
    0   10    8    -16.43      0.00
    1   10    8      0.26      0.00
    2   10    8     -2.62      0.00
    3   10    8      2.30      0.00
    4   10    8     -7.05      0.00
    5   10    8      0.94      0.00
    6   10    8      0.03      0.00
    7   10    8      1.61      0.00
    8   10    8      2.59      0.00
    9   10    8      0.05      0.00
   10   10    8     -0.86      0.00
  -10   11    8     -0.13      0.00
   -9   11    8      1.01      0.00
   -8   11    8     -0.32      0.00
   -7   11    8      1.33      0.00
   -6   11    8     -0.70      0.00
   -5   11    8     -0.50      0.00
   -4   11    8      3.57      0.00
   -3   11    8     -1.70      0.00
   -2   11    8      4.85      0.00
   -1   11    8     -5.12      0.00
    0   11    8      7.18      0.00
    1   11    8     -5.86      0.00
    2   11    8      5.09      0.00
    3   11    8      2.78      0.00
    4   11    8     -7.50      0.00
    5   11    8      3.14      0.00
    6   11    8     -6.67      0.00
    7   11    8      3.28      0.00
    8   11    8      1.12      0.00
    9   11    8     -0.30      0.00
   -9   12    8      1.24      0.00
   -8   12    8      2.16      0.00
   -7   12    8      1.13      0.00
   -6   12    8     -0.40      0.00
   -5   12    8      1.14      0.00
   -4   12    8     -4.63      0.00
   -3   12    8      3.06      0.00
   -2   12    8    -12.15      0.00
   -1   12    8     -3.58      0.00
    0   12    8      0.82      0.00
    1   12    8      0.28      0.00
    2   12    8      4.39      0.00
    3   12    8     -3.50      0.00
    4   12    8     -3.68      0.00
    5   12    8     -0.20      0.00
    6   12    8     -2.83      0.00
    7   12    8      2.69      0.00
    8   12    8     -4.36      0.00
    9   12    8     -1.03      0.00
   -9   13    8     -1.93      0.00
   -8   13    8      3.68      0.00
   -7   13    8     -2.55      0.00
   -6   13    8      3.23      0.00
   -5   13    8      4.01      0.00
   -4   13    8      4.49      0.00
   -3   13    8      4.99      0.00
   -2   13    8    -10.09      0.00
   -1   13    8      2.59      0.00
    0   13    8     -7.48      0.00
    1   13    8      2.99      0.00
    2   13    8      7.97      0.00
    3   13    8      2.27      0.00
    4   13    8      2.04      0.00
    5   13    8      2.43      0.00
    6   13    8     -1.29      0.00
    7   13    8      2.82      0.00
    8   13    8     -1.28      0.00
    9   13    8     -1.37      0.00
   -9   14    8      0.13      0.00
   -8   14    8     -1.79      0.00
   -7   14    8     -1.76      0.00
   -6   14    8      2.36      0.00
   -5   14    8     -1.10      0.00
   -4   14    8      4.30      0.00
   -3   14    8      2.44      0.00
   -2   14    8     -1.01      0.00
   -1   14    8      6.87      0.00
    0   14    8     -6.74      0.00
    1   14    8     -2.02      0.00
    2   14    8     -7.22      0.00
    3   14    8     -4.23      0.00
    4   14    8     -3.46      0.00
    5   14    8     -1.77      0.00
    6   14    8      0.60      0.00
    7   14    8      1.66      0.00
    8   14    8     -2.38      0.00
   -8   15    8      1.70      0.00
   -7   15    8     -1.79      0.00
   -6   15    8      0.05      0.00
   -5   15    8      1.64      0.00
   -4   15    8     -1.57      0.00
   -3   15    8     -1.25      0.00
   -2   15    8     -4.75      0.00
   -1   15    8      5.53      0.00
    0   15    8      1.02      0.00
    1   15    8      9.82      0.00
    2   15    8      2.53      0.00
    3   15    8      4.52      0.00
    4   15    8     -0.95      0.00
    5   15    8     -1.61      0.00
    6   15    8     -1.37      0.00
    7   15    8     -1.34      0.00
    8   15    8     -1.70      0.00
   -8   16    8      0.23      0.00
   -7   16    8      3.04      0.00
   -6   16    8      1.40      0.00
   -5   16    8      3.54      0.00
   -4   16    8      0.20      0.00
   -3   16    8      2.00      0.00
   -2   16    8     -0.10      0.00
   -1   16    8      0.36      0.00
    0   16    8     -2.52      0.00
    1   16    8     -1.15      0.00
    2   16    8      0.06      0.00
    3   16    8      1.85      0.00
    4   16    8     -2.12      0.00
    5   16    8      0.80      0.00
    6   16    8     -1.03      0.00
    7   16    8     -0.14      0.00
   -7   17    8     -1.55      0.00
   -6   17    8      1.12      0.00
   -5   17    8     -0.20      0.00
   -4   17    8     -3.74      0.00
   -3   17    8      5.38      0.00
   -2   17    8     -5.96      0.00
   -1   17    8      5.66      0.00
    0   17    8     -2.51      0.00
    1   17    8      2.53      0.00
    2   17    8      1.68      0.00
    3   17    8      4.70      0.00
    4   17    8     -0.50      0.00
    5   17    8      1.09      0.00
    6   17    8     -0.22      0.00
    7   17    8     -0.33      0.00
   -6   18    8      0.05      0.00
   -5   18    8     -1.20      0.00
   -4   18    8      0.80      0.00
   -3   18    8      2.16      0.00
   -2   18    8      0.27      0.00
   -1   18    8      3.89      0.00
    0   18    8     -2.12      0.00
    1   18    8     -0.27      0.00
    2   18    8     -1.57      0.00
    3   18    8     -0.32      0.00
    4   18    8     -1.17      0.00
    5   18    8      1.35      0.00
    6   18    8     -1.04      0.00
   -6   19    8     -1.05      0.00
   -5   19    8     -0.92      0.00
   -4   19    8      0.45      0.00
   -3   19    8      1.18      0.00
   -2   19    8     -3.48      0.00
   -1   19    8      5.15      0.00
    0   19    8      0.49      0.00
    1   19    8      1.52      0.00
    2   19    8      3.33      0.00
    3   19    8      2.34      0.00
    4   19    8     -2.46      0.00
    5   19    8      0.12      0.00
   -5   20    8     -1.00      0.00
   -4   20    8      0.64      0.00
   -3   20    8      1.91      0.00
   -2   20    8     -0.91      0.00
   -1   20    8      0.64      0.00
    0   20    8     -2.16      0.00
    1   20    8     -0.13      0.00
    2   20    8      1.29      0.00
    3   20    8     -0.05      0.00
    4   20    8      2.64      0.00
   -3   21    8     -0.62      0.00
   -2   21    8     -0.80      0.00
   -1   21    8      4.06      0.00
    0   21    8     -0.74      0.00
    1   21    8     -1.72      0.00
    2   21    8      2.52      0.00
    3   21    8     -0.04      0.00
   -1   22    8      0.98      0.00
    0   22    8     -1.10      0.00
  -11    0    9     -0.23      0.00
   -9    0    9      1.20      0.00
   -7    0    9      0.48      0.00
   -5    0    9      3.31      0.00
   -3    0    9    -15.36      0.00
   -1    0    9    -41.75      0.00
    1    0    9      8.71      0.00
    3    0    9     -4.86      0.00
    5    0    9     -4.67      0.00
    7    0    9    -11.84      0.00
    9    0    9     -0.72      0.00
   11    0    9      4.00      0.00
  -11    1    9     -1.64      0.00
  -10    1    9     -2.42      0.00
   -9    1    9      1.46      0.00
   -8    1    9     -2.96      0.00
   -7    1    9     -0.73      0.00
   -6    1    9      3.77      0.00
   -5    1    9      3.98      0.00
   -4    1    9      2.87      0.00
   -3    1    9     -3.40      0.00
   -2    1    9      5.77      0.00
   -1    1    9    -13.98      0.00
    0    1    9     37.80      0.00
    1    1    9    -28.03      0.00
    2    1    9      9.54      0.00
    3    1    9     13.47      0.00
    4    1    9      3.46      0.00
    5    1    9      7.90      0.00
    6    1    9      4.02      0.00
    7    1    9     -0.74      0.00
    8    1    9      9.19      0.00
    9    1    9     -4.06      0.00
   10    1    9     -1.14      0.00
   11    1    9      0.35      0.00
  -11    2    9     -1.42      0.00
  -10    2    9     -0.34      0.00
   -9    2    9     -3.18      0.00
   -8    2    9     -1.85      0.00
   -7    2    9     -2.33      0.00
   -6    2    9     -0.43      0.00
   -5    2    9     -0.37      0.00
   -4    2    9      4.57      0.00
   -3    2    9     10.66      0.00
   -2    2    9     16.67      0.00
   -1    2    9     -8.57      0.00
    0    2    9     39.34      0.00
    1    2    9    -32.18      0.00
    2    2    9     12.56      0.00
    3    2    9    -22.44      0.00
    6    2    9      0.02      0.00
    7    2    9     -5.10      0.00
    8    2    9     -0.25      0.00
    9    2    9      1.06      0.00
   10    2    9      4.05      0.00
   11    2    9      0.34      0.00
  -11    3    9      0.22      0.00
  -10    3    9      2.81      0.00
   -9    3    9      1.65      0.00
   -8    3    9     -3.15      0.00
   -7    3    9     -1.39      0.00
   -6    3    9      4.32      0.00
   -5    3    9     -4.36      0.00
   -4    3    9      3.83      0.00
   -3    3    9    -22.64      0.00
   -2    3    9     -6.46      0.00
   -1    3    9     30.29      0.00
    0    3    9     -2.26      0.00
    1    3    9     -9.14      0.00
    2    3    9     31.40      0.00
    3    3    9     -9.62      0.00
    4    3    9      9.19      0.00
    5    3    9     -2.38      0.00
    6    3    9      2.32      0.00
    7    3    9     -1.27      0.00
    8    3    9      5.83      0.00
    9    3    9     -0.44      0.00
   10    3    9      1.54      0.00
   11    3    9      1.15      0.00
  -11    4    9     -3.16      0.00
  -10    4    9      0.08      0.00
   -9    4    9     -3.72      0.00
   -8    4    9      0.25      0.00
   -7    4    9      0.91      0.00
   -6    4    9     -1.64      0.00
   -5    4    9     -1.80      0.00
   -4    4    9     14.54      0.00
   -3    4    9    -10.82      0.00
   -2    4    9     34.63      0.00
   -1    4    9     -0.51      0.00
    0    4    9     18.75      0.00
    1    4    9     18.07      0.00
    2    4    9     18.42      0.00
    3    4    9     -4.24      0.00
    4    4    9      7.78      0.00
    5    4    9     -9.73      0.00
    6    4    9     -2.10      0.00
    7    4    9     -6.93      0.00
    8    4    9     -2.73      0.00
    9    4    9      2.48      0.00
   10    4    9      3.05      0.00
   11    4    9     -0.88      0.00
  -11    5    9     -0.40      0.00
  -10    5    9      0.50      0.00
   -9    5    9     -4.92      0.00
   -8    5    9     -2.89      0.00
   -7    5    9     -0.89      0.00
   -6    5    9     -2.61      0.00
   -5    5    9      3.89      0.00
   -4    5    9     -7.42      0.00
   -3    5    9    -31.27      0.00
   -2    5    9      9.30      0.00
   -1    5    9    -15.99      0.00
    0    5    9    -15.82      0.00
    1    5    9     13.00      0.00
    2    5    9     14.39      0.00
    3    5    9      5.59      0.00
    4    5    9     12.18      0.00
    5    5    9      0.72      0.00
    6    5    9      5.00      0.00
    7    5    9      1.32      0.00
    8    5    9      1.75      0.00
    9    5    9      1.11      0.00
   10    5    9     -0.74      0.00
  -11    6    9      0.34      0.00
  -10    6    9      1.95      0.00
   -9    6    9     -2.56      0.00
   -8    6    9      3.12      0.00
   -7    6    9      0.52      0.00
   -6    6    9     -4.01      0.00
   -5    6    9      3.53      0.00
   -4    6    9      5.50      0.00
   -3    6    9      4.36      0.00
   -2    6    9     32.44      0.00
   -1    6    9    -17.75      0.00
    0    6    9     23.76      0.00
    1    6    9      6.34      0.00
    2    6    9      7.83      0.00
    3    6    9     -7.06      0.00
    4    6    9      0.01      0.00
    5    6    9     -6.86      0.00
    6    6    9      3.12      0.00
    7    6    9     -2.02      0.00
    8    6    9      1.17      0.00
    9    6    9      4.77      0.00
   10    6    9     -0.32      0.00
  -11    7    9      0.13      0.00
  -10    7    9     -3.11      0.00
   -9    7    9     -2.46      0.00
   -8    7    9     -0.10      0.00
   -7    7    9     -3.35      0.00
   -6    7    9     -3.19      0.00
   -5    7    9     -2.55      0.00
   -4    7    9    -14.08      0.00
   -3    7    9    -11.32      0.00
   -2    7    9      6.99      0.00
   -1    7    9     -6.79      0.00
    0    7    9     10.94      0.00
    1    7    9     14.70      0.00
    2    7    9     -0.20      0.00
    3    7    9     -6.46      0.00
    4    7    9     -0.12      0.00
    5    7    9     -7.94      0.00
    6    7    9      5.03      0.00
    7    7    9     -5.18      0.00
    8    7    9      1.35      0.00
    9    7    9      0.64      0.00
   10    7    9      0.35      0.00
  -10    8    9      0.48      0.00
   -9    8    9     -0.08      0.00
   -8    8    9      2.27      0.00
   -7    8    9      0.79      0.00
   -6    8    9     -3.92      0.00
   -5    8    9     -3.86      0.00
   -4    8    9      1.29      0.00
   -3    8    9    -13.92      0.00
   -2    8    9     15.27      0.00
   -1    8    9    -17.36      0.00
    0    8    9     31.53      0.00
    1    8    9     20.76      0.00
    2    8    9     13.33      0.00
    3    8    9      6.09      0.00
    4    8    9     -5.24      0.00
    5    8    9      1.25      0.00
    6    8    9      4.16      0.00
    7    8    9     -4.11      0.00
    8    8    9      4.29      0.00
    9    8    9     -1.08      0.00
   10    8    9     -2.20      0.00
  -10    9    9     -2.18      0.00
   -9    9    9      0.54      0.00
   -8    9    9     -2.36      0.00
   -7    9    9     -0.51      0.00
   -6    9    9     -2.33      0.00
   -5    9    9      3.50      0.00
   -4    9    9     -5.24      0.00
   -3    9    9     -9.76      0.00
   -2    9    9     -0.46      0.00
   -1    9    9    -30.63      0.00
    0    9    9      6.99      0.00
    1    9    9    -18.65      0.00
    2    9    9     -0.49      0.00
    3    9    9      1.87      0.00
    4    9    9      1.38      0.00
    5    9    9      4.47      0.00
    6    9    9     -1.93      0.00
    7    9    9     -2.49      0.00
    8    9    9     -0.22      0.00
    9    9    9     -1.70      0.00
   10    9    9      4.05      0.00
  -10   10    9     -2.13      0.00
   -9   10    9      0.49      0.00
   -8   10    9      2.25      0.00
   -7   10    9     -2.13      0.00
   -6   10    9     -7.06      0.00
   -5   10    9     -0.04      0.00
   -4   10    9     -2.15      0.00
   -3   10    9      4.50      0.00
   -2   10    9     17.07      0.00
   -1   10    9      4.48      0.00
    0   10    9     27.43      0.00
    1   10    9     -2.34      0.00
    2   10    9      1.85      0.00
    3   10    9    -12.60      0.00
    4   10    9     -2.50      0.00
    5   10    9      9.09      0.00
    6   10    9      3.11      0.00
    7   10    9      3.17      0.00
    8   10    9      0.67      0.00
    9   10    9     -0.10      0.00
   10   10    9     -1.34      0.00
  -10   11    9     -1.92      0.00
   -9   11    9      2.01      0.00
   -8   11    9     -0.83      0.00
   -7   11    9     -0.23      0.00
   -6   11    9      3.77      0.00
   -5   11    9     -0.76      0.00
   -4   11    9     -8.83      0.00
   -3   11    9    -14.36      0.00
   -2   11    9    -13.00      0.00
   -1   11    9    -12.64      0.00
    0   11    9     -0.45      0.00
    1   11    9     -6.93      0.00
    2   11    9      7.92      0.00
    3   11    9     -4.90      0.00
    4   11    9     -1.94      0.00
    5   11    9     -4.48      0.00
    6   11    9     -6.66      0.00
    7   11    9      1.29      0.00
    8   11    9     -2.83      0.00
    9   11    9      3.66      0.00
   -9   12    9      3.53      0.00
   -8   12    9      0.04      0.00
   -7   12    9     -0.84      0.00
   -6   12    9     -0.53      0.00
   -5   12    9      1.11      0.00
   -4   12    9      4.66      0.00
   -3   12    9      4.16      0.00
   -2   12    9     10.50      0.00
   -1   12    9      6.49      0.00
    0   12    9      3.21      0.00
    1   12    9      3.60      0.00
    2   12    9     -4.82      0.00
    3   12    9     -0.80      0.00
    4   12    9      7.59      0.00
    5   12    9      3.72      0.00
    6   12    9      1.33      0.00
    7   12    9      0.35      0.00
    8   12    9     -2.24      0.00
    9   12    9      2.76      0.00
   -9   13    9      2.95      0.00
   -8   13    9      1.52      0.00
   -7   13    9      4.47      0.00
   -6   13    9      2.56      0.00
   -5   13    9     -0.52      0.00
   -4   13    9     -5.88      0.00
   -3   13    9    -15.13      0.00
   -2   13    9     -1.55      0.00
   -1   13    9    -12.54      0.00
    0   13    9     -3.41      0.00
    1   13    9     -2.61      0.00
    2   13    9     -3.72      0.00
    3   13    9     -3.27      0.00
    4   13    9     -2.28      0.00
    5   13    9     -0.37      0.00
    6   13    9     -1.11      0.00
    7   13    9      1.65      0.00
    8   13    9     -1.13      0.00
    9   13    9      3.20      0.00
   -8   14    9      0.21      0.00
   -7   14    9      0.51      0.00
   -6   14    9     -0.53      0.00
   -5   14    9      6.13      0.00
   -4   14    9     -0.22      0.00
   -3   14    9      6.71      0.00
   -2   14    9      5.12      0.00
   -1   14    9     -1.60      0.00
    0   14    9      1.87      0.00
    1   14    9     -0.19      0.00
    2   14    9     -4.70      0.00
    3   14    9     -1.51      0.00
    4   14    9      2.13      0.00
    5   14    9     -2.53      0.00
    6   14    9      2.77      0.00
    7   14    9      0.68      0.00
    8   14    9      0.89      0.00
   -8   15    9      2.25      0.00
   -7   15    9     -0.07      0.00
   -6   15    9      1.43      0.00
   -5   15    9     -1.62      0.00
   -4   15    9     -3.55      0.00
   -3   15    9     -1.37      0.00
   -2   15    9      1.06      0.00
   -1   15    9     -3.83      0.00
    0   15    9     -1.48      0.00
    1   15    9     -0.03      0.00
    2   15    9     -5.49      0.00
    3   15    9     -1.14      0.00
    4   15    9     -1.71      0.00
    5   15    9     -2.85      0.00
    6   15    9      0.23      0.00
    7   15    9     -0.46      0.00
    8   15    9      0.75      0.00
   -7   16    9      2.12      0.00
   -6   16    9      0.10      0.00
   -5   16    9     -0.22      0.00
   -4   16    9     -1.34      0.00
   -3   16    9     -1.06      0.00
   -2   16    9     -1.80      0.00
   -1   16    9     -2.10      0.00
    0   16    9      2.31      0.00
    1   16    9      1.98      0.00
    2   16    9     -2.99      0.00
    3   16    9      2.00      0.00
    4   16    9     -0.13      0.00
    5   16    9     -1.23      0.00
    6   16    9      2.72      0.00
    7   16    9      0.07      0.00
   -7   17    9      1.38      0.00
   -6   17    9      1.26      0.00
   -5   17    9      1.83      0.00
   -4   17    9      3.88      0.00
   -3   17    9     -0.23      0.00
   -2   17    9      0.62      0.00
   -1   17    9     -5.89      0.00
    0   17    9     -1.81      0.00
    1   17    9     -1.06      0.00
    2   17    9     -2.43      0.00
    3   17    9      1.15      0.00
    4   17    9     -1.40      0.00
    5   17    9      1.28      0.00
    6   17    9      0.88      0.00
    7   17    9     -1.58      0.00
   -6   18    9     -3.38      0.00
   -5   18    9      0.34      0.00
   -4   18    9     -1.40      0.00
   -3   18    9     -1.24      0.00
   -2   18    9      0.13      0.00
   -1   18    9     -0.67      0.00
    0   18    9      0.92      0.00
    1   18    9     -2.73      0.00
    2   18    9     -0.92      0.00
    3   18    9     -1.59      0.00
    4   18    9      0.83      0.00
    5   18    9      1.54      0.00
    6   18    9      2.79      0.00
   -5   19    9      0.77      0.00
   -4   19    9      0.39      0.00
   -3   19    9     -0.44      0.00
   -2   19    9     -1.63      0.00
   -1   19    9      0.38      0.00
    0   19    9     -1.02      0.00
    1   19    9      2.23      0.00
    2   19    9      0.35      0.00
    3   19    9     -2.52      0.00
    4   19    9      0.71      0.00
    5   19    9     -0.70      0.00
   -4   20    9     -0.27      0.00
   -3   20    9     -2.72      0.00
   -2   20    9     -0.61      0.00
   -1   20    9     -1.05      0.00
    0   20    9     -1.11      0.00
    1   20    9      0.85      0.00
    2   20    9     -0.37      0.00
    3   20    9      0.66      0.00
    4   20    9      5.34      0.00
   -3   21    9     -0.19      0.00
   -2   21    9     -0.52      0.00
   -1   21    9     -0.67      0.00
    0   21    9     -1.50      0.00
    1   21    9      0.48      0.00
    2   21    9     -0.48      0.00
    3   21    9     -1.74      0.00
  -10    0   10      2.37      0.00
   -8    0   10      4.15      0.00
   -6    0   10     15.95      0.00
   -4    0   10    -32.94      0.00
   -2    0   10    -57.33      0.00
    0    0   10     16.38      0.00
    2    0   10     45.07      0.00
    4    0   10     -6.03      0.00
    6    0   10     -6.93      0.00
    8    0   10      4.70      0.00
   10    0   10      4.42      0.00
  -11    1   10     -1.73      0.00
  -10    1   10     -2.25      0.00
   -9    1   10     -6.78      0.00
   -8    1   10      0.57      0.00
   -7    1   10     -5.78      0.00
   -6    1   10      9.89      0.00
   -5    1   10     -3.89      0.00
   -4    1   10     16.14      0.00
   -3    1   10     33.10      0.00
   -2    1   10    -29.05      0.00
   -1    1   10    -14.11      0.00
    0    1   10    -32.96      0.00
    1    1   10    -40.28      0.00
    2    1   10     19.41      0.00
    3    1   10    -17.92      0.00
    4    1   10     17.98      0.00
    6    1   10      3.54      0.00
    7    1   10      4.07      0.00
    8    1   10     -1.76      0.00
    9    1   10     -3.35      0.00
   10    1   10      0.61      0.00
   11    1   10     -0.56      0.00
  -11    2   10      0.13      0.00
  -10    2   10      0.03      0.00
   -9    2   10     -0.39      0.00
   -8    2   10      2.30      0.00
   -7    2   10     -0.97      0.00
   -6    2   10      5.09      0.00
   -5    2   10    -15.78      0.00
   -4    2   10     -1.93      0.00
   -3    2   10      5.59      0.00
   -2    2   10    -15.37      0.00
   -1    2   10     25.06      0.00
    0    2   10    -17.76      0.00
    1    2   10      5.09      0.00
    2    2   10    -24.84      0.00
    3    2   10    -34.24      0.00
    4    2   10     -2.62      0.00
    5    2   10     -4.57      0.00
    6    2   10      1.00      0.00
    7    2   10      0.85      0.00
    8    2   10      4.26      0.00
    9    2   10      1.50      0.00
   10    2   10      0.93      0.00
   11    2   10     -3.02      0.00
  -11    3   10     -2.76      0.00
  -10    3   10      0.42      0.00
   -9    3   10     -1.44      0.00
   -8    3   10      1.74      0.00
   -7    3   10      2.00      0.00
   -6    3   10      8.15      0.00
   -5    3   10     -4.82      0.00
   -4    3   10      0.96      0.00
   -3    3   10     -7.84      0.00
   -2    3   10     -6.60      0.00
   -1    3   10     11.48      0.00
    0    3   10      9.12      0.00
    1    3   10     25.10      0.00
    2    3   10     16.04      0.00
    3    3   10     -6.81      0.00
    4    3   10      3.60      0.00
    5    3   10     -9.11      0.00
    6    3   10     -0.28      0.00
    7    3   10      3.39      0.00
    8    3   10     -0.66      0.00
    9    3   10      1.62      0.00
   10    3   10      0.86      0.00
   11    3   10      0.11      0.00
  -11    4   10     -2.12      0.00
  -10    4   10      0.29      0.00
   -9    4   10      1.31      0.00
   -8    4   10      2.87      0.00
   -7    4   10     -2.60      0.00
   -6    4   10      3.88      0.00
   -5    4   10      3.01      0.00
   -4    4   10      2.09      0.00
   -3    4   10      2.16      0.00
   -2    4   10    -23.68      0.00
   -1    4   10     -7.23      0.00
    0    4   10    -10.72      0.00
    1    4   10    -15.82      0.00
    2    4   10    -29.35      0.00
    3    4   10     -8.64      0.00
    4    4   10     10.88      0.00
    5    4   10     -1.55      0.00
    6    4   10     -1.54      0.00
    7    4   10     -2.20      0.00
    8    4   10     -2.51      0.00
    9    4   10      4.60      0.00
   10    4   10     -0.04      0.00
  -11    5   10     -1.50      0.00
  -10    5   10      0.41      0.00
   -9    5   10     -1.82      0.00
   -8    5   10      1.22      0.00
   -7    5   10      0.09      0.00
   -6    5   10      3.40      0.00
   -5    5   10     -3.44      0.00
   -4    5   10     -4.45      0.00
   -3    5   10      2.25      0.00
   -2    5   10     10.13      0.00
   -1    5   10     24.41      0.00
    0    5   10      8.07      0.00
    1    5   10     19.71      0.00
    2    5   10      0.97      0.00
    3    5   10     -1.02      0.00
    4    5   10      5.03      0.00
    5    5   10     -3.94      0.00
    6    5   10      9.83      0.00
    7    5   10     -0.55      0.00
    8    5   10     -0.22      0.00
    9    5   10     -0.73      0.00
   10    5   10     -3.72      0.00
  -11    6   10     -2.58      0.00
  -10    6   10      1.97      0.00
   -9    6   10      0.77      0.00
   -8    6   10      0.64      0.00
   -7    6   10     -4.24      0.00
   -6    6   10      4.44      0.00
   -5    6   10      2.48      0.00
   -4    6   10     -0.34      0.00
   -3    6   10     -1.15      0.00
   -2    6   10     -3.72      0.00
   -1    6   10    -11.55      0.00
    0    6   10      0.91      0.00
    1    6   10    -34.32      0.00
    2    6   10    -17.68      0.00
    3    6   10      2.80      0.00
    4    6   10     -0.18      0.00
    5    6   10     -1.94      0.00
    6    6   10     -2.12      0.00
    7    6   10     -0.77      0.00
    8    6   10      4.70      0.00
    9    6   10      3.65      0.00
   10    6   10      0.58      0.00
  -10    7   10      1.34      0.00
   -9    7   10     -1.37      0.00
   -8    7   10      2.14      0.00
   -7    7   10     -0.09      0.00
   -6    7   10      2.50      0.00
   -5    7   10     -0.59      0.00
   -4    7   10     -8.61      0.00
   -3    7   10     11.60      0.00
   -2    7   10     15.20      0.00
   -1    7   10     15.03      0.00
    0    7   10     26.54      0.00
    1    7   10     -4.05      0.00
    2    7   10      9.15      0.00
    3    7   10     -4.60      0.00
    4    7   10     -3.24      0.00
    5    7   10      2.94      0.00
    6    7   10      0.33      0.00
    7    7   10     -4.21      0.00
    8    7   10      1.39      0.00
    9    7   10     -0.84      0.00
   10    7   10      0.71      0.00
  -10    8   10      2.41      0.00
   -9    8   10      0.16      0.00
   -8    8   10      1.62      0.00
   -7    8   10     -3.79      0.00
   -6    8   10      3.81      0.00
   -5    8   10     -2.05      0.00
   -4    8   10     -5.13      0.00
   -3    8   10      3.56      0.00
   -2    8   10    -10.29      0.00
   -1    8   10     -2.10      0.00
    0    8   10     13.52      0.00
    1    8   10    -25.17      0.00
    2    8   10     28.98      0.00
    3    8   10    -13.10      0.00
    4    8   10     -0.44      0.00
    5    8   10     -4.34      0.00
    6    8   10     -6.36      0.00
    7    8   10      0.76      0.00
    8    8   10     -0.58      0.00
    9    8   10      0.03      0.00
   10    8   10      0.19      0.00
  -10    9   10     -0.90      0.00
   -9    9   10     -0.33      0.00
   -8    9   10      0.95      0.00
   -7    9   10     -0.26      0.00
   -6    9   10      4.83      0.00
   -5    9   10     -4.84      0.00
   -4    9   10      0.36      0.00
   -3    9   10      9.36      0.00
   -2    9   10    -10.84      0.00
   -1    9   10     13.26      0.00
    0    9   10     -5.90      0.00
    1    9   10     -3.02      0.00
    2    9   10     17.77      0.00
    3    9   10     -4.72      0.00
    4    9   10     13.99      0.00
    5    9   10      1.85      0.00
    6    9   10      2.17      0.00
    7    9   10      0.37      0.00
    8    9   10      0.90      0.00
    9    9   10      1.21      0.00
   10    9   10     -1.46      0.00
  -10   10   10      2.05      0.00
   -9   10   10      1.00      0.00
   -8   10   10      0.46      0.00
   -7   10   10     -2.79      0.00
   -6   10   10      0.43      0.00
   -5   10   10     -7.22      0.00
   -4   10   10      7.92      0.00
   -3   10   10     -1.79      0.00
   -2   10   10      7.10      0.00
   -1   10   10      8.26      0.00
    0   10   10     -5.04      0.00
    1   10   10     -4.97      0.00
    2   10   10      0.56      0.00
    3   10   10    -22.02      0.00
    4   10   10     -2.80      0.00
    5   10   10     -3.83      0.00
    6   10   10     -2.14      0.00
    7   10   10      0.12      0.00
    8   10   10      0.38      0.00
    9   10   10      1.68      0.00
   -9   11   10      0.30      0.00
   -8   11   10      0.65      0.00
   -7   11   10      1.35      0.00
   -6   11   10     -2.70      0.00
   -5   11   10     -3.45      0.00
   -4   11   10     -2.62      0.00
   -3   11   10     -5.64      0.00
   -2   11   10     -1.37      0.00
   -1   11   10      9.13      0.00
    0   11   10      7.02      0.00
    1   11   10     12.46      0.00
    2   11   10     11.28      0.00
    3   11   10     -0.36      0.00
    4   11   10      3.46      0.00
    5   11   10     -1.67      0.00
    6   11   10      1.90      0.00
    7   11   10      0.00      0.00
    8   11   10     -0.29      0.00
    9   11   10      2.44      0.00
   -9   12   10      0.39      0.00
   -8   12   10      4.31      0.00
   -7   12   10     -3.98      0.00
   -6   12   10     -1.20      0.00
   -5   12   10      0.27      0.00
   -4   12   10     -0.32      0.00
   -3   12   10     -0.51      0.00
   -2   12   10     -0.59      0.00
   -1   12   10     -4.16      0.00
    0   12   10     -4.92      0.00
    1   12   10     -0.75      0.00
    2   12   10     -1.72      0.00
    3   12   10     -6.81      0.00
    4   12   10      1.58      0.00
    5   12   10     -0.53      0.00
    6   12   10     -1.65      0.00
    7   12   10     -1.06      0.00
    8   12   10     -0.10      0.00
    9   12   10     -0.06      0.00
   -9   13   10     -0.82      0.00
   -8   13   10      0.64      0.00
   -7   13   10     -3.30      0.00
   -6   13   10      0.49      0.00
   -5   13   10     -1.29      0.00
   -4   13   10     -5.87      0.00
   -3   13   10      1.31      0.00
   -2   13   10     -3.51      0.00
   -1   13   10      4.96      0.00
    0   13   10      0.21      0.00
    1   13   10      0.40      0.00
    2   13   10      4.19      0.00
    3   13   10     -0.52      0.00
    4   13   10      4.31      0.00
    5   13   10      3.79      0.00
    6   13   10      3.67      0.00
    7   13   10     -0.54      0.00
    8   13   10      1.42      0.00
   -8   14   10      1.70      0.00
   -7   14   10     -4.05      0.00
   -6   14   10      2.08      0.00
   -5   14   10     -1.83      0.00
   -4   14   10      0.30      0.00
   -3   14   10      0.87      0.00
   -2   14   10     -1.86      0.00
   -1   14   10      2.88      0.00
    0   14   10     -1.27      0.00
    1   14   10     -2.34      0.00
    2   14   10     -6.73      0.00
    3   14   10     -5.66      0.00
    4   14   10     -2.40      0.00
    5   14   10      0.21      0.00
    6   14   10      1.80      0.00
    7   14   10     -0.57      0.00
    8   14   10      0.77      0.00
   -8   15   10     -2.01      0.00
   -7   15   10     -1.26      0.00
   -6   15   10     -1.43      0.00
   -5   15   10     -1.08      0.00
   -4   15   10     -4.90      0.00
   -3   15   10     -1.25      0.00
   -2   15   10     -2.99      0.00
   -1   15   10     -0.99      0.00
    0   15   10      3.09      0.00
    1   15   10     -0.06      0.00
    2   15   10      6.96      0.00
    3   15   10     -0.84      0.00
    4   15   10     -0.54      0.00
    5   15   10      1.65      0.00
    6   15   10     -0.93      0.00
    7   15   10     -1.47      0.00
    8   15   10      3.32      0.00
   -7   16   10     -0.88      0.00
   -6   16   10      0.45      0.00
   -5   16   10     -0.61      0.00
   -4   16   10     -2.11      0.00
   -3   16   10      2.04      0.00
   -2   16   10     -1.37      0.00
   -1   16   10      3.68      0.00
    0   16   10     -2.03      0.00
    1   16   10     -5.82      0.00
    2   16   10      0.54      0.00
    3   16   10     -2.87      0.00
    4   16   10      1.82      0.00
    5   16   10      2.10      0.00
    6   16   10     -0.18      0.00
    7   16   10     -1.08      0.00
   -7   17   10      0.62      0.00
   -6   17   10      0.85      0.00
   -5   17   10     -0.81      0.00
   -4   17   10     -1.98      0.00
   -3   17   10     -0.82      0.00
   -2   17   10     -4.04      0.00
   -1   17   10      1.00      0.00
    0   17   10     -0.76      0.00
    1   17   10      0.56      0.00
    2   17   10      0.31      0.00
    3   17   10     -4.65      0.00
    4   17   10      2.08      0.00
    5   17   10      1.31      0.00
    6   17   10     -1.06      0.00
   -6   18   10     -2.01      0.00
   -5   18   10     -0.37      0.00
   -4   18   10      2.13      0.00
   -3   18   10      0.63      0.00
   -2   18   10      2.79      0.00
   -1   18   10      2.94      0.00
    0   18   10     -3.36      0.00
    1   18   10      0.85      0.00
    2   18   10     -0.17      0.00
    3   18   10     -1.39      0.00
    4   18   10     -0.66      0.00
    5   18   10     -2.44      0.00
    6   18   10      0.02      0.00
   -5   19   10     -0.54      0.00
   -4   19   10     -1.40      0.00
   -3   19   10     -2.04      0.00
   -2   19   10     -0.77      0.00
   -1   19   10     -2.00      0.00
    0   19   10     -1.37      0.00
    1   19   10     -0.16      0.00
    2   19   10     -3.01      0.00
    3   19   10      1.14      0.00
    4   19   10      2.47      0.00
    5   19   10     -0.97      0.00
   -4   20   10     -0.24      0.00
   -3   20   10      2.52      0.00
   -2   20   10      1.95      0.00
   -1   20   10      0.97      0.00
    0   20   10      1.09      0.00
    1   20   10      0.43      0.00
    2   20   10      0.83      0.00
    3   20   10     -1.55      0.00
    4   20   10     -2.88      0.00
   -3   21   10      0.30      0.00
   -2   21   10     -3.38      0.00
   -1   21   10     -0.95      0.00
    0   21   10     -2.51      0.00
    1   21   10      0.11      0.00
    2   21   10      0.51      0.00
  -11    0   11      5.56      0.00
   -9    0   11     -0.29      0.00
   -7    0   11      0.39      0.00
   -5    0   11    -11.34      0.00
   -3    0   11    -19.98      0.00
   -1    0   11     23.16      0.00
    1    0   11     16.35      0.00
    3    0   11      2.36      0.00
    5    0   11      3.50      0.00
    7    0   11     -1.00      0.00
    9    0   11     -6.53      0.00
   11    0   11      1.40      0.00
  -11    1   11     -0.58      0.00
  -10    1   11     -2.51      0.00
   -9    1   11      0.15      0.00
   -8    1   11      2.66      0.00
   -7    1   11     -1.64      0.00
   -6    1   11      0.09      0.00
   -5    1   11     -0.74      0.00
   -4    1   11      9.88      0.00
   -3    1   11    -10.40      0.00
   -2    1   11      1.91      0.00
   -1    1   11     -3.94      0.00
    0    1   11      2.42      0.00
    1    1   11      3.50      0.00
    2    1   11    -12.15      0.00
    3    1   11      9.15      0.00
    4    1   11      7.29      0.00
    5    1   11      0.63      0.00
    6    1   11      5.32      0.00
    7    1   11     -0.31      0.00
    8    1   11      0.12      0.00
    9    1   11      0.31      0.00
   10    1   11     -1.55      0.00
  -11    2   11      5.17      0.00
  -10    2   11     -1.92      0.00
   -9    2   11      3.88      0.00
   -8    2   11      2.59      0.00
   -7    2   11      1.01      0.00
   -6    2   11      2.95      0.00
   -5    2   11     -1.68      0.00
   -4    2   11      8.15      0.00
   -3    2   11     -3.48      0.00
   -2    2   11     12.22      0.00
   -1    2   11      1.00      0.00
    0    2   11    -44.38      0.00
    1    2   11      6.44      0.00
    2    2   11    -18.12      0.00
    3    2   11      4.75      0.00
    4    2   11      5.10      0.00
    5    2   11     -0.37      0.00
    6    2   11      0.35      0.00
    7    2   11     -0.30      0.00
    8    2   11      0.43      0.00
    9    2   11     -5.07      0.00
   10    2   11      0.24      0.00
  -11    3   11     -0.20      0.00
  -10    3   11     -2.75      0.00
   -9    3   11      0.08      0.00
   -8    3   11     -2.40      0.00
   -7    3   11     -1.71      0.00
   -6    3   11     -5.19      0.00
   -5    3   11    -13.41      0.00
   -4    3   11      2.33      0.00
   -3    3   11     -1.48      0.00
   -2    3   11     35.52      0.00
   -1    3   11     14.39      0.00
    0    3   11     -1.75      0.00
    1    3   11     13.54      0.00
    2    3   11    -32.80      0.00
    3    3   11      1.37      0.00
    4    3   11     -8.20      0.00
    5    3   11     -9.84      0.00
    6    3   11      5.03      0.00
    7    3   11     -2.66      0.00
    8    3   11      3.36      0.00
    9    3   11     -0.18      0.00
   10    3   11     -1.68      0.00
  -11    4   11      1.53      0.00
  -10    4   11      2.67      0.00
   -9    4   11      8.16      0.00
   -8    4   11      3.09      0.00
   -7    4   11      8.67      0.00
   -6    4   11      7.70      0.00
   -5    4   11      1.80      0.00
   -4    4   11     -6.87      0.00
   -3    4   11    -21.55      0.00
   -2    4   11     -1.49      0.00
   -1    4   11    -36.16      0.00
    0    4   11     -9.12      0.00
    1    4   11     41.83      0.00
    2    4   11     -2.75      0.00
    3    4   11     33.85      0.00
    4    4   11     -6.31      0.00
    5    4   11     -3.60      0.00
    6    4   11     -3.49      0.00
    7    4   11     -5.02      0.00
    8    4   11      3.14      0.00
    9    4   11     -4.34      0.00
   10    4   11      3.28      0.00
  -11    5   11     -3.10      0.00
  -10    5   11     -0.54      0.00
   -9    5   11     -2.77      0.00
   -8    5   11     -1.35      0.00
   -7    5   11     -0.76      0.00
   -6    5   11     -5.67      0.00
   -5    5   11      5.12      0.00
   -4    5   11     12.77      0.00
   -3    5   11     24.63      0.00
   -2    5   11     22.83      0.00
   -1    5   11    -39.98      0.00
    0    5   11    -10.94      0.00
    1    5   11    -33.13      0.00
    2    5   11    -25.08      0.00
    3    5   11      3.67      0.00
    4    5   11     -7.74      0.00
    5    5   11      8.71      0.00
    6    5   11      2.75      0.00
    7    5   11      1.72      0.00
    8    5   11     -0.91      0.00
    9    5   11     -5.56      0.00
   10    5   11      1.82      0.00
  -10    6   11      6.47      0.00
   -9    6   11      3.24      0.00
   -8    6   11      1.87      0.00
   -7    6   11      4.01      0.00
   -6    6   11      0.44      0.00
   -5    6   11     -6.42      0.00
   -4    6   11    -11.86      0.00
   -3    6   11     10.89      0.00
   -2    6   11     -5.48      0.00
   -1    6   11      2.61      0.00
    0    6   11     26.32      0.00
    1    6   11      3.13      0.00
    2    6   11      4.01      0.00
    3    6   11     -7.35      0.00
    4    6   11     -6.73      0.00
    5    6   11     -3.01      0.00
    6    6   11     -0.55      0.00
    7    6   11      6.51      0.00
    8    6   11      2.11      0.00
    9    6   11     -0.70      0.00
   10    6   11      1.06      0.00
  -10    7   11      2.80      0.00
   -9    7   11     -0.02      0.00
   -8    7   11      2.94      0.00
   -7    7   11      1.09      0.00
   -6    7   11      3.96      0.00
   -5    7   11      3.50      0.00
   -4    7   11      8.70      0.00
   -3    7   11      5.56      0.00
   -2    7   11    -10.55      0.00
   -1    7   11     -9.23      0.00
    0    7   11    -10.81      0.00
    1    7   11     -6.88      0.00
    2    7   11     -4.91      0.00
    3    7   11    -11.55      0.00
    4    7   11      3.32      0.00
    5    7   11     -3.67      0.00
    6    7   11     -0.49      0.00
    7    7   11     -1.82      0.00
    8    7   11     -1.93      0.00
    9    7   11      0.85      0.00
   10    7   11      3.34      0.00
  -10    8   11      5.76      0.00
   -9    8   11     -0.52      0.00
   -8    8   11     -1.20      0.00
   -7    8   11      1.27      0.00
   -6    8   11      0.75      0.00
   -5    8   11     -0.47      0.00
   -4    8   11     10.36      0.00
   -3    8   11      0.11      0.00
   -2    8   11      2.24      0.00
   -1    8   11      8.54      0.00
    0    8   11     -0.80      0.00
    1    8   11      4.08      0.00
    2    8   11     -6.49      0.00
    3    8   11     -0.55      0.00
    4    8   11      8.84      0.00
    5    8   11     -2.52      0.00
    6    8   11      6.20      0.00
    7    8   11      0.48      0.00
    8    8   11     -1.95      0.00
    9    8   11     -1.16      0.00
   10    8   11     -0.84      0.00
  -10    9   11     -0.17      0.00
   -9    9   11      0.07      0.00
   -8    9   11      3.47      0.00
   -7    9   11      2.55      0.00
   -6    9   11      1.32      0.00
   -5    9   11      3.21      0.00
   -4    9   11      3.08      0.00
   -3    9   11     -7.75      0.00
   -2    9   11      5.82      0.00
   -1    9   11     -7.18      0.00
    0    9   11     -3.98      0.00
    1    9   11      3.20      0.00
    2    9   11    -17.28      0.00
    3    9   11      3.18      0.00
    4    9   11      4.01      0.00
    5    9   11     -1.76      0.00
    6    9   11      3.95      0.00
    7    9   11     -3.58      0.00
    8    9   11      1.12      0.00
    9    9   11     -0.61      0.00
  -10   10   11      2.00      0.00
   -9   10   11     -3.58      0.00
   -8   10   11      0.02      0.00
   -7   10   11     -2.83      0.00
   -6   10   11      3.25      0.00
   -5   10   11      6.84      0.00
   -4   10   11      4.93      0.00
   -3   10   11      4.62      0.00
   -2   10   11     12.93      0.00
   -1   10   11     -5.02      0.00
    0   10   11     -4.68      0.00
    1   10   11     -5.83      0.00
    2   10   11     -9.24      0.00
    3   10   11      3.58      0.00
    4   10   11      1.62      0.00
    5   10   11      0.17      0.00
    6   10   11      4.71      0.00
    7   10   11     -1.59      0.00
    8   10   11      3.65      0.00
    9   10   11      0.12      0.00
   -9   11   11      2.45      0.00
   -8   11   11      2.86      0.00
   -7   11   11     -0.98      0.00
   -6   11   11      3.47      0.00
   -5   11   11     -2.63      0.00
   -4   11   11     -4.50      0.00
   -3   11   11      0.78      0.00
   -2   11   11      6.43      0.00
   -1   11   11      9.21      0.00
    0   11   11      7.02      0.00
    1   11   11      6.27      0.00
    2   11   11     -8.80      0.00
    3   11   11      9.05      0.00
    4   11   11     -3.11      0.00
    5   11   11     -2.72      0.00
    6   11   11     -1.77      0.00
    7   11   11     -6.13      0.00
    8   11   11      2.32      0.00
    9   11   11     -1.13      0.00
   -9   12   11     -0.30      0.00
   -8   12   11     -0.08      0.00
   -7   12   11     -1.85      0.00
   -6   12   11      5.85      0.00
   -5   12   11     -0.40      0.00
   -4   12   11      2.99      0.00
   -3   12   11     -0.79      0.00
   -2   12   11      2.47      0.00
   -1   12   11    -13.33      0.00
    0   12   11     -1.53      0.00
    1   12   11      3.36      0.00
    2   12   11      2.30      0.00
    3   12   11      9.64      0.00
    4   12   11      0.95      0.00
    5   12   11      5.02      0.00
    6   12   11     -2.49      0.00
    7   12   11      0.11      0.00
    8   12   11      1.75      0.00
    9   12   11     -2.21      0.00
   -9   13   11     -0.21      0.00
   -8   13   11      0.17      0.00
   -7   13   11      2.12      0.00
   -6   13   11     -0.67      0.00
   -5   13   11     -0.09      0.00
   -4   13   11     -1.34      0.00
   -3   13   11      8.51      0.00
   -2   13   11      5.13      0.00
   -1   13   11      3.92      0.00
    0   13   11      1.81      0.00
    1   13   11     -5.50      0.00
    2   13   11      0.85      0.00
    3   13   11      3.93      0.00
    4   13   11      1.48      0.00
    5   13   11      2.72      0.00
    6   13   11     -1.59      0.00
    7   13   11      0.45      0.00
    8   13   11      2.49      0.00
   -8   14   11     -0.50      0.00
   -7   14   11     -3.81      0.00
   -6   14   11      0.18      0.00
   -5   14   11     -1.44      0.00
   -4   14   11     -3.48      0.00
   -3   14   11      2.42      0.00
   -2   14   11     -0.80      0.00
   -1   14   11     -2.14      0.00
    0   14   11      5.27      0.00
    1   14   11      0.58      0.00
    2   14   11      3.58      0.00
    3   14   11     -1.35      0.00
    4   14   11      1.00      0.00
    5   14   11     -0.46      0.00
    6   14   11     -2.05      0.00
    7   14   11      1.90      0.00
    8   14   11      0.85      0.00
   -8   15   11      1.46      0.00
   -7   15   11     -0.64      0.00
   -6   15   11     -0.38      0.00
   -5   15   11      0.64      0.00
   -4   15   11     -1.40      0.00
   -3   15   11      7.17      0.00
   -2   15   11     -5.04      0.00
   -1   15   11      5.70      0.00
    0   15   11     -0.86      0.00
    1   15   11      0.80      0.00
    2   15   11      5.57      0.00
    3   15   11      0.96      0.00
    4   15   11      5.61      0.00
    5   15   11     -1.35      0.00
    6   15   11     -1.37      0.00
    7   15   11      0.63      0.00
   -7   16   11     -1.44      0.00
   -6   16   11      2.08      0.00
   -5   16   11     -2.27      0.00
   -4   16   11      0.97      0.00
   -3   16   11     -0.52      0.00
   -2   16   11      0.25      0.00
   -1   16   11     -0.19      0.00
    0   16   11     -1.01      0.00
    1   16   11      2.49      0.00
    2   16   11      0.04      0.00
    3   16   11      1.62      0.00
    4   16   11      2.22      0.00
    5   16   11     -1.34      0.00
    6   16   11      0.68      0.00
    7   16   11      0.44      0.00
   -7   17   11      0.32      0.00
   -6   17   11     -0.75      0.00
   -5   17   11      2.88      0.00
   -4   17   11     -1.68      0.00
   -3   17   11      1.03      0.00
   -2   17   11     -1.21      0.00
   -1   17   11      1.28      0.00
    0   17   11     -0.14      0.00
    1   17   11      0.05      0.00
    2   17   11      0.45      0.00
    3   17   11      3.34      0.00
    4   17   11      2.32      0.00
    5   17   11     -0.91      0.00
    6   17   11      0.15      0.00
   -6   18   11      2.24      0.00
   -5   18   11      1.59      0.00
   -4   18   11     -0.27      0.00
   -3   18   11      1.43      0.00
   -2   18   11     -0.06      0.00
   -1   18   11      0.58      0.00
    0   18   11      0.26      0.00
    1   18   11      0.62      0.00
    2   18   11     -1.98      0.00
    3   18   11     -0.20      0.00
    4   18   11     -2.02      0.00
    5   18   11     -0.11      0.00
   -5   19   11      0.08      0.00
   -4   19   11     -2.60      0.00
   -3   19   11      1.25      0.00
   -2   19   11     -2.28      0.00
   -1   19   11      2.03      0.00
    0   19   11      0.84      0.00
    1   19   11      2.09      0.00
    2   19   11      2.03      0.00
    3   19   11      1.87      0.00
    4   19   11     -0.94      0.00
    5   19   11     -2.28      0.00
   -4   20   11     -0.39      0.00
   -3   20   11     -0.56      0.00
   -2   20   11     -1.15      0.00
   -1   20   11      1.13      0.00
    0   20   11     -2.75      0.00
    1   20   11     -1.10      0.00
    2   20   11     -2.16      0.00
    3   20   11     -0.79      0.00
   -2   21   11     -0.50      0.00
   -1   21   11      1.35      0.00
    0   21   11      2.38      0.00
    1   21   11      0.90      0.00
    2   21   11      0.35      0.00
  -10    0   12     -5.37      0.00
   -8    0   12      1.44      0.00
   -6    0   12      3.66      0.00
   -4    0   12      0.63      0.00
   -2    0   12     -6.45      0.00
    0    0   12      4.56      0.00
    2    0   12     16.04      0.00
    4    0   12    -10.54      0.00
    6    0   12     -3.20      0.00
    8    0   12     -3.30      0.00
   10    0   12     -3.72      0.00
  -11    1   12      2.08      0.00
  -10    1   12     -1.39      0.00
   -9    1   12      2.98      0.00
   -8    1   12     -0.24      0.00
   -7    1   12     -2.23      0.00
   -6    1   12      2.69      0.00
   -5    1   12     -1.29      0.00
   -4    1   12      6.46      0.00
   -3    1   12      6.49      0.00
   -2    1   12     -4.88      0.00
   -1    1   12      4.23      0.00
    0    1   12     -0.62      0.00
    1    1   12      8.47      0.00
    2    1   12     -5.86      0.00
    3    1   12     22.24      0.00
    4    1   12      0.80      0.00
    5    1   12      6.23      0.00
    6    1   12      2.24      0.00
    7    1   12     -4.93      0.00
    8    1   12      3.13      0.00
    9    1   12      2.31      0.00
   10    1   12     -1.24      0.00
  -11    2   12      0.99      0.00
  -10    2   12     -3.06      0.00
   -9    2   12      2.60      0.00
   -8    2   12     -2.15      0.00
   -7    2   12     -2.93      0.00
   -6    2   12     -0.46      0.00
   -5    2   12     -5.85      0.00
   -4    2   12      6.97      0.00
   -3    2   12      0.71      0.00
   -2    2   12      1.51      0.00
   -1    2   12    -12.51      0.00
    0    2   12     10.60      0.00
    1    2   12      9.85      0.00
    2    2   12    -12.48      0.00
    3    2   12     -3.65      0.00
    4    2   12     -9.51      0.00
    5    2   12      6.26      0.00
    6    2   12      2.12      0.00
    7    2   12      0.47      0.00
    8    2   12     -0.31      0.00
    9    2   12     -4.70      0.00
   10    2   12     -0.13      0.00
  -11    3   12      0.49      0.00
  -10    3   12      2.46      0.00
   -9    3   12      3.57      0.00
   -8    3   12      1.07      0.00
   -7    3   12     -2.54      0.00
   -6    3   12      1.02      0.00
   -5    3   12     -4.16      0.00
   -4    3   12      7.74      0.00
   -3    3   12      9.06      0.00
   -2    3   12     -1.69      0.00
   -1    3   12     11.46      0.00
    0    3   12     36.54      0.00
    1    3   12    -13.89      0.00
    2    3   12     -0.61      0.00
    3    3   12      8.23      0.00
    4    3   12    -14.90      0.00
    5    3   12      1.44      0.00
    6    3   12     -4.55      0.00
    7    3   12     -0.54      0.00
    8    3   12      4.97      0.00
    9    3   12      0.70      0.00
   10    3   12     -0.98      0.00
  -11    4   12     -0.42      0.00
  -10    4   12     -0.07      0.00
   -9    4   12     -0.73      0.00
   -8    4   12     -3.91      0.00
   -7    4   12     -3.11      0.00
   -6    4   12     -1.56      0.00
   -5    4   12     -7.93      0.00
   -4    4   12     -1.95      0.00
   -3    4   12     -3.78      0.00
   -2    4   12    -29.28      0.00
   -1    4   12      3.21      0.00
    0    4   12     14.75      0.00
    1    4   12     -0.02      0.00
    2    4   12      9.79      0.00
    3    4   12      2.18      0.00
    4    4   12     10.81      0.00
    5    4   12      3.87      0.00
    6    4   12     -1.94      0.00
    7    4   12     -3.04      0.00
    8    4   12     -4.58      0.00
    9    4   12     -2.85      0.00
   10    4   12      4.87      0.00
  -11    5   12     -0.26      0.00
  -10    5   12      4.19      0.00
   -9    5   12      0.71      0.00
   -8    5   12     -1.72      0.00
   -7    5   12     -1.74      0.00
   -6    5   12      4.40      0.00
   -5    5   12     -0.12      0.00
   -4    5   12     17.79      0.00
   -3    5   12     -0.81      0.00
   -2    5   12    -12.16      0.00
   -1    5   12     17.69      0.00
    0    5   12     -9.92      0.00
    1    5   12    -20.44      0.00
    2    5   12      4.35      0.00
    3    5   12     -2.68      0.00
    4    5   12      6.85      0.00
    5    5   12      2.25      0.00
    6    5   12      3.31      0.00
    7    5   12      4.25      0.00
    8    5   12     -0.67      0.00
    9    5   12      0.21      0.00
   10    5   12     -5.11      0.00
  -10    6   12      1.70      0.00
   -9    6   12     -5.17      0.00
   -8    6   12     -4.90      0.00
   -7    6   12     -0.05      0.00
   -6    6   12     -4.03      0.00
   -5    6   12     -5.13      0.00
   -4    6   12      7.43      0.00
   -3    6   12     -6.82      0.00
   -2    6   12     -2.68      0.00
   -1    6   12     12.20      0.00
    0    6   12    -11.78      0.00
    1    6   12      0.98      0.00
    2    6   12    -12.57      0.00
    3    6   12      4.33      0.00
    4    6   12      1.44      0.00
    5    6   12     -8.53      0.00
    6    6   12     -1.61      0.00
    7    6   12     -1.74      0.00
    8    6   12     -1.23      0.00
    9    6   12      2.71      0.00
   10    6   12      4.06      0.00
  -10    7   12      4.10      0.00
   -9    7   12     -2.82      0.00
   -8    7   12     -0.96      0.00
   -7    7   12      1.26      0.00
   -6    7   12     -2.34      0.00
   -5    7   12     -2.53      0.00
   -4    7   12     -0.37      0.00
   -3    7   12     -8.78      0.00
   -2    7   12     13.73      0.00
   -1    7   12      2.62      0.00
    0    7   12      3.57      0.00
    1    7   12      1.50      0.00
    2    7   12      3.71      0.00
    3    7   12      5.80      0.00
    4    7   12      5.39      0.00
    5    7   12     -2.68      0.00
    6    7   12      1.90      0.00
    7    7   12      1.40      0.00
    8    7   12     -3.31      0.00
    9    7   12      1.58      0.00
   10    7   12     -3.91      0.00
  -10    8   12      1.87      0.00
   -9    8   12     -6.92      0.00
   -8    8   12      2.05      0.00
   -7    8   12      5.08      0.00
   -6    8   12      3.37      0.00
   -5    8   12      2.65      0.00
   -4    8   12     -1.82      0.00
   -3    8   12    -10.54      0.00
   -2    8   12    -13.22      0.00
   -1    8   12    -10.38      0.00
    0    8   12     -9.65      0.00
    1    8   12      3.42      0.00
    2    8   12      1.65      0.00
    3    8   12     14.29      0.00
    4    8   12     -4.33      0.00
    5    8   12     -8.29      0.00
    6    8   12      3.25      0.00
    7    8   12     -3.85      0.00
    8    8   12     -0.16      0.00
    9    8   12      3.94      0.00
   10    8   12      1.75      0.00
  -10    9   12     -0.34      0.00
   -9    9   12     -2.13      0.00
   -8    9   12     -0.27      0.00
   -7    9   12     -4.63      0.00
   -6    9   12     -1.71      0.00
   -5    9   12     -2.82      0.00
   -4    9   12     10.75      0.00
   -3    9   12      8.45      0.00
   -2    9   12     13.86      0.00
   -1    9   12     -7.90      0.00
    0    9   12     -5.06      0.00
    1    9   12     -6.05      0.00
    2    9   12     -9.35      0.00
    3    9   12      9.61      0.00
    4    9   12      0.47      0.00
    5    9   12      2.49      0.00
    6    9   12      6.15      0.00
    7    9   12     -0.83      0.00
    8    9   12      1.03      0.00
    9    9   12     -1.53      0.00
  -10   10   12     -0.74      0.00
   -9   10   12     -4.04      0.00
   -8   10   12      2.37      0.00
   -7   10   12      4.14      0.00
   -6   10   12      1.15      0.00
   -5   10   12     -6.28      0.00
   -4   10   12     -1.80      0.00
   -3   10   12    -11.31      0.00
   -2   10   12     -0.92      0.00
   -1   10   12     -4.79      0.00
    0   10   12      3.88      0.00
    1   10   12      7.81      0.00
    2   10   12     -1.54      0.00
    3   10   12      3.29      0.00
    4   10   12    -13.33      0.00
    5   10   12      1.45      0.00
    6   10   12      1.32      0.00
    7   10   12     -0.87      0.00
    8   10   12      3.90      0.00
    9   10   12      0.63      0.00
   -9   11   12      0.04      0.00
   -8   11   12     -2.21      0.00
   -7   11   12     -2.77      0.00
   -6   11   12     -0.06      0.00
   -5   11   12      3.48      0.00
   -4   11   12     12.54      0.00
   -3   11   12      2.28      0.00
   -2   11   12      8.46      0.00
   -1   11   12     -8.77      0.00
    0   11   12      1.59      0.00
    1   11   12     -6.48      0.00
    2   11   12     -3.37      0.00
    3   11   12      4.98      0.00
    4   11   12     -6.88      0.00
    5   11   12      1.52      0.00
    6   11   12     -2.21      0.00
    7   11   12      1.62      0.00
    8   11   12     -0.53      0.00
    9   11   12     -1.77      0.00
   -9   12   12     -2.00      0.00
   -8   12   12      1.49      0.00
   -7   12   12      1.19      0.00
   -6   12   12     -1.18      0.00
   -5   12   12      0.38      0.00
   -4   12   12     -2.53      0.00
   -3   12   12     -0.52      0.00
   -2   12   12     -1.92      0.00
   -1   12   12     -1.67      0.00
    0   12   12      8.46      0.00
    1   12   12      4.14      0.00
    2   12   12      4.34      0.00
    3   12   12     -1.95      0.00
    4   12   12      3.42      0.00
    5   12   12      3.15      0.00
    6   12   12     -1.35      0.00
    7   12   12      1.26      0.00
    8   12   12     -1.03      0.00
   -9   13   12     -1.96      0.00
   -8   13   12     -1.80      0.00
   -7   13   12     -1.30      0.00
   -6   13   12      4.70      0.00
   -5   13   12      3.35      0.00
   -4   13   12      9.54      0.00
   -3   13   12      0.96      0.00
   -2   13   12      0.51      0.00
   -1   13   12     -0.11      0.00
    0   13   12     -7.79      0.00
    1   13   12     -2.75      0.00
    2   13   12     -3.35      0.00
    3   13   12     -3.85      0.00
    4   13   12     -1.21      0.00
    5   13   12     -1.87      0.00
    6   13   12      1.54      0.00
    7   13   12      1.32      0.00
    8   13   12     -2.68      0.00
   -8   14   12     -1.86      0.00
   -7   14   12      0.03      0.00
   -6   14   12      0.18      0.00
   -5   14   12      1.60      0.00
   -4   14   12      1.87      0.00
   -3   14   12      2.46      0.00
   -2   14   12      5.73      0.00
   -1   14   12      2.11      0.00
    0   14   12      4.83      0.00
    1   14   12      3.60      0.00
    2   14   12     -1.31      0.00
    3   14   12     -0.94      0.00
    4   14   12      3.87      0.00
    5   14   12     -2.38      0.00
    6   14   12      1.26      0.00
    7   14   12      1.14      0.00
    8   14   12      0.28      0.00
   -8   15   12      1.29      0.00
   -7   15   12      0.44      0.00
   -6   15   12      0.78      0.00
   -5   15   12      0.90      0.00
   -4   15   12      0.63      0.00
   -3   15   12     -4.97      0.00
   -2   15   12      3.63      0.00
   -1   15   12     -1.21      0.00
    0   15   12     -0.70      0.00
    1   15   12      2.53      0.00
    2   15   12     -1.01      0.00
    3   15   12     -1.91      0.00
    4   15   12      0.12      0.00
    5   15   12     -3.88      0.00
    6   15   12      0.75      0.00
    7   15   12     -2.09      0.00
   -7   16   12      1.20      0.00
   -6   16   12      3.66      0.00
   -5   16   12      2.77      0.00
   -4   16   12     -0.17      0.00
   -3   16   12      6.17      0.00
   -2   16   12      1.58      0.00
   -1   16   12     -3.69      0.00
    0   16   12      2.83      0.00
    1   16   12      0.55      0.00
    2   16   12      0.65      0.00
    3   16   12      2.15      0.00
    4   16   12      2.47      0.00
    5   16   12     -1.47      0.00
    6   16   12      1.51      0.00
    7   16   12     -0.16      0.00
   -6   17   12      2.09      0.00
   -5   17   12     -2.64      0.00
   -4   17   12     -0.09      0.00
   -3   17   12     -0.18      0.00
   -2   17   12      2.23      0.00
   -1   17   12      0.08      0.00
    0   17   12     -2.53      0.00
    1   17   12      0.52      0.00
    2   17   12     -2.28      0.00
    3   17   12      0.11      0.00
    4   17   12      1.23      0.00
    5   17   12      1.25      0.00
    6   17   12      1.99      0.00
   -6   18   12      2.58      0.00
   -5   18   12     -2.01      0.00
   -4   18   12      4.06      0.00
   -3   18   12      0.03      0.00
   -2   18   12      1.60      0.00
   -1   18   12     -1.35      0.00
    0   18   12      1.66      0.00
    1   18   12      1.41      0.00
    2   18   12     -1.02      0.00
    3   18   12      0.22      0.00
    4   18   12     -2.60      0.00
    5   18   12     -2.42      0.00
   -5   19   12     -0.30      0.00
   -4   19   12      0.43      0.00
   -3   19   12     -0.51      0.00
   -2   19   12      2.57      0.00
   -1   19   12     -2.96      0.00
    0   19   12      0.14      0.00
    1   19   12      0.32      0.00
    2   19   12      0.58      0.00
    3   19   12      1.09      0.00
    4   19   12      3.17      0.00
   -4   20   12     -0.75      0.00
   -3   20   12     -1.02      0.00
   -2   20   12      0.76      0.00
   -1   20   12     -1.16      0.00
    0   20   12     -0.24      0.00
    1   20   12      0.48      0.00
    2   20   12      0.72      0.00
    3   20   12     -2.78      0.00
   -2   21   12     -0.87      0.00
   -1   21   12     -0.15      0.00
    0   21   12     -0.69      0.00
    1   21   12      0.03      0.00
  -11    0   13      0.48      0.00
   -9    0   13      2.79      0.00
   -7    0   13      4.83      0.00
   -5    0   13     12.14      0.00
   -3    0   13    -14.98      0.00
   -1    0   13    -18.08      0.00
    1    0   13    -19.93      0.00
    3    0   13     16.07      0.00
    5    0   13     10.38      0.00
    7    0   13     -1.49      0.00
    9    0   13     -1.87      0.00
  -11    1   13      0.84      0.00
  -10    1   13     -0.28      0.00
   -9    1   13     -2.79      0.00
   -8    1   13     -0.94      0.00
   -7    1   13     -4.83      0.00
   -6    1   13     -2.53      0.00
   -5    1   13      2.24      0.00
   -4    1   13     -4.78      0.00
   -3    1   13     13.73      0.00
   -2    1   13     15.50      0.00
   -1    1   13     -6.21      0.00
    0    1   13      6.41      0.00
    1    1   13    -23.64      0.00
    2    1   13     -0.15      0.00
    3    1   13     -0.92      0.00
    4    1   13    -12.48      0.00
    5    1   13      7.57      0.00
    6    1   13     -7.46      0.00
    7    1   13      2.01      0.00
    8    1   13      2.61      0.00
    9    1   13     -2.73      0.00
   10    1   13      3.33      0.00
  -11    2   13      1.43      0.00
  -10    2   13     -0.36      0.00
   -9    2   13      1.46      0.00
   -8    2   13      2.99      0.00
   -7    2   13      2.41      0.00
   -6    2   13      4.95      0.00
   -5    2   13      2.36      0.00
   -4    2   13     -6.25      0.00
   -3    2   13      2.85      0.00
   -2    2   13     -7.03      0.00
   -1    2   13     11.76      0.00
    0    2   13      1.40      0.00
    1    2   13    -18.51      0.00
    2    2   13     18.71      0.00
    3    2   13     -9.88      0.00
    4    2   13      1.60      0.00
    5    2   13      0.24      0.00
    6    2   13     -3.27      0.00
    7    2   13      3.28      0.00
    8    2   13     -0.64      0.00
    9    2   13      0.91      0.00
   10    2   13      2.57      0.00
  -11    3   13      2.02      0.00
  -10    3   13     -1.98      0.00
   -9    3   13     -2.88      0.00
   -8    3   13     -2.87      0.00
   -7    3   13     -4.73      0.00
   -6    3   13      3.25      0.00
   -5    3   13     -2.33      0.00
   -4    3   13      5.75      0.00
   -3    3   13      7.34      0.00
   -2    3   13     -7.56      0.00
   -1    3   13     17.15      0.00
    0    3   13    -19.51      0.00
    1    3   13     -1.54      0.00
    2    3   13      9.92      0.00
    3    3   13     -3.61      0.00
    4    3   13      1.56      0.00
    5    3   13      0.78      0.00
    6    3   13     -4.38      0.00
    7    3   13      0.77      0.00
    8    3   13      1.95      0.00
    9    3   13     -1.83      0.00
   10    3   13      2.30      0.00
  -11    4   13     -0.13      0.00
  -10    4   13     -2.11      0.00
   -9    4   13      0.88      0.00
   -8    4   13      2.75      0.00
   -7    4   13      1.31      0.00
   -6    4   13     -0.70      0.00
   -5    4   13     -1.06      0.00
   -4    4   13     -1.05      0.00
   -3    4   13     -3.91      0.00
   -2    4   13     -1.99      0.00
   -1    4   13      9.45      0.00
    0    4   13     -5.52      0.00
    1    4   13     18.70      0.00
    2    4   13      1.99      0.00
    3    4   13     -3.38      0.00
    4    4   13     -1.60      0.00
    5    4   13     -3.25      0.00
    6    4   13     -1.51      0.00
    7    4   13      1.24      0.00
    8    4   13     -2.09      0.00
    9    4   13      0.83      0.00
   10    4   13      0.82      0.00
  -10    5   13     -0.67      0.00
   -9    5   13     -3.56      0.00
   -8    5   13     -2.36      0.00
   -7    5   13     -0.26      0.00
   -6    5   13     -0.09      0.00
   -5    5   13      3.67      0.00
   -4    5   13      1.66      0.00
   -3    5   13     -0.20      0.00
   -2    5   13     -8.34      0.00
   -1    5   13     -4.11      0.00
    0    5   13    -14.25      0.00
    1    5   13      3.55      0.00
    2    5   13      5.46      0.00
    3    5   13      6.35      0.00
    4    5   13      4.45      0.00
    5    5   13      3.93      0.00
    6    5   13      0.70      0.00
    7    5   13      5.08      0.00
    8    5   13     -1.37      0.00
    9    5   13     -0.69      0.00
   10    5   13     -0.52      0.00
  -10    6   13     -3.10      0.00
   -9    6   13     -1.49      0.00
   -8    6   13      2.49      0.00
   -7    6   13     -2.67      0.00
   -6    6   13     -4.34      0.00
   -5    6   13      2.32      0.00
   -4    6   13     -3.48      0.00
   -3    6   13      9.29      0.00
   -2    6   13     -4.29      0.00
   -1    6   13     10.03      0.00
    0    6   13      4.41      0.00
    1    6   13     -1.18      0.00
    2    6   13    -14.41      0.00
    3    6   13     -6.13      0.00
    4    6   13     -6.33      0.00
    5    6   13     -2.05      0.00
    6    6   13      1.83      0.00
    7    6   13      1.71      0.00
    8    6   13      0.25      0.00
    9    6   13      1.57      0.00
   10    6   13     -2.48      0.00
  -10    7   13      0.83      0.00
   -9    7   13     -2.88      0.00
   -8    7   13      0.62      0.00
   -7    7   13     -2.07      0.00
   -6    7   13     -1.32      0.00
   -5    7   13     -1.74      0.00
   -4    7   13     -3.51      0.00
   -3    7   13      1.39      0.00
   -2    7   13     -5.42      0.00
   -1    7   13      9.20      0.00
    0    7   13     10.56      0.00
    1    7   13     10.99      0.00
    2    7   13      5.52      0.00
    3    7   13      3.86      0.00
    4    7   13     -5.67      0.00
    5    7   13     -1.61      0.00
    6    7   13     -0.70      0.00
    7    7   13     -2.15      0.00
    8    7   13     -1.16      0.00
    9    7   13      1.70      0.00
   10    7   13     -1.22      0.00
  -10    8   13     -4.78      0.00
   -9    8   13      0.19      0.00
   -8    8   13      2.18      0.00
   -7    8   13     -2.39      0.00
   -6    8   13     -1.84      0.00
   -5    8   13     -1.59      0.00
   -4    8   13     -4.60      0.00
   -3    8   13     -7.72      0.00
   -2    8   13    -11.56      0.00
   -1    8   13      0.14      0.00
    0    8   13      0.55      0.00
    1    8   13     -8.06      0.00
    2    8   13      0.03      0.00
    3    8   13     14.49      0.00
    4    8   13     -5.31      0.00
    5    8   13      8.35      0.00
    6    8   13     -0.97      0.00
    7    8   13     -0.63      0.00
    8    8   13     -0.42      0.00
    9    8   13     -2.48      0.00
  -10    9   13     -2.59      0.00
   -9    9   13     -2.38      0.00
   -8    9   13     -0.33      0.00
   -7    9   13     -2.29      0.00
   -6    9   13      1.21      0.00
   -5    9   13      2.40      0.00
   -4    9   13      1.24      0.00
   -3    9   13      6.48      0.00
   -2    9   13     -1.12      0.00
   -1    9   13     -2.73      0.00
    0    9   13      9.64      0.00
    1    9   13    -13.36      0.00
    2    9   13      4.50      0.00
    3    9   13     -1.30      0.00
    4    9   13     -4.50      0.00
    5    9   13      6.67      0.00
    6    9   13     -2.75      0.00
    7    9   13      3.11      0.00
    8    9   13     -0.28      0.00
    9    9   13      0.74      0.00
   -9   10   13     -0.10      0.00
   -8   10   13     -0.12      0.00
   -7   10   13     -1.82      0.00
   -6   10   13     -1.94      0.00
   -5   10   13     -5.74      0.00
   -4   10   13     -7.41      0.00
   -3   10   13     -0.04      0.00
   -2   10   13     -9.20      0.00
   -1   10   13      9.89      0.00
    0   10   13     -4.55      0.00
    1   10   13     -9.44      0.00
    2   10   13      7.32      0.00
    3   10   13      0.05      0.00
    4   10   13     -5.36      0.00
    5   10   13      1.87      0.00
    6   10   13     -2.54      0.00
    7   10   13      1.31      0.00
    8   10   13     -1.52      0.00
    9   10   13      1.56      0.00
   -9   11   13     -1.00      0.00
   -8   11   13     -0.49      0.00
   -7   11   13     -1.04      0.00
   -6   11   13      3.24      0.00
   -5   11   13     -5.37      0.00
   -4   11   13      1.33      0.00
   -3   11   13     -0.23      0.00
   -2   11   13     -6.92      0.00
   -1   11   13      4.08      0.00
    0   11   13     -0.43      0.00
    1   11   13     -1.98      0.00
    2   11   13      5.99      0.00
    3   11   13      0.09      0.00
    4   11   13     -0.35      0.00
    5   11   13      0.85      0.00
    6   11   13      0.26      0.00
    7   11   13      1.13      0.00
    8   11   13     -2.34      0.00
    9   11   13      0.62      0.00
   -9   12   13     -1.18      0.00
   -8   12   13      2.08      0.00
   -7   12   13      4.39      0.00
   -6   12   13     -1.52      0.00
   -5   12   13     -3.40      0.00
   -4   12   13     -0.06      0.00
   -3   12   13     -3.81      0.00
   -2   12   13     -8.71      0.00
   -1   12   13      3.06      0.00
    0   12   13    -11.27      0.00
    1   12   13      1.24      0.00
    2   12   13      1.19      0.00
    3   12   13      1.99      0.00
    4   12   13     -2.38      0.00
    5   12   13     -1.27      0.00
    6   12   13      0.50      0.00
    7   12   13     -0.65      0.00
    8   12   13     -0.70      0.00
   -8   13   13      1.49      0.00
   -7   13   13     -0.59      0.00
   -6   13   13     -2.57      0.00
   -5   13   13     -0.12      0.00
   -4   13   13      2.78      0.00
   -3   13   13     -0.21      0.00
   -2   13   13      1.39      0.00
   -1   13   13     -3.99      0.00
    0   13   13     -3.30      0.00
    1   13   13     -4.18      0.00
    2   13   13     -1.47      0.00
    3   13   13      0.64      0.00
    4   13   13     -1.40      0.00
    5   13   13      3.13      0.00
    6   13   13      3.89      0.00
    7   13   13     -1.51      0.00
    8   13   13     -1.67      0.00
   -8   14   13      3.75      0.00
   -7   14   13     -0.33      0.00
   -6   14   13     -2.33      0.00
   -5   14   13      2.45      0.00
   -4   14   13     -4.82      0.00
   -3   14   13      5.39      0.00
   -2   14   13     -8.16      0.00
   -1   14   13      4.01      0.00
    0   14   13     -0.30      0.00
    1   14   13     -0.60      0.00
    2   14   13     -0.06      0.00
    3   14   13     -2.25      0.00
    4   14   13     -5.92      0.00
    5   14   13     -2.73      0.00
    6   14   13      0.79      0.00
    7   14   13     -1.00      0.00
   -7   15   13     -4.66      0.00
   -6   15   13      0.07      0.00
   -5   15   13     -1.60      0.00
   -4   15   13      1.32      0.00
   -3   15   13      1.35      0.00
   -2   15   13     -3.12      0.00
   -1   15   13     -0.32      0.00
    0   15   13     -1.49      0.00
    1   15   13     -0.94      0.00
    2   15   13      1.69      0.00
    3   15   13      2.01      0.00
    4   15   13     -2.10      0.00
    5   15   13      0.48      0.00
    6   15   13      0.29      0.00
    7   15   13     -2.47      0.00
   -7   16   13      1.44      0.00
   -6   16   13      1.50      0.00
   -5   16   13      0.03      0.00
   -4   16   13     -0.35      0.00
   -3   16   13      1.47      0.00
   -2   16   13     -8.49      0.00
   -1   16   13      2.24      0.00
    0   16   13     -0.06      0.00
    1   16   13     -2.13      0.00
    2   16   13      0.77      0.00
    3   16   13      0.82      0.00
    4   16   13     -3.63      0.00
    5   16   13      2.04      0.00
    6   16   13     -0.31      0.00
   -6   17   13      1.06      0.00
   -5   17   13      0.23      0.00
   -4   17   13      3.06      0.00
   -3   17   13      1.17      0.00
   -2   17   13      2.43      0.00
   -1   17   13      0.17      0.00
    0   17   13      0.82      0.00
    1   17   13     -1.75      0.00
    2   17   13      2.23      0.00
    3   17   13     -1.10      0.00
    4   17   13     -4.08      0.00
    5   17   13      1.00      0.00
    6   17   13     -0.13      0.00
   -5   18   13     -2.08      0.00
   -4   18   13     -2.98      0.00
   -3   18   13     -0.05      0.00
   -2   18   13     -4.80      0.00
   -1   18   13      1.97      0.00
    0   18   13      0.83      0.00
    1   18   13     -2.50      0.00
    2   18   13      3.50      0.00
    3   18   13     -0.54      0.00
    4   18   13     -0.72      0.00
    5   18   13      1.93      0.00
   -4   19   13      2.27      0.00
   -3   19   13      2.42      0.00
   -2   19   13      0.32      0.00
   -1   19   13      2.83      0.00
    0   19   13     -0.54      0.00
    1   19   13      1.63      0.00
    2   19   13      0.32      0.00
    3   19   13     -2.40      0.00
    4   19   13     -0.05      0.00
   -3   20   13      0.38      0.00
   -2   20   13      0.41      0.00
   -1   20   13     -0.71      0.00
    0   20   13     -0.86      0.00
    1   20   13      1.37      0.00
    2   20   13      1.36      0.00
    3   20   13      1.71      0.00
    0   21   13      0.00      0.00
  -10    0   14      0.11      0.00
   -8    0   14     -2.04      0.00
   -6    0   14      1.42      0.00
   -4    0   14      0.34      0.00
   -2    0   14      8.40      0.00
    0    0   14     12.36      0.00
    2    0   14     26.81      0.00
    4    0   14      5.73      0.00
    6    0   14     -0.13      0.00
    8    0   14      0.54      0.00
   10    0   14     -1.28      0.00
  -11    1   14      2.26      0.00
  -10    1   14     -1.22      0.00
   -9    1   14      5.36      0.00
   -8    1   14      0.93      0.00
   -7    1   14      0.52      0.00
   -6    1   14      3.85      0.00
   -5    1   14     -4.24      0.00
   -4    1   14      8.70      0.00
   -3    1   14    -14.38      0.00
   -2    1   14    -12.02      0.00
   -1    1   14    -29.38      0.00
    0    1   14    -13.80      0.00
    1    1   14     -0.62      0.00
    2    1   14     -7.61      0.00
    3    1   14    -12.57      0.00
    4    1   14      4.81      0.00
    5    1   14      0.66      0.00
    6    1   14      1.34      0.00
    7    1   14      1.13      0.00
    8    1   14     -1.34      0.00
    9    1   14      1.56      0.00
   10    1   14     -0.76      0.00
  -11    2   14      2.07      0.00
  -10    2   14     -2.34      0.00
   -9    2   14     -3.52      0.00
   -8    2   14     -1.92      0.00
   -7    2   14     -2.77      0.00
   -6    2   14     -4.12      0.00
   -5    2   14     -5.50      0.00
   -4    2   14     10.90      0.00
   -3    2   14     -1.95      0.00
   -2    2   14     30.19      0.00
   -1    2   14     13.91      0.00
    0    2   14     -1.32      0.00
    1    2   14      1.95      0.00
    2    2   14      0.65      0.00
    3    2   14     -2.09      0.00
    4    2   14      0.59      0.00
    5    2   14      1.60      0.00
    6    2   14      4.68      0.00
    7    2   14      1.78      0.00
    8    2   14      0.65      0.00
    9    2   14      0.94      0.00
   10    2   14     -3.42      0.00
  -10    3   14     -0.05      0.00
   -9    3   14      5.17      0.00
   -8    3   14      3.56      0.00
   -7    3   14      4.39      0.00
   -6    3   14      4.49      0.00
   -5    3   14     -2.45      0.00
   -4    3   14     -3.11      0.00
   -3    3   14    -24.60      0.00
   -2    3   14     -3.51      0.00
   -1    3   14     -2.37      0.00
    0    3   14      6.88      0.00
    1    3   14     11.21      0.00
    2    3   14     -5.77      0.00
    3    3   14     -3.10      0.00
    4    3   14     -3.54      0.00
    5    3   14     -4.99      0.00
    6    3   14     -5.12      0.00
    7    3   14     -1.78      0.00
    8    3   14      0.78      0.00
    9    3   14      1.63      0.00
   10    3   14      0.62      0.00
  -10    4   14     -4.93      0.00
   -9    4   14     -1.63      0.00
   -8    4   14     -0.78      0.00
   -7    4   14     -2.92      0.00
   -6    4   14      2.37      0.00
   -5    4   14      5.40      0.00
   -4    4   14     10.32      0.00
   -3    4   14     -6.58      0.00
   -2    4   14     12.25      0.00
   -1    4   14     -2.65      0.00
    0    4   14    -17.65      0.00
    1    4   14      3.66      0.00
    2    4   14      8.87      0.00
    3    4   14      8.02      0.00
    4    4   14     14.25      0.00
    5    4   14      3.92      0.00
    6    4   14      5.63      0.00
    7    4   14     -4.45      0.00
    8    4   14     -2.06      0.00
    9    4   14      0.51      0.00
   10    4   14     -2.95      0.00
  -10    5   14     -0.20      0.00
   -9    5   14      1.58      0.00
   -8    5   14      1.44      0.00
   -7    5   14      1.84      0.00
   -6    5   14     -0.74      0.00
   -5    5   14     -2.76      0.00
   -4    5   14      3.35      0.00
   -3    5   14     -9.74      0.00
   -2    5   14     16.14      0.00
   -1    5   14      7.42      0.00
    0    5   14    -14.07      0.00
    1    5   14      5.05      0.00
    2    5   14    -14.32      0.00
    3    5   14      0.87      0.00
    4    5   14     -4.38      0.00
    5    5   14     -2.30      0.00
    6    5   14      1.70      0.00
    7    5   14     -1.12      0.00
    8    5   14      4.30      0.00
    9    5   14     -3.98      0.00
   10    5   14     -0.62      0.00
  -10    6   14     -4.52      0.00
   -9    6   14      3.59      0.00
   -8    6   14      0.87      0.00
   -7    6   14      1.11      0.00
   -6    6   14      2.94      0.00
   -5    6   14      3.83      0.00
   -4    6   14      1.05      0.00
   -3    6   14    -10.30      0.00
   -2    6   14     22.38      0.00
   -1    6   14    -11.36      0.00
    0    6   14     -0.78      0.00
    1    6   14      7.08      0.00
    2    6   14      2.15      0.00
    3    6   14      6.87      0.00
    4    6   14     -0.73      0.00
    5    6   14      2.48      0.00
    6    6   14     -2.21      0.00
    7    6   14     -0.04      0.00
    8    6   14      3.79      0.00
    9    6   14     -0.30      0.00
   10    6   14      0.64      0.00
  -10    7   14      1.48      0.00
   -9    7   14      0.48      0.00
   -8    7   14      0.38      0.00
   -7    7   14     -0.27      0.00
   -6    7   14     -1.12      0.00
   -5    7   14      3.01      0.00
   -4    7   14      1.98      0.00
   -3    7   14      1.84      0.00
   -2    7   14     15.07      0.00
   -1    7   14     -7.45      0.00
    0    7   14      1.96      0.00
    1    7   14     -0.42      0.00
    2    7   14      1.67      0.00
    3    7   14     -3.30      0.00
    4    7   14     -7.37      0.00
    5    7   14     -0.30      0.00
    6    7   14     -6.74      0.00
    7    7   14      2.19      0.00
    8    7   14     -0.41      0.00
    9    7   14     -3.31      0.00
  -10    8   14     -1.55      0.00
   -9    8   14      7.64      0.00
   -8    8   14      0.26      0.00
   -7    8   14      0.69      0.00
   -6    8   14      1.50      0.00
   -5    8   14     -1.72      0.00
   -4    8   14     -3.57      0.00
   -3    8   14     -0.68      0.00
   -2    8   14      6.10      0.00
   -1    8   14     -4.49      0.00
    0    8   14      8.55      0.00
    1    8   14      4.69      0.00
    2    8   14     14.69      0.00
    3    8   14      0.53      0.00
    4    8   14      3.99      0.00
    5    8   14      0.66      0.00
    6    8   14     -1.92      0.00
    7    8   14      3.46      0.00
    8    8   14     -2.12      0.00
    9    8   14     -1.00      0.00
  -10    9   14      0.64      0.00
   -9    9   14      0.74      0.00
   -8    9   14     -0.83      0.00
   -7    9   14     -0.02      0.00
   -6    9   14      2.08      0.00
   -5    9   14     -1.02      0.00
   -4    9   14     10.19      0.00
   -3    9   14      2.04      0.00
   -2    9   14     -2.95      0.00
   -1    9   14     -4.64      0.00
    0    9   14     -9.93      0.00
    1    9   14      1.14      0.00
    2    9   14     -6.50      0.00
    3    9   14     -9.00      0.00
    4    9   14      1.45      0.00
    5    9   14     -1.55      0.00
    6    9   14      0.94      0.00
    7    9   14      3.48      0.00
    8    9   14     -1.10      0.00
    9    9   14     -1.41      0.00
   -9   10   14      3.06      0.00
   -8   10   14     -1.08      0.00
   -7   10   14      0.26      0.00
   -6   10   14     -3.48      0.00
   -5   10   14     -5.46      0.00
   -4   10   14      6.93      0.00
   -3   10   14     -6.72      0.00
   -2   10   14     13.67      0.00
   -1   10   14      6.91      0.00
    0   10   14      3.08      0.00
    1   10   14     11.62      0.00
    2   10   14     -0.83      0.00
    3   10   14      0.51      0.00
    4   10   14     -3.54      0.00
    5   10   14     -1.50      0.00
    6   10   14      1.58      0.00
    7   10   14     -0.34      0.00
    8   10   14      0.33      0.00
    9   10   14      0.04      0.00
   -9   11   14     -0.34      0.00
   -8   11   14      2.39      0.00
   -7   11   14     -0.32      0.00
   -6   11   14     -2.08      0.00
   -5   11   14      2.04      0.00
   -4   11   14      1.71      0.00
   -3   11   14     -8.92      0.00
   -2   11   14     -2.40      0.00
   -1   11   14     -5.73      0.00
    0   11   14      2.21      0.00
    1   11   14      6.35      0.00
    2   11   14     -5.98      0.00
    3   11   14      2.60      0.00
    4   11   14      0.84      0.00
    5   11   14     -1.29      0.00
    6   11   14     -0.86      0.00
    7   11   14     -2.92      0.00
    8   11   14     -1.61      0.00
   -9   12   14      0.41      0.00
   -8   12   14      4.42      0.00
   -7   12   14     -4.42      0.00
   -6   12   14     -0.92      0.00
   -5   12   14      0.20      0.00
   -4   12   14      0.34      0.00
   -3   12   14     -6.39      0.00
   -2   12   14      3.56      0.00
   -1   12   14     -0.34      0.00
    0   12   14     -4.84      0.00
    1   12   14      4.26      0.00
    2   12   14     -2.82      0.00
    3   12   14      4.67      0.00
    4   12   14      0.75      0.00
    5   12   14      5.38      0.00
    6   12   14      2.92      0.00
    7   12   14     -1.69      0.00
    8   12   14      1.65      0.00
   -8   13   14      3.00      0.00
   -7   13   14     -1.82      0.00
   -6   13   14      3.07      0.00
   -5   13   14      0.20      0.00
   -4   13   14     -2.36      0.00
   -3   13   14     -2.60      0.00
   -2   13   14     -2.50      0.00
   -1   13   14      0.96      0.00
    0   13   14      1.55      0.00
    1   13   14      2.44      0.00
    2   13   14     -4.88      0.00
    3   13   14      2.44      0.00
    4   13   14     -2.27      0.00
    5   13   14      1.56      0.00
    6   13   14     -2.18      0.00
    7   13   14     -1.10      0.00
    8   13   14      1.21      0.00
   -8   14   14     -0.20      0.00
   -7   14   14     -3.49      0.00
   -6   14   14      0.10      0.00
   -5   14   14     -3.16      0.00
   -4   14   14     -0.67      0.00
   -3   14   14     -8.17      0.00
   -2   14   14      1.29      0.00
   -1   14   14     -0.66      0.00
    0   14   14     -5.75      0.00
    1   14   14      1.95      0.00
    2   14   14     -3.05      0.00
    3   14   14      2.14      0.00
    4   14   14      0.02      0.00
    5   14   14      3.16      0.00
    6   14   14     -1.58      0.00
    7   14   14     -0.99      0.00
   -7   15   14      0.92      0.00
   -6   15   14     -2.06      0.00
   -5   15   14     -0.06      0.00
   -4   15   14     -3.82      0.00
   -3   15   14     -1.34      0.00
   -2   15   14      1.47      0.00
   -1   15   14     -0.37      0.00
    0   15   14      4.94      0.00
    1   15   14      0.13      0.00
    2   15   14      0.51      0.00
    3   15   14      0.29      0.00
    4   15   14     -1.03      0.00
    5   15   14      1.89      0.00
    6   15   14     -1.39      0.00
    7   15   14      1.17      0.00
   -7   16   14     -0.59      0.00
   -6   16   14     -0.48      0.00
   -5   16   14     -0.91      0.00
   -4   16   14     -3.35      0.00
   -3   16   14     -2.32      0.00
   -2   16   14     -3.74      0.00
   -1   16   14     -0.33      0.00
    0   16   14     -2.86      0.00
    1   16   14      0.03      0.00
    2   16   14      0.53      0.00
    3   16   14     -0.79      0.00
    4   16   14      1.62      0.00
    5   16   14      1.02      0.00
    6   16   14     -3.52      0.00
   -6   17   14     -0.27      0.00
   -5   17   14     -0.52      0.00
   -4   17   14      1.59      0.00
   -3   17   14      1.70      0.00
   -2   17   14     -0.20      0.00
   -1   17   14      1.02      0.00
    0   17   14     -1.55      0.00
    1   17   14     -1.00      0.00
    2   17   14     -0.68      0.00
    3   17   14     -2.23      0.00
    4   17   14      1.04      0.00
    5   17   14      2.37      0.00
   -5   18   14     -2.02      0.00
   -4   18   14      1.33      0.00
   -3   18   14     -1.43      0.00
   -2   18   14     -1.28      0.00
   -1   18   14      3.69      0.00
    0   18   14     -0.36      0.00
    1   18   14      3.61      0.00
    2   18   14     -1.14      0.00
    3   18   14     -0.51      0.00
    4   18   14     -0.89      0.00
    5   18   14     -1.95      0.00
   -4   19   14      1.53      0.00
   -3   19   14     -1.74      0.00
   -2   19   14     -0.33      0.00
   -1   19   14     -2.36      0.00
    0   19   14     -1.43      0.00
    1   19   14      0.08      0.00
    2   19   14     -0.02      0.00
    3   19   14      0.66      0.00
    4   19   14      1.07      0.00
   -3   20   14      0.69      0.00
   -2   20   14     -2.24      0.00
   -1   20   14      1.56      0.00
    0   20   14      1.55      0.00
    1   20   14      1.19      0.00
    2   20   14      0.25      0.00
   -9    0   15     -2.05      0.00
   -7    0   15     -2.28      0.00
   -5    0   15      1.95      0.00
   -3    0   15     -2.99      0.00
   -1    0   15    -23.39      0.00
    1    0   15    -12.32      0.00
    3    0   15     12.09      0.00
    5    0   15     -1.98      0.00
    7    0   15     -0.43      0.00
    9    0   15      0.62      0.00
  -10    1   15     -1.48      0.00
   -9    1   15     -0.86      0.00
   -8    1   15     -4.78      0.00
   -7    1   15     -0.41      0.00
   -6    1   15      0.59      0.00
   -5    1   15      2.47      0.00
   -4    1   15     -6.04      0.00
   -3    1   15      4.30      0.00
   -2    1   15      7.11      0.00
   -1    1   15    -13.25      0.00
    0    1   15     20.33      0.00
    1    1   15    -10.20      0.00
    2    1   15      5.97      0.00
    3    1   15      3.71      0.00
    4    1   15      8.59      0.00
    5    1   15      6.20      0.00
    6    1   15      4.74      0.00
    7    1   15     -0.96      0.00
    8    1   15     -6.30      0.00
    9    1   15      1.48      0.00
   10    1   15     -0.66      0.00
  -10    2   15     -2.93      0.00
   -9    2   15      0.17      0.00
   -8    2   15      2.16      0.00
   -7    2   15     -4.17      0.00
   -6    2   15      1.95      0.00
   -5    2   15     -1.88      0.00
   -4    2   15     -3.66      0.00
   -3    2   15     13.33      0.00
   -2    2   15      2.19      0.00
   -1    2   15     -9.39      0.00
    0    2   15     -3.06      0.00
    1    2   15    -12.80      0.00
    2    2   15      8.60      0.00
    3    2   15    -14.59      0.00
    4    2   15    -12.10      0.00
    5    2   15     -6.34      0.00
    6    2   15     -0.43      0.00
    7    2   15      0.84      0.00
    8    2   15      2.30      0.00
    9    2   15     -0.45      0.00
   10    2   15     -1.51      0.00
  -10    3   15     -2.69      0.00
   -9    3   15      2.49      0.00
   -8    3   15      0.69      0.00
   -7    3   15     -0.27      0.00
   -6    3   15      1.63      0.00
   -5    3   15     -7.42      0.00
   -4    3   15     -7.85      0.00
   -3    3   15     -2.33      0.00
   -2    3   15     -5.71      0.00
   -1    3   15     -5.48      0.00
    0    3   15     17.69      0.00
    1    3   15      9.17      0.00
    2    3   15     14.60      0.00
    3    3   15      5.04      0.00
    4    3   15      7.98      0.00
    5    3   15     -1.70      0.00
    6    3   15     -0.73      0.00
    7    3   15     -5.68      0.00
    8    3   15     -1.05      0.00
    9    3   15      4.01      0.00
   10    3   15      2.66      0.00
  -10    4   15     -1.63      0.00
   -9    4   15      2.54      0.00
   -8    4   15      1.63      0.00
   -7    4   15     -1.14      0.00
   -6    4   15      4.29      0.00
   -5    4   15     -0.87      0.00
   -4    4   15      0.64      0.00
   -3    4   15      1.84      0.00
   -2    4   15     -0.79      0.00
   -1    4   15    -21.52      0.00
    0    4   15      4.34      0.00
    1    4   15      1.76      0.00
    2    4   15      4.57      0.00
    3    4   15    -11.12      0.00
    4    4   15     -1.69      0.00
    5    4   15      2.25      0.00
    6    4   15      0.82      0.00
    7    4   15     -1.92      0.00
    8    4   15     -0.01      0.00
    9    4   15     -3.89      0.00
   10    4   15      0.18      0.00
  -10    5   15     -0.60      0.00
   -9    5   15      3.48      0.00
   -8    5   15      0.61      0.00
   -7    5   15     -3.05      0.00
   -6    5   15      0.78      0.00
   -5    5   15      0.52      0.00
   -4    5   15     -1.47      0.00
   -3    5   15      0.85      0.00
   -2    5   15     -9.63      0.00
   -1    5   15    -13.95      0.00
    0    5   15     14.40      0.00
    1    5   15    -10.68      0.00
    2    5   15      9.73      0.00
    3    5   15     -6.55      0.00
    4    5   15      2.46      0.00
    5    5   15      0.51      0.00
    6    5   15     -0.55      0.00
    7    5   15      2.07      0.00
    8    5   15      0.47      0.00
    9    5   15      2.44      0.00
   10    5   15      3.29      0.00
  -10    6   15      1.95      0.00
   -9    6   15      2.91      0.00
   -8    6   15     -2.39      0.00
   -7    6   15     -3.40      0.00
   -6    6   15      0.04      0.00
   -5    6   15     -3.88      0.00
   -4    6   15     -1.74      0.00
   -3    6   15     10.20      0.00
   -2    6   15      1.44      0.00
   -1    6   15     -1.46      0.00
    0    6   15     17.45      0.00
    1    6   15     -8.95      0.00
    2    6   15      2.62      0.00
    3    6   15    -14.85      0.00
    4    6   15      8.83      0.00
    5    6   15     -1.33      0.00
    6    6   15     -1.15      0.00
    7    6   15      0.01      0.00
    8    6   15     -2.52      0.00
    9    6   15     -0.13      0.00
  -10    7   15      2.02      0.00
   -9    7   15      1.75      0.00
   -8    7   15     -1.90      0.00
   -7    7   15      2.71      0.00
   -6    7   15      5.46      0.00
   -5    7   15     -0.90      0.00
   -4    7   15     -2.87      0.00
   -3    7   15    -11.49      0.00
   -2    7   15    -11.85      0.00
   -1    7   15      3.93      0.00
    0    7   15      6.41      0.00
    1    7   15     -0.22      0.00
    2    7   15      6.27      0.00
    3    7   15     -8.79      0.00
    4    7   15      1.73      0.00
    5    7   15     -2.32      0.00
    6    7   15      0.82      0.00
    7    7   15      1.07      0.00
    8    7   15     -1.36      0.00
    9    7   15      1.86      0.00
  -10    8   15      4.69      0.00
   -9    8   15      0.86      0.00
   -8    8   15     -6.02      0.00
   -7    8   15     -0.53      0.00
   -6    8   15      0.54      0.00
   -5    8   15      3.13      0.00
   -4    8   15      7.13      0.00
   -3    8   15      1.64      0.00
   -2    8   15      2.84      0.00
   -1    8   15     -7.67      0.00
    0    8   15      6.22      0.00
    1    8   15     -9.58      0.00
    2    8   15      3.97      0.00
    3    8   15      2.85      0.00
    4    8   15      8.31      0.00
    5    8   15     -1.32      0.00
    6    8   15     -2.22      0.00
    7    8   15     -0.09      0.00
    8    8   15     -3.77      0.00
    9    8   15      0.77      0.00
   -9    9   15     -2.43      0.00
   -8    9   15      0.36      0.00
   -7    9   15      3.39      0.00
   -6    9   15     -1.24      0.00
   -5    9   15     -0.22      0.00
   -4    9   15     -2.26      0.00
   -3    9   15     -3.94      0.00
   -2    9   15      4.21      0.00
   -1    9   15      2.14      0.00
    0    9   15      1.42      0.00
    1    9   15     -5.59      0.00
    2    9   15     -3.43      0.00
    3    9   15     -4.79      0.00
    4    9   15      1.10      0.00
    5    9   15      1.35      0.00
    6    9   15      1.79      0.00
    7    9   15      1.21      0.00
    8    9   15     -3.50      0.00
    9    9   15      0.56      0.00
   -9   10   15     -0.85      0.00
   -8   10   15     -0.92      0.00
   -7   10   15     -1.22      0.00
   -6   10   15      3.43      0.00
   -5   10   15      2.99      0.00
   -4   10   15      0.43      0.00
   -3   10   15      2.14      0.00
   -2   10   15      3.32      0.00
   -1   10   15     -0.02      0.00
    0   10   15      5.87      0.00
    1   10   15     -4.23      0.00
    2   10   15      6.58      0.00
    3   10   15     -2.60      0.00
    4   10   15     -5.24      0.00
    5   10   15     -4.77      0.00
    6   10   15     -2.13      0.00
    7   10   15     -0.25      0.00
    8   10   15     -0.23      0.00
    9   10   15      3.01      0.00
   -9   11   15      2.01      0.00
   -8   11   15      1.05      0.00
   -7   11   15     -1.99      0.00
   -6   11   15      0.18      0.00
   -5   11   15     -3.54      0.00
   -4   11   15      1.75      0.00
   -3   11   15      0.78      0.00
   -2   11   15     -0.23      0.00
   -1   11   15      6.66      0.00
    0   11   15     -2.12      0.00
    1   11   15      3.95      0.00
    2   11   15     -0.09      0.00
    3   11   15      3.56      0.00
    4   11   15     -1.05      0.00
    5   11   15     -1.13      0.00
    6   11   15     -3.07      0.00
    7   11   15     -1.59      0.00
    8   11   15     -2.54      0.00
   -8   12   15      0.38      0.00
   -7   12   15      0.47      0.00
   -6   12   15      2.08      0.00
   -5   12   15     -1.19      0.00
   -4   12   15      3.71      0.00
   -3   12   15     -3.93      0.00
   -2   12   15      7.38      0.00
   -1   12   15     -1.52      0.00
    0   12   15      0.91      0.00
    1   12   15      3.95      0.00
    2   12   15      2.92      0.00
    3   12   15     -1.85      0.00
    4   12   15     -4.00      0.00
    5   12   15      2.11      0.00
    6   12   15     -2.91      0.00
    7   12   15      0.02      0.00
    8   12   15     -0.36      0.00
   -8   13   15     -2.57      0.00
   -7   13   15     -0.32      0.00
   -6   13   15     -3.74      0.00
   -5   13   15      2.09      0.00
   -4   13   15      2.10      0.00
   -3   13   15      2.88      0.00
   -2   13   15      1.07      0.00
   -1   13   15      1.71      0.00
    0   13   15     -0.80      0.00
    1   13   15     -1.04      0.00
    2   13   15     -1.14      0.00
    3   13   15     -1.84      0.00
    4   13   15     -2.64      0.00
    5   13   15     -1.04      0.00
    6   13   15     -1.50      0.00
    7   13   15      3.26      0.00
   -8   14   15     -0.02      0.00
   -7   14   15     -2.48      0.00
   -6   14   15     -2.53      0.00
   -5   14   15      0.65      0.00
   -4   14   15     -2.11      0.00
   -3   14   15     -1.21      0.00
   -2   14   15      6.07      0.00
   -1   14   15      0.97      0.00
    0   14   15      4.51      0.00
    1   14   15      4.50      0.00
    2   14   15      2.34      0.00
    3   14   15     -3.00      0.00
    4   14   15      0.52      0.00
    5   14   15     -0.48      0.00
    6   14   15     -1.94      0.00
    7   14   15     -0.31      0.00
   -7   15   15      0.54      0.00
   -6   15   15     -1.53      0.00
   -5   15   15      3.54      0.00
   -4   15   15      0.28      0.00
   -3   15   15      0.52      0.00
   -2   15   15     -3.96      0.00
   -1   15   15      2.37      0.00
    0   15   15     -2.89      0.00
    1   15   15     -0.59      0.00
    2   15   15     -0.42      0.00
    3   15   15     -2.68      0.00
    4   15   15     -0.97      0.00
    5   15   15     -2.36      0.00
    6   15   15     -0.14      0.00
   -6   16   15     -0.78      0.00
   -5   16   15      0.23      0.00
   -4   16   15     -1.85      0.00
   -3   16   15     -4.40      0.00
   -2   16   15      4.78      0.00
   -1   16   15     -0.19      0.00
    0   16   15      0.76      0.00
    1   16   15      2.25      0.00
    2   16   15     -0.91      0.00
    3   16   15      1.27      0.00
    4   16   15      3.99      0.00
    5   16   15      1.76      0.00
    6   16   15      0.09      0.00
   -6   17   15      0.13      0.00
   -5   17   15      4.72      0.00
   -4   17   15     -1.47      0.00
   -3   17   15     -0.44      0.00
   -2   17   15      0.68      0.00
   -1   17   15     -0.96      0.00
    0   17   15     -0.90      0.00
    1   17   15     -1.08      0.00
    2   17   15     -1.81      0.00
    3   17   15     -3.75      0.00
    4   17   15     -3.57      0.00
    5   17   15     -0.66      0.00
   -5   18   15     -2.05      0.00
   -4   18   15     -2.51      0.00
   -3   18   15     -0.89      0.00
   -2   18   15      1.32      0.00
   -1   18   15      2.25      0.00
    0   18   15     -0.65      0.00
    1   18   15     -0.18      0.00
    2   18   15     -0.04      0.00
    3   18   15      1.60      0.00
    4   18   15      2.42      0.00
   -4   19   15      0.01      0.00
   -3   19   15     -0.98      0.00
   -2   19   15     -0.31      0.00
   -1   19   15     -0.21      0.00
    0   19   15     -0.14      0.00
    1   19   15      1.10      0.00
    2   19   15     -1.27      0.00
    3   19   15     -3.78      0.00
   -2   20   15      0.82      0.00
   -1   20   15      1.09      0.00
    0   20   15     -2.76      0.00
    1   20   15     -0.09      0.00
  -10    0   16      0.44      0.00
   -8    0   16     -4.58      0.00
   -6    0   16      4.47      0.00
   -4    0   16      8.81      0.00
   -2    0   16     -7.91      0.00
    0    0   16     14.97      0.00
    2    0   16      0.58      0.00
    4    0   16      2.68      0.00
    6    0   16      2.73      0.00
    8    0   16      1.63      0.00
   10    0   16     -1.94      0.00
  -10    1   16     -1.03      0.00
   -9    1   16     -1.07      0.00
   -8    1   16      0.85      0.00
   -7    1   16      4.46      0.00
   -6    1   16     -0.99      0.00
   -5    1   16      0.96      0.00
   -4    1   16      2.62      0.00
   -3    1   16     -1.43      0.00
   -2    1   16     -2.04      0.00
   -1    1   16     -1.74      0.00
    0    1   16     -3.47      0.00
    1    1   16     -2.67      0.00
    2    1   16     -5.23      0.00
    3    1   16     -5.89      0.00
    4    1   16      0.78      0.00
    5    1   16     -4.34      0.00
    6    1   16      3.26      0.00
    7    1   16     -1.34      0.00
    8    1   16      1.22      0.00
    9    1   16      1.62      0.00
   10    1   16     -0.62      0.00
  -10    2   16      0.12      0.00
   -9    2   16     -1.50      0.00
   -8    2   16     -3.57      0.00
   -7    2   16     -0.64      0.00
   -6    2   16      0.96      0.00
   -5    2   16     -0.33      0.00
   -4    2   16     10.61      0.00
   -3    2   16     -1.36      0.00
   -2    2   16      7.15      0.00
   -1    2   16      8.27      0.00
    0    2   16      9.15      0.00
    1    2   16     -8.42      0.00
    2    2   16     -7.85      0.00
    3    2   16     -2.34      0.00
    4    2   16     -1.03      0.00
    5    2   16      4.98      0.00
    6    2   16      0.73      0.00
    7    2   16      2.71      0.00
    8    2   16      2.56      0.00
    9    2   16     -2.50      0.00
   10    2   16     -0.07      0.00
  -10    3   16      0.76      0.00
   -9    3   16      1.71      0.00
   -8    3   16      1.18      0.00
   -7    3   16     -0.65      0.00
   -6    3   16     -2.22      0.00
   -5    3   16     -1.28      0.00
   -4    3   16     -7.81      0.00
   -3    3   16     -3.99      0.00
   -2    3   16      2.75      0.00
   -1    3   16      6.55      0.00
    0    3   16     14.35      0.00
    1    3   16     -3.76      0.00
    2    3   16      3.92      0.00
    3    3   16    -10.21      0.00
    4    3   16      0.52      0.00
    5    3   16     -6.19      0.00
    6    3   16     -1.31      0.00
    7    3   16     -1.74      0.00
    8    3   16      0.65      0.00
    9    3   16      2.03      0.00
   10    3   16     -1.18      0.00
  -10    4   16     -0.71      0.00
   -9    4   16     -1.35      0.00
   -8    4   16     -0.64      0.00
   -7    4   16     -0.11      0.00
   -6    4   16      2.55      0.00
   -5    4   16      1.63      0.00
   -4    4   16      0.80      0.00
   -3    4   16     -3.42      0.00
   -2    4   16     -5.01      0.00
   -1    4   16      0.51      0.00
    0    4   16    -11.61      0.00
    1    4   16     -7.32      0.00
    2    4   16      5.96      0.00
    3    4   16     -1.31      0.00
    4    4   16     12.61      0.00
    5    4   16      0.90      0.00
    6    4   16      1.99      0.00
    7    4   16      0.83      0.00
    8    4   16      0.07      0.00
    9    4   16     -0.94      0.00
  -10    5   16     -0.96      0.00
   -9    5   16      1.25      0.00
   -8    5   16     -2.61      0.00
   -7    5   16     -0.29      0.00
   -6    5   16     -0.23      0.00
   -5    5   16     -1.99      0.00
   -4    5   16     -2.17      0.00
   -3    5   16      0.76      0.00
   -2    5   16      8.16      0.00
   -1    5   16      4.12      0.00
    0    5   16     -6.11      0.00
    1    5   16     -3.23      0.00
    2    5   16     -3.20      0.00
    3    5   16     -8.23      0.00
    4    5   16      5.03      0.00
    5    5   16     -5.01      0.00
    6    5   16      3.54      0.00
    7    5   16     -1.78      0.00
    8    5   16      0.95      0.00
    9    5   16     -0.50      0.00
  -10    6   16      0.74      0.00
   -9    6   16     -1.93      0.00
   -8    6   16     -1.25      0.00
   -7    6   16      0.98      0.00
   -6    6   16     -1.91      0.00
   -5    6   16     -1.43      0.00
   -4    6   16     -4.19      0.00
   -3    6   16      0.52      0.00
   -2    6   16      6.58      0.00
   -1    6   16     -8.85      0.00
    0    6   16     -2.62      0.00
    1    6   16     -0.51      0.00
    2    6   16     -3.50      0.00
    3    6   16     -4.52      0.00
    4    6   16      0.25      0.00
    5    6   16     -4.93      0.00
    6    6   16     -0.68      0.00
    7    6   16      0.59      0.00
    8    6   16      3.19      0.00
    9    6   16      0.77      0.00
  -10    7   16      0.21      0.00
   -9    7   16      0.05      0.00
   -8    7   16      0.59      0.00
   -7    7   16      2.83      0.00
   -6    7   16     -2.87      0.00
   -5    7   16     -0.73      0.00
   -4    7   16     -9.88      0.00
   -3    7   16     -1.41      0.00
   -2    7   16      4.53      0.00
   -1    7   16     -9.77      0.00
    0    7   16      7.86      0.00
    1    7   16      1.30      0.00
    2    7   16     10.18      0.00
    3    7   16     -0.14      0.00
    4    7   16      5.06      0.00
    5    7   16     -0.32      0.00
    6    7   16     -0.33      0.00
    7    7   16     -3.11      0.00
    8    7   16     -1.72      0.00
    9    7   16      0.76      0.00
   -9    8   16     -3.60      0.00
   -8    8   16     -0.13      0.00
   -7    8   16      0.00      0.00
   -6    8   16      1.88      0.00
   -5    8   16      0.77      0.00
   -4    8   16     -3.87      0.00
   -3    8   16      6.92      0.00
   -2    8   16    -11.06      0.00
   -1    8   16     -9.25      0.00
    0    8   16      3.90      0.00
    1    8   16     -8.95      0.00
    2    8   16     -2.36      0.00
    3    8   16     -5.71      0.00
    4    8   16      2.89      0.00
    5    8   16     -2.14      0.00
    6    8   16      2.19      0.00
    7    8   16      2.74      0.00
    8    8   16      0.80      0.00
    9    8   16      0.53      0.00
   -9    9   16     -0.56      0.00
   -8    9   16      1.58      0.00
   -7    9   16     -1.01      0.00
   -6    9   16      0.61      0.00
   -5    9   16     -1.73      0.00
   -4    9   16     -0.14      0.00
   -3    9   16     -0.92      0.00
   -2    9   16     -1.20      0.00
   -1    9   16     -7.23      0.00
    0    9   16      1.10      0.00
    1    9   16      0.14      0.00
    2    9   16      3.27      0.00
    3    9   16     -0.35      0.00
    4    9   16      3.18      0.00
    5    9   16      2.94      0.00
    6    9   16     -0.11      0.00
    7    9   16     -1.35      0.00
    8    9   16      0.91      0.00
    9    9   16      3.06      0.00
   -9   10   16     -2.34      0.00
   -8   10   16     -4.05      0.00
   -7   10   16     -0.66      0.00
   -6   10   16      1.23      0.00
   -5   10   16     -1.78      0.00
   -4   10   16      0.40      0.00
   -3   10   16      1.76      0.00
   -2   10   16     -1.72      0.00
   -1   10   16      2.61      0.00
    0   10   16      3.61      0.00
    1   10   16    -10.26      0.00
    2   10   16     -6.72      0.00
    3   10   16     -5.07      0.00
    4   10   16     -1.85      0.00
    5   10   16      0.06      0.00
    6   10   16     -0.35      0.00
    7   10   16      3.81      0.00
    8   10   16     -1.67      0.00
   -9   11   16      1.00      0.00
   -8   11   16      0.35      0.00
   -7   11   16      1.39      0.00
   -6   11   16      3.45      0.00
   -5   11   16      1.81      0.00
   -4   11   16     -3.23      0.00
   -3   11   16     -6.36      0.00
   -2   11   16     -1.23      0.00
   -1   11   16     -4.61      0.00
    0   11   16      7.02      0.00
    1   11   16      1.74      0.00
    2   11   16      4.24      0.00
    3   11   16      1.65      0.00
    4   11   16      2.52      0.00
    5   11   16     -0.27      0.00
    6   11   16     -1.04      0.00
    7   11   16      0.82      0.00
    8   11   16     -0.20      0.00
   -8   12   16     -4.00      0.00
   -7   12   16      0.86      0.00
   -6   12   16      3.04      0.00
   -5   12   16      3.50      0.00
   -4   12   16     -0.56      0.00
   -3   12   16      7.13      0.00
   -2   12   16     -3.14      0.00
   -1   12   16     -1.46      0.00
    0   12   16     -4.53      0.00
    1   12   16     -9.45      0.00
    2   12   16     -2.88      0.00
    3   12   16     -1.95      0.00
    4   12   16      2.54      0.00
    5   12   16     -0.33      0.00
    6   12   16      0.37      0.00
    7   12   16      0.96      0.00
    8   12   16     -2.93      0.00
   -8   13   16     -1.52      0.00
   -7   13   16      3.20      0.00
   -6   13   16      4.12      0.00
   -5   13   16     -1.13      0.00
   -4   13   16     -1.17      0.00
   -3   13   16      1.65      0.00
   -2   13   16      1.70      0.00
   -1   13   16      5.57      0.00
    0   13   16      1.34      0.00
    1   13   16     -0.20      0.00
    2   13   16     -1.04      0.00
    3   13   16     -0.09      0.00
    4   13   16      0.92      0.00
    5   13   16     -1.49      0.00
    6   13   16      3.64      0.00
    7   13   16      0.51      0.00
   -7   14   16      1.86      0.00
   -6   14   16     -0.44      0.00
   -5   14   16      3.04      0.00
   -4   14   16     -0.40      0.00
   -3   14   16      3.49      0.00
   -2   14   16      2.00      0.00
   -1   14   16     -2.54      0.00
    0   14   16      0.35      0.00
    1   14   16     -1.82      0.00
    2   14   16     -1.73      0.00
    3   14   16      0.85      0.00
    4   14   16     -1.85      0.00
    5   14   16     -2.94      0.00
    6   14   16     -1.23      0.00
    7   14   16     -0.97      0.00
   -7   15   16      4.06      0.00
   -6   15   16     -1.91      0.00
   -5   15   16      1.01      0.00
   -4   15   16     -4.54      0.00
   -3   15   16      3.10      0.00
   -2   15   16      0.14      0.00
   -1   15   16      0.85      0.00
    0   15   16      1.37      0.00
    1   15   16     -0.60      0.00
    2   15   16      1.65      0.00
    3   15   16      3.40      0.00
    4   15   16      2.18      0.00
    5   15   16      0.54      0.00
    6   15   16      1.95      0.00
   -6   16   16      2.11      0.00
   -5   16   16      5.07      0.00
   -4   16   16     -1.74      0.00
   -3   16   16      7.16      0.00
   -2   16   16      0.09      0.00
   -1   16   16     -2.78      0.00
    0   16   16      1.52      0.00
    1   16   16     -3.77      0.00
    2   16   16     -0.19      0.00
    3   16   16      1.08      0.00
    4   16   16     -1.68      0.00
    5   16   16     -0.99      0.00
    6   16   16     -1.55      0.00
   -5   17   16     -0.91      0.00
   -4   17   16     -2.04      0.00
   -3   17   16      3.01      0.00
   -2   17   16     -3.61      0.00
   -1   17   16      3.15      0.00
    0   17   16     -0.55      0.00
    1   17   16      0.04      0.00
    2   17   16      0.18      0.00
    3   17   16      3.75      0.00
    5   17   16      0.86      0.00
   -4   18   16      0.81      0.00
   -3   18   16      1.47      0.00
   -2   18   16      1.36      0.00
   -1   18   16     -0.42      0.00
    0   18   16      0.71      0.00
    1   18   16     -2.16      0.00
    2   18   16      0.02      0.00
    3   18   16      1.22      0.00
    4   18   16     -1.96      0.00
   -3   19   16     -0.22      0.00
   -2   19   16     -2.15      0.00
   -1   19   16      1.59      0.00
    0   19   16      1.30      0.00
    1   19   16     -1.14      0.00
    2   19   16      1.74      0.00
    3   19   16      2.04      0.00
   -1   20   16      1.12      0.00
    0   20   16     -2.02      0.00
   -9    0   17      2.29      0.00
   -7    0   17      3.41      0.00
   -5    0   17     -5.50      0.00
   -3    0   17    -18.07      0.00
   -1    0   17     -3.64      0.00
    1    0   17     -5.51      0.00
    3    0   17     10.19      0.00
    5    0   17     -0.26      0.00
    7    0   17     -4.27      0.00
    9    0   17      1.60      0.00
  -10    1   17     -3.39      0.00
   -9    1   17     -1.17      0.00
   -8    1   17      1.58      0.00
   -7    1   17     -1.87      0.00
   -6    1   17      2.49      0.00
   -5    1   17      2.22      0.00
   -4    1   17      7.35      0.00
   -3    1   17      4.89      0.00
   -2    1   17      5.56      0.00
   -1    1   17     -8.05      0.00
    0    1   17     -9.05      0.00
    1    1   17     -1.97      0.00
    2    1   17      0.43      0.00
    3    1   17     -1.07      0.00
    4    1   17      3.07      0.00
    5    1   17      3.54      0.00
    6    1   17      4.42      0.00
    7    1   17      0.52      0.00
    8    1   17      0.05      0.00
    9    1   17     -1.39      0.00
  -10    2   17      0.90      0.00
   -9    2   17      1.81      0.00
   -8    2   17      1.20      0.00
   -7    2   17      0.27      0.00
   -6    2   17      1.70      0.00
   -5    2   17     -8.25      0.00
   -4    2   17      3.24      0.00
   -3    2   17     -5.24      0.00
   -2    2   17      7.79      0.00
   -1    2   17      7.40      0.00
    0    2   17     -1.00      0.00
    1    2   17     -3.18      0.00
    2    2   17      1.48      0.00
    3    2   17     -2.93      0.00
    4    2   17     -1.86      0.00
    5    2   17     -6.64      0.00
    6    2   17     -0.80      0.00
    7    2   17      2.05      0.00
    8    2   17      0.94      0.00
    9    2   17      2.83      0.00
  -10    3   17     -2.95      0.00
   -9    3   17      0.02      0.00
   -8    3   17      0.23      0.00
   -7    3   17     -1.01      0.00
   -6    3   17      3.35      0.00
   -5    3   17     -3.44      0.00
   -4    3   17      6.45      0.00
   -3    3   17      0.42      0.00
   -2    3   17     -1.73      0.00
   -1    3   17     -2.36      0.00
    0    3   17      1.53      0.00
    1    3   17     13.29      0.00
    2    3   17     -3.87      0.00
    3    3   17      4.61      0.00
    4    3   17      5.13      0.00
    5    3   17     -3.87      0.00
    6    3   17      2.67      0.00
    7    3   17     -3.87      0.00
    8    3   17      0.24      0.00
    9    3   17      0.60      0.00
  -10    4   17      0.75      0.00
   -9    4   17      1.16      0.00
   -8    4   17     -0.05      0.00
   -7    4   17     -0.68      0.00
   -6    4   17      1.07      0.00
   -5    4   17     -3.94      0.00
   -4    4   17      8.54      0.00
   -3    4   17     -6.57      0.00
   -2    4   17      5.91      0.00
   -1    4   17     -4.37      0.00
    0    4   17      0.80      0.00
    1    4   17      2.73      0.00
    2    4   17      1.32      0.00
    3    4   17      2.74      0.00
    4    4   17      2.31      0.00
    5    4   17      0.97      0.00
    6    4   17      5.42      0.00
    7    4   17      1.42      0.00
    8    4   17     -1.93      0.00
    9    4   17     -0.12      0.00
  -10    5   17     -2.01      0.00
   -9    5   17      0.47      0.00
   -8    5   17     -0.35      0.00
   -7    5   17     -0.74      0.00
   -6    5   17     -1.05      0.00
   -5    5   17     -0.76      0.00
   -4    5   17      7.65      0.00
   -3    5   17      1.91      0.00
   -2    5   17     -1.16      0.00
   -1    5   17     -3.09      0.00
    0    5   17      6.00      0.00
    1    5   17    -10.94      0.00
    2    5   17     -6.59      0.00
    3    5   17     -3.93      0.00
    4    5   17      2.28      0.00
    5    5   17     -4.16      0.00
    6    5   17      4.96      0.00
    7    5   17     -0.61      0.00
    8    5   17      3.05      0.00
    9    5   17      1.52      0.00
  -10    6   17      0.84      0.00
   -9    6   17     -1.37      0.00
   -8    6   17      0.89      0.00
   -7    6   17     -1.31      0.00
   -6    6   17     -0.62      0.00
   -5    6   17     -2.84      0.00
   -4    6   17      7.56      0.00
   -3    6   17     -0.55      0.00
   -2    6   17      5.88      0.00
   -1    6   17      8.31      0.00
    0    6   17      6.40      0.00
    1    6   17      2.22      0.00
    2    6   17      1.79      0.00
    3    6   17     -4.98      0.00
    4    6   17      5.35      0.00
    5    6   17     -2.52      0.00
    6    6   17      3.23      0.00
    7    6   17     -3.03      0.00
    8    6   17      0.50      0.00
    9    6   17     -0.78      0.00
   -9    7   17      1.31      0.00
   -8    7   17      1.05      0.00
   -7    7   17     -0.77      0.00
   -6    7   17     -0.19      0.00
   -5    7   17     -2.03      0.00
   -4    7   17      2.17      0.00
   -3    7   17     -9.97      0.00
   -2    7   17      4.23      0.00
   -1    7   17      2.02      0.00
    0    7   17      1.48      0.00
    1    7   17     -3.06      0.00
    2    7   17      1.58      0.00
    3    7   17     -1.00      0.00
    4    7   17      2.14      0.00
    5    7   17     -3.93      0.00
    6    7   17      0.12      0.00
    7    7   17     -2.80      0.00
    8    7   17      2.10      0.00
    9    7   17     -0.07      0.00
   -9    8   17     -0.54      0.00
   -8    8   17      3.04      0.00
   -7    8   17     -0.10      0.00
   -6    8   17      0.27      0.00
   -5    8   17     -0.03      0.00
   -4    8   17      7.69      0.00
   -3    8   17     -7.22      0.00
   -2    8   17      6.83      0.00
   -1    8   17     -2.74      0.00
    0    8   17      0.26      0.00
    1    8   17     -2.11      0.00
    2    8   17     -0.76      0.00
    3    8   17      5.30      0.00
    4    8   17      8.15      0.00
    5    8   17      2.90      0.00
    6    8   17      1.13      0.00
    7    8   17      1.18      0.00
    8    8   17     -0.41      0.00
    9    8   17     -1.07      0.00
   -9    9   17      0.30      0.00
   -8    9   17      1.75      0.00
   -7    9   17     -0.19      0.00
   -6    9   17      0.15      0.00
   -5    9   17     -1.58      0.00
   -4    9   17     -3.02      0.00
   -3    9   17     -1.27      0.00
   -2    9   17     12.67      0.00
   -1    9   17     -7.19      0.00
    0    9   17      3.19      0.00
    1    9   17     -4.03      0.00
    2    9   17      1.58      0.00
    3    9   17     -6.53      0.00
    4    9   17      0.41      0.00
    5    9   17     -2.83      0.00
    6    9   17     -1.03      0.00
    7    9   17      1.19      0.00
    8    9   17      0.92      0.00
   -9   10   17     -0.81      0.00
   -8   10   17      1.62      0.00
   -7   10   17     -0.74      0.00
   -6   10   17      1.20      0.00
   -5   10   17     -4.83      0.00
   -4   10   17      0.92      0.00
   -3   10   17     -0.91      0.00
   -2   10   17      0.29      0.00
   -1   10   17      2.38      0.00
    0   10   17     -1.39      0.00
    1   10   17     -0.32      0.00
    2   10   17      3.73      0.00
    3   10   17      3.83      0.00
    4   10   17      5.74      0.00
    5   10   17     -2.62      0.00
    6   10   17      3.06      0.00
    7   10   17      0.05      0.00
    8   10   17     -0.86      0.00
   -8   11   17      1.91      0.00
   -7   11   17      0.08      0.00
   -6   11   17      0.85      0.00
   -5   11   17     -6.60      0.00
   -4   11   17      1.21      0.00
   -3   11   17     -1.82      0.00
   -2   11   17      2.05      0.00
   -1   11   17     -5.90      0.00
    0   11   17     -0.67      0.00
    1   11   17      1.98      0.00
    2   11   17     -1.34      0.00
    3   11   17     -0.49      0.00
    4   11   17      3.55      0.00
    5   11   17     -0.30      0.00
    6   11   17      2.20      0.00
    7   11   17     -2.71      0.00
    8   11   17      3.01      0.00
   -8   12   17      1.84      0.00
   -7   12   17      2.16      0.00
   -6   12   17     -1.12      0.00
   -5   12   17     -2.40      0.00
   -4   12   17      5.38      0.00
   -3   12   17     -3.02      0.00
   -2   12   17     -1.93      0.00
   -1   12   17     -0.01      0.00
    0   12   17     -3.77      0.00
    1   12   17      1.95      0.00
    2   12   17     -0.01      0.00
    3   12   17      0.58      0.00
    4   12   17      2.93      0.00
    5   12   17      1.14      0.00
    6   12   17      5.80      0.00
    7   12   17     -0.08      0.00
   -8   13   17      1.55      0.00
   -7   13   17     -0.02      0.00
   -6   13   17     -0.84      0.00
   -5   13   17      1.31      0.00
   -4   13   17      2.38      0.00
   -3   13   17     -0.07      0.00
   -2   13   17      1.03      0.00
   -1   13   17     -6.51      0.00
    0   13   17     -1.57      0.00
    1   13   17     -1.66      0.00
    2   13   17     -1.14      0.00
    3   13   17      0.36      0.00
    4   13   17      1.37      0.00
    5   13   17      0.43      0.00
    6   13   17     -0.66      0.00
    7   13   17     -2.65      0.00
   -7   14   17     -2.40      0.00
   -6   14   17     -1.32      0.00
   -5   14   17      1.92      0.00
   -4   14   17     -0.87      0.00
   -3   14   17      0.99      0.00
   -2   14   17     -2.79      0.00
   -1   14   17      4.21      0.00
    0   14   17     -0.82      0.00
    1   14   17      0.42      0.00
    2   14   17     -0.47      0.00
    3   14   17     -2.73      0.00
    4   14   17      3.24      0.00
    5   14   17      1.89      0.00
    6   14   17      3.94      0.00
   -7   15   17      1.61      0.00
   -6   15   17      2.44      0.00
   -5   15   17      0.58      0.00
   -4   15   17      1.74      0.00
   -3   15   17     -1.42      0.00
   -2   15   17     -2.83      0.00
   -1   15   17     -0.72      0.00
    0   15   17     -2.09      0.00
    1   15   17      3.19      0.00
    2   15   17     -0.04      0.00
    3   15   17      1.25      0.00
    4   15   17      0.36      0.00
    5   15   17     -1.75      0.00
    6   15   17     -2.53      0.00
   -6   16   17      0.69      0.00
   -5   16   17      2.11      0.00
   -4   16   17     -0.40      0.00
   -3   16   17      0.01      0.00
   -2   16   17      0.47      0.00
   -1   16   17     -1.44      0.00
    0   16   17     -2.49      0.00
    1   16   17     -0.05      0.00
    2   16   17     -0.86      0.00
    3   16   17     -0.01      0.00
    4   16   17      2.52      0.00
    5   16   17      2.73      0.00
   -5   17   17      1.42      0.00
   -4   17   17      0.32      0.00
   -3   17   17      1.07      0.00
   -2   17   17      1.56      0.00
   -1   17   17      1.88      0.00
    0   17   17     -0.26      0.00
    1   17   17      0.55      0.00
    2   17   17     -0.20      0.00
    3   17   17      0.64      0.00
    4   17   17     -2.87      0.00
   -4   18   17     -1.34      0.00
   -3   18   17      3.38      0.00
   -2   18   17     -1.78      0.00
   -1   18   17     -0.38      0.00
    0   18   17     -1.73      0.00
    1   18   17     -0.03      0.00
    2   18   17      1.00      0.00
    3   18   17     -0.13      0.00
   -3   19   17      1.02      0.00
   -2   19   17     -0.47      0.00
   -1   19   17      3.68      0.00
    0   19   17     -3.91      0.00
    1   19   17      2.38      0.00
    2   19   17      0.61      0.00
  -10    0   18      1.47      0.00
   -8    0   18      0.63      0.00
   -6    0   18     -2.64      0.00
   -4    0   18     -7.46      0.00
   -2    0   18     -5.01      0.00
    0    0   18     -2.77      0.00
    2    0   18     -8.94      0.00
    4    0   18      3.55      0.00
    6    0   18     -0.34      0.00
    8    0   18      3.13      0.00
  -10    1   18     -0.58      0.00
   -9    1   18      0.88      0.00
   -8    1   18      0.02      0.00
   -7    1   18     -3.20      0.00
   -6    1   18      1.97      0.00
   -5    1   18     -1.09      0.00
   -4    1   18      1.97      0.00
   -3    1   18     -6.16      0.00
   -2    1   18      4.98      0.00
   -1    1   18     -2.40      0.00
    0    1   18     -2.39      0.00
    1    1   18      3.47      0.00
    2    1   18     -9.80      0.00
    3    1   18      7.23      0.00
    4    1   18     -3.50      0.00
    5    1   18      0.04      0.00
    6    1   18      2.38      0.00
    7    1   18      0.71      0.00
    8    1   18     -1.58      0.00
    9    1   18     -4.98      0.00
  -10    2   18     -0.65      0.00
   -9    2   18     -0.52      0.00
   -8    2   18     -0.98      0.00
   -7    2   18     -0.74      0.00
   -6    2   18     -3.33      0.00
   -5    2   18      0.89      0.00
   -4    2   18     -8.92      0.00
   -3    2   18     -1.54      0.00
   -2    2   18      2.97      0.00
   -1    2   18     -5.08      0.00
    0    2   18      5.49      0.00
    1    2   18     -6.80      0.00
    2    2   18     -5.16      0.00
    3    2   18      7.37      0.00
    4    2   18     -6.68      0.00
    5    2   18     -2.59      0.00
    6    2   18     -1.35      0.00
    7    2   18      0.06      0.00
    8    2   18      1.98      0.00
    9    2   18     -1.33      0.00
  -10    3   18     -0.42      0.00
   -9    3   18      0.48      0.00
   -8    3   18      1.32      0.00
   -7    3   18     -0.57      0.00
   -6    3   18      3.51      0.00
   -5    3   18      0.92      0.00
   -4    3   18     -3.14      0.00
   -3    3   18      5.32      0.00
   -2    3   18      2.60      0.00
   -1    3   18     -0.60      0.00
    0    3   18      9.32      0.00
    1    3   18     -7.21      0.00
    2    3   18      5.68      0.00
    3    3   18      6.90      0.00
    4    3   18     -0.83      0.00
    5    3   18      2.36      0.00
    6    3   18     -0.50      0.00
    7    3   18     -1.83      0.00
    8    3   18     -2.94      0.00
    9    3   18     -2.74      0.00
  -10    4   18     -3.07      0.00
   -9    4   18     -0.17      0.00
   -8    4   18     -0.97      0.00
   -7    4   18      0.51      0.00
   -6    4   18      1.45      0.00
   -5    4   18      1.02      0.00
   -4    4   18     -8.85      0.00
   -3    4   18     -0.47      0.00
   -2    4   18     -9.23      0.00
   -1    4   18     -5.55      0.00
    0    4   18     -4.48      0.00
    1    4   18     -6.98      0.00
    2    4   18      9.24      0.00
    3    4   18     -1.94      0.00
    4    4   18      0.93      0.00
    5    4   18     -3.71      0.00
    6    4   18      1.67      0.00
    7    4   18     -1.53      0.00
    8    4   18     -0.86      0.00
    9    4   18      0.35      0.00
  -10    5   18     -1.87      0.00
   -9    5   18     -0.44      0.00
   -8    5   18      0.04      0.00
   -7    5   18     -1.19      0.00
   -6    5   18      2.07      0.00
   -5    5   18      3.27      0.00
   -4    5   18      6.55      0.00
   -3    5   18      9.87      0.00
   -2    5   18      1.58      0.00
   -1    5   18      1.24      0.00
    0    5   18     -2.88      0.00
    1    5   18     -6.13      0.00
    2    5   18      6.44      0.00
    3    5   18      3.67      0.00
    4    5   18      4.99      0.00
    5    5   18      0.51      0.00
    6    5   18      3.67      0.00
    7    5   18     -0.84      0.00
    8    5   18     -0.83      0.00
    9    5   18     -2.54      0.00
   -9    6   18      1.30      0.00
   -8    6   18      0.33      0.00
   -7    6   18     -0.58      0.00
   -6    6   18     -1.31      0.00
   -5    6   18     -0.80      0.00
   -4    6   18     -5.66      0.00
   -3    6   18     -0.93      0.00
   -2    6   18      5.08      0.00
   -1    6   18     -7.57      0.00
    0    6   18      5.80      0.00
    1    6   18     -0.18      0.00
    2    6   18     -1.46      0.00
    3    6   18     -8.88      0.00
    4    6   18     -5.37      0.00
    5    6   18     -4.64      0.00
    6    6   18     -0.75      0.00
    7    6   18     -0.21      0.00
    8    6   18      0.75      0.00
    9    6   18      2.07      0.00
   -9    7   18      1.15      0.00
   -8    7   18     -0.98      0.00
   -7    7   18     -0.78      0.00
   -6    7   18      2.57      0.00
   -5    7   18      4.97      0.00
   -4    7   18     -2.03      0.00
   -3    7   18      6.12      0.00
   -2    7   18     -2.00      0.00
   -1    7   18     -4.49      0.00
    0    7   18      9.99      0.00
    1    7   18      0.59      0.00
    2    7   18     14.61      0.00
    3    7   18      4.67      0.00
    4    7   18      4.24      0.00
    5    7   18     -1.88      0.00
    6    7   18      2.39      0.00
    7    7   18      0.01      0.00
    8    7   18     -1.93      0.00
    9    7   18      0.36      0.00
   -9    8   18      3.10      0.00
   -8    8   18     -0.03      0.00
   -7    8   18     -2.85      0.00
   -6    8   18      1.28      0.00
   -5    8   18      1.11      0.00
   -4    8   18      0.38      0.00
   -3    8   18      4.16      0.00
   -2    8   18     -0.91      0.00
   -1    8   18     -8.40      0.00
    0    8   18      7.06      0.00
    1    8   18     -7.47      0.00
    2    8   18     -4.31      0.00
    3    8   18     -2.37      0.00
    4    8   18      0.02      0.00
    5    8   18     -1.99      0.00
    6    8   18      0.65      0.00
    7    8   18     -1.86      0.00
    8    8   18     -0.20      0.00
   -9    9   18      0.09      0.00
   -8    9   18     -1.53      0.00
   -7    9   18      0.52      0.00
   -6    9   18      1.07      0.00
   -5    9   18     -1.80      0.00
   -4    9   18      0.82      0.00
   -3    9   18      7.17      0.00
   -2    9   18     -1.28      0.00
   -1    9   18      3.01      0.00
    0    9   18      8.38      0.00
    1    9   18      0.25      0.00
    2    9   18      1.78      0.00
    3    9   18     -0.41      0.00
    4    9   18     -1.75      0.00
    5    9   18     -0.10      0.00
    6    9   18      3.93      0.00
    7    9   18      0.99      0.00
    8    9   18      2.22      0.00
   -8   10   18     -0.90      0.00
   -7   10   18     -1.61      0.00
   -6   10   18     -0.70      0.00
   -5   10   18     -0.86      0.00
   -4   10   18      2.96      0.00
   -3   10   18     -2.53      0.00
   -2   10   18      3.76      0.00
   -1   10   18     -1.45      0.00
    0   10   18      9.29      0.00
    1   10   18     -4.51      0.00
    2   10   18      2.92      0.00
    3   10   18      4.76      0.00
    4   10   18     -4.23      0.00
    5   10   18     -3.50      0.00
    6   10   18     -2.78      0.00
    7   10   18     -2.54      0.00
    8   10   18      0.01      0.00
   -8   11   18      2.33      0.00
   -7   11   18     -0.11      0.00
   -6   11   18     -1.60      0.00
   -5   11   18     -0.46      0.00
   -4   11   18     -3.86      0.00
   -3   11   18      2.91      0.00
   -2   11   18     -1.93      0.00
   -1   11   18      1.96      0.00
    0   11   18      6.57      0.00
    1   11   18     -2.91      0.00
    2   11   18      3.55      0.00
    3   11   18      2.11      0.00
    4   11   18      1.64      0.00
    5   11   18      0.88      0.00
    6   11   18      0.33      0.00
    7   11   18      0.77      0.00
   -8   12   18      1.61      0.00
   -7   12   18     -1.27      0.00
   -6   12   18      0.40      0.00
   -5   12   18     -0.76      0.00
   -4   12   18     -0.33      0.00
   -3   12   18      0.28      0.00
   -2   12   18     -1.55      0.00
   -1   12   18      2.86      0.00
    0   12   18      0.12      0.00
    1   12   18     -2.29      0.00
    2   12   18      5.75      0.00
    3   12   18      1.17      0.00
    4   12   18     -0.16      0.00
    5   12   18     -2.46      0.00
    6   12   18      1.39      0.00
    7   12   18     -0.57      0.00
   -7   13   18     -1.07      0.00
   -6   13   18     -1.35      0.00
   -5   13   18     -4.85      0.00
   -4   13   18     -1.64      0.00
   -3   13   18      2.19      0.00
   -2   13   18     -0.07      0.00
   -1   13   18      2.15      0.00
    0   13   18     -0.20      0.00
    1   13   18      0.52      0.00
    2   13   18      1.00      0.00
    3   13   18      0.88      0.00
    4   13   18     -0.13      0.00
    5   13   18     -0.96      0.00
    6   13   18      0.00      0.00
    7   13   18      0.88      0.00
   -7   14   18      1.80      0.00
   -6   14   18     -3.71      0.00
   -5   14   18     -1.32      0.00
   -4   14   18     -0.95      0.00
   -3   14   18     -1.28      0.00
   -2   14   18      2.01      0.00
   -1   14   18      1.61      0.00
    0   14   18     -1.29      0.00
    1   14   18      1.76      0.00
    2   14   18      1.45      0.00
    3   14   18     -0.11      0.00
    4   14   18     -0.99      0.00
    5   14   18     -3.83      0.00
    6   14   18      2.08      0.00
   -6   15   18     -5.86      0.00
   -5   15   18     -1.73      0.00
   -4   15   18     -2.69      0.00
   -3   15   18     -0.32      0.00
   -2   15   18     -1.09      0.00
   -1   15   18     -4.17      0.00
    0   15   18      3.48      0.00
    1   15   18     -0.85      0.00
    2   15   18      0.95      0.00
    3   15   18      2.24      0.00
    4   15   18      1.39      0.00
    5   15   18     -0.32      0.00
    6   15   18     -0.27      0.00
   -6   16   18     -2.40      0.00
   -5   16   18      2.37      0.00
   -4   16   18     -0.32      0.00
   -3   16   18      3.59      0.00
   -2   16   18     -1.96      0.00
   -1   16   18     -0.08      0.00
    0   16   18     -1.07      0.00
    1   16   18      0.09      0.00
    2   16   18     -1.66      0.00
    3   16   18     -2.25      0.00
    4   16   18     -1.75      0.00
    5   16   18     -1.24      0.00
   -5   17   18     -0.22      0.00
   -4   17   18     -0.42      0.00
   -3   17   18     -1.53      0.00
   -2   17   18     -0.51      0.00
   -1   17   18     -0.99      0.00
    0   17   18     -0.28      0.00
    1   17   18     -0.44      0.00
    2   17   18      0.06      0.00
    3   17   18      2.85      0.00
    4   17   18     -0.76      0.00
   -4   18   18      0.17      0.00
   -3   18   18     -0.05      0.00
   -2   18   18     -0.74      0.00
   -1   18   18      0.29      0.00
    0   18   18      0.97      0.00
    1   18   18      0.12      0.00
    2   18   18     -2.68      0.00
    3   18   18     -0.41      0.00
   -2   19   18     -0.55      0.00
   -1   19   18     -2.16      0.00
    0   19   18     -1.08      0.00
    1   19   18      1.23      0.00
   -9    0   19      3.74      0.00
   -7    0   19     -1.51      0.00
   -5    0   19     -1.83      0.00
   -3    0   19     -0.20      0.00
   -1    0   19     -6.61      0.00
    1    0   19      5.52      0.00
    3    0   19     11.14      0.00
    5    0   19      8.00      0.00
    7    0   19     -2.70      0.00
    9    0   19     -1.65      0.00
  -10    1   19     -1.33      0.00
   -9    1   19     -0.51      0.00
   -8    1   19     -2.17      0.00
   -7    1   19     -0.69      0.00
   -6    1   19      0.16      0.00
   -5    1   19     -0.43      0.00
   -4    1   19      7.27      0.00
   -3    1   19      6.27      0.00
   -2    1   19      8.70      0.00
   -1    1   19     -4.08      0.00
    0    1   19     -6.77      0.00
    1    1   19     -5.88      0.00
    2    1   19     -0.66      0.00
    3    1   19     -5.03      0.00
    4    1   19    -11.35      0.00
    5    1   19      2.09      0.00
    6    1   19     -3.71      0.00
    7    1   19      1.78      0.00
    8    1   19      0.33      0.00
    9    1   19      0.24      0.00
  -10    2   19      3.18      0.00
   -9    2   19      2.13      0.00
   -8    2   19      0.21      0.00
   -7    2   19      0.82      0.00
   -6    2   19      0.79      0.00
   -5    2   19     -6.68      0.00
   -4    2   19     -2.03      0.00
   -3    2   19      3.84      0.00
   -2    2   19    -10.57      0.00
   -1    2   19     14.61      0.00
    0    2   19      3.72      0.00
    1    2   19      6.79      0.00
    2    2   19      1.57      0.00
    3    2   19     -1.10      0.00
    4    2   19     -2.33      0.00
    5    2   19     -1.49      0.00
    6    2   19     -1.81      0.00
    7    2   19     -0.90      0.00
    8    2   19      2.31      0.00
    9    2   19     -1.25      0.00
  -10    3   19     -1.18      0.00
   -9    3   19      0.04      0.00
   -8    3   19     -0.66      0.00
   -7    3   19     -0.89      0.00
   -6    3   19     -0.29      0.00
   -5    3   19     -3.07      0.00
   -4    3   19      9.09      0.00
   -3    3   19     -5.68      0.00
   -2    3   19     -5.66      0.00
   -1    3   19     -0.11      0.00
    0    3   19    -10.76      0.00
    1    3   19      6.57      0.00
    2    3   19     -0.76      0.00
    3    3   19      0.02      0.00
    4    3   19     -2.52      0.00
    5    3   19     -0.24      0.00
    6    3   19     -3.34      0.00
    7    3   19      1.00      0.00
    8    3   19     -0.75      0.00
    9    3   19      1.35      0.00
  -10    4   19      1.88      0.00
   -9    4   19      0.64      0.00
   -8    4   19      2.42      0.00
   -7    4   19      3.38      0.00
   -6    4   19     -0.45      0.00
   -5    4   19     -1.96      0.00
   -4    4   19      3.58      0.00
   -3    4   19     -4.03      0.00
   -2    4   19     -4.06      0.00
   -1    4   19     13.17      0.00
    0    4   19     -2.35      0.00
    1    4   19      2.95      0.00
    2    4   19     -0.92      0.00
    3    4   19     -1.24      0.00
    4    4   19      0.00      0.00
    5    4   19     -0.97      0.00
    6    4   19      1.99      0.00
    7    4   19      0.04      0.00
    8    4   19     -0.39      0.00
    9    4   19     -0.25      0.00
   -9    5   19     -0.69      0.00
   -8    5   19     -1.22      0.00
   -7    5   19     -1.84      0.00
   -6    5   19      0.34      0.00
   -5    5   19      0.97      0.00
   -4    5   19      3.55      0.00
   -3    5   19     -7.65      0.00
   -2    5   19     -2.74      0.00
   -1    5   19      1.59      0.00
    0    5   19    -10.11      0.00
    1    5   19     -3.13      0.00
    2    5   19     -3.16      0.00
    3    5   19     -2.06      0.00
    4    5   19      1.20      0.00
    5    5   19     -2.20      0.00
    6    5   19      0.08      0.00
    7    5   19      1.06      0.00
    8    5   19     -1.47      0.00
    9    5   19      1.12      0.00
   -9    6   19      0.21      0.00
   -8    6   19      0.09      0.00
   -7    6   19      0.97      0.00
   -6    6   19      0.87      0.00
   -5    6   19     -0.18      0.00
   -4    6   19      0.90      0.00
   -3    6   19     -2.59      0.00
   -2    6   19      3.98      0.00
   -1    6   19     10.98      0.00
    0    6   19     -3.96      0.00
    1    6   19      3.06      0.00
    2    6   19     -1.10      0.00
    3    6   19     -3.23      0.00
    4    6   19      2.29      0.00
    5    6   19     -2.67      0.00
    6    6   19      3.88      0.00
    7    6   19     -2.49      0.00
    8    6   19      1.59      0.00
   -9    7   19     -0.87      0.00
   -8    7   19     -1.53      0.00
   -7    7   19      0.94      0.00
   -6    7   19      2.17      0.00
   -5    7   19     -1.65      0.00
   -4    7   19      1.26      0.00
   -3    7   19     -7.72      0.00
   -2    7   19      4.11      0.00
   -1    7   19      2.14      0.00
    0    7   19     -6.98      0.00
    1    7   19      0.92      0.00
    2    7   19     -0.96      0.00
    3    7   19      4.58      0.00
    4    7   19     -1.87      0.00
    5    7   19     -0.91      0.00
    6    7   19      0.58      0.00
    7    7   19     -2.83      0.00
    8    7   19      0.23      0.00
   -9    8   19      0.25      0.00
   -8    8   19     -1.28      0.00
   -7    8   19      0.51      0.00
   -6    8   19      2.50      0.00
   -5    8   19      2.07      0.00
   -4    8   19     -0.70      0.00
   -3    8   19     -4.58      0.00
   -2    8   19      3.18      0.00
   -1    8   19    -10.51      0.00
    0    8   19     -1.26      0.00
    1    8   19     -2.69      0.00
    2    8   19      0.71      0.00
    3    8   19      3.10      0.00
    4    8   19      0.31      0.00
    5    8   19      3.62      0.00
    6    8   19      0.40      0.00
    7    8   19      0.26      0.00
    8    8   19      2.58      0.00
   -9    9   19     -1.99      0.00
   -8    9   19      0.73      0.00
   -7    9   19     -1.42      0.00
   -6    9   19      2.26      0.00
   -5    9   19      0.94      0.00
   -4    9   19      4.47      0.00
   -3    9   19      6.65      0.00
   -2    9   19      6.51      0.00
   -1    9   19     -0.99      0.00
    0    9   19     -2.70      0.00
    1    9   19     -7.20      0.00
    2    9   19      0.37      0.00
    3    9   19     -3.41      0.00
    4    9   19     -2.98      0.00
    5    9   19      1.62      0.00
    6    9   19     -1.22      0.00
    7    9   19      0.48      0.00
    8    9   19     -0.70      0.00
   -8   10   19     -1.18      0.00
   -7   10   19     -3.00      0.00
   -6   10   19      3.88      0.00
   -5   10   19     -3.83      0.00
   -4   10   19     -2.19      0.00
   -3   10   19     -0.23      0.00
   -2   10   19     -2.53      0.00
   -1   10   19     -1.58      0.00
    0   10   19      4.57      0.00
    1   10   19      0.60      0.00
    2   10   19      3.43      0.00
    3   10   19     -3.27      0.00
    4   10   19     -4.51      0.00
    5   10   19     -0.33      0.00
    6   10   19     -1.91      0.00
    7   10   19      1.16      0.00
    8   10   19      0.72      0.00
   -8   11   19      0.62      0.00
   -7   11   19     -2.95      0.00
   -6   11   19      4.75      0.00
   -5   11   19     -0.81      0.00
   -4   11   19      8.23      0.00
   -3   11   19      1.26      0.00
   -2   11   19     -2.48      0.00
   -1   11   19     -0.61      0.00
    0   11   19     -4.58      0.00
    1   11   19      2.33      0.00
    2   11   19      2.10      0.00
    3   11   19      0.40      0.00
    4   11   19      2.14      0.00
    5   11   19      0.15      0.00
    6   11   19     -1.00      0.00
    7   11   19      0.20      0.00
   -7   12   19      0.07      0.00
   -6   12   19      1.02      0.00
   -5   12   19     -0.22      0.00
   -4   12   19      3.80      0.00
   -3   12   19     -1.98      0.00
   -2   12   19      2.52      0.00
   -1   12   19     -1.31      0.00
    0   12   19      1.01      0.00
    1   12   19      0.32      0.00
    2   12   19     -3.10      0.00
    3   12   19     -3.28      0.00
    4   12   19     -3.68      0.00
    5   12   19      1.52      0.00
    6   12   19     -0.28      0.00
    7   12   19      1.44      0.00
   -7   13   19     -2.74      0.00
   -6   13   19      2.12      0.00
   -5   13   19      3.02      0.00
   -4   13   19      1.19      0.00
   -3   13   19      1.53      0.00
   -2   13   19     -1.18      0.00
   -1   13   19     -0.86      0.00
    0   13   19      4.04      0.00
    1   13   19      1.54      0.00
    2   13   19      1.38      0.00
    3   13   19     -1.20      0.00
    4   13   19      1.18      0.00
    5   13   19     -2.33      0.00
    6   13   19      0.32      0.00
   -6   14   19     -1.10      0.00
   -5   14   19      0.36      0.00
   -4   14   19     -1.84      0.00
   -3   14   19      0.65      0.00
   -2   14   19     -0.50      0.00
   -1   14   19      1.93      0.00
    0   14   19      0.83      0.00
    1   14   19      1.94      0.00
    2   14   19     -0.88      0.00
    3   14   19      0.47      0.00
    4   14   19     -0.99      0.00
    5   14   19      0.48      0.00
    6   14   19      1.32      0.00
   -6   15   19      3.57      0.00
   -5   15   19     -0.60      0.00
   -4   15   19     -0.87      0.00
   -3   15   19     -1.57      0.00
   -2   15   19     -2.92      0.00
   -1   15   19      1.47      0.00
    0   15   19      3.04      0.00
    1   15   19     -0.22      0.00
    2   15   19     -0.08      0.00
    3   15   19      0.33      0.00
    4   15   19      1.03      0.00
    5   15   19     -1.59      0.00
   -5   16   19      1.31      0.00
   -4   16   19     -0.35      0.00
   -3   16   19     -1.17      0.00
   -2   16   19      0.81      0.00
   -1   16   19     -1.42      0.00
    0   16   19      0.28      0.00
    1   16   19      2.25      0.00
    2   16   19     -1.63      0.00
    3   16   19      2.73      0.00
    4   16   19     -1.60      0.00
   -4   17   19     -2.23      0.00
   -3   17   19      1.69      0.00
   -2   17   19      1.36      0.00
   -1   17   19      0.76      0.00
    0   17   19      3.36      0.00
    1   17   19     -2.01      0.00
    2   17   19      0.27      0.00
    3   17   19      0.08      0.00
   -3   18   19     -0.43      0.00
   -2   18   19     -2.92      0.00
   -1   18   19      0.50      0.00
    0   18   19      1.14      0.00
    1   18   19      1.54      0.00
    2   18   19     -1.20      0.00
  -10    0   20     -3.74      0.00
   -8    0   20     -1.72      0.00
   -6    0   20      7.29      0.00
   -4    0   20      3.41      0.00
   -2    0   20     -6.78      0.00
    0    0   20      1.99      0.00
    2    0   20      3.17      0.00
    4    0   20      3.40      0.00
    6    0   20     -4.55      0.00
    8    0   20     -1.98      0.00
   -9    1   20      2.92      0.00
   -8    1   20     -1.33      0.00
   -7    1   20      1.09      0.00
   -6    1   20     -0.07      0.00
   -5    1   20      2.23      0.00
   -4    1   20      5.48      0.00
   -3    1   20      4.78      0.00
   -2    1   20      1.97      0.00
   -1    1   20      0.47      0.00
    0    1   20     -9.60      0.00
    1    1   20     -3.27      0.00
    2    1   20     -6.32      0.00
    3    1   20     -4.53      0.00
    4    1   20     -0.04      0.00
    5    1   20      5.92      0.00
    6    1   20      4.22      0.00
    7    1   20      4.92      0.00
    8    1   20      0.10      0.00
    9    1   20     -0.90      0.00
   -9    2   20     -2.02      0.00
   -8    2   20      2.07      0.00
   -7    2   20     -0.61      0.00
   -6    2   20      0.49      0.00
   -5    2   20     -5.60      0.00
   -4    2   20      2.85      0.00
   -3    2   20     -2.23      0.00
   -2    2   20      6.92      0.00
   -1    2   20     11.12      0.00
    0    2   20      2.82      0.00
    1    2   20      3.51      0.00
    2    2   20      0.80      0.00
    3    2   20      3.40      0.00
    4    2   20     -5.74      0.00
    5    2   20     -1.75      0.00
    6    2   20     -4.92      0.00
    7    2   20     -0.30      0.00
    8    2   20     -0.48      0.00
    9    2   20      0.70      0.00
   -9    3   20      1.36      0.00
   -8    3   20     -0.22      0.00
   -7    3   20      1.16      0.00
   -6    3   20      2.50      0.00
   -5    3   20      2.33      0.00
   -4    3   20     -1.46      0.00
   -3    3   20     -0.49      0.00
   -2    3   20      0.43      0.00
   -1    3   20     -5.97      0.00
    0    3   20     -3.65      0.00
    1    3   20      5.89      0.00
    2    3   20      2.38      0.00
    3    3   20      1.60      0.00
    4    3   20      2.83      0.00
    5    3   20      3.87      0.00
    6    3   20      1.35      0.00
    7    3   20      1.00      0.00
    8    3   20     -1.76      0.00
    9    3   20     -0.84      0.00
   -9    4   20      0.86      0.00
   -8    4   20      4.39      0.00
   -7    4   20     -3.86      0.00
   -6    4   20     -0.77      0.00
   -5    4   20     -3.97      0.00
   -4    4   20      3.50      0.00
   -3    4   20     -0.89      0.00
   -2    4   20      0.56      0.00
   -1    4   20      1.97      0.00
    0    4   20    -12.59      0.00
    1    4   20      3.05      0.00
    2    4   20      1.79      0.00
    3    4   20      0.36      0.00
    4    4   20     -0.23      0.00
    5    4   20     -0.42      0.00
    6    4   20      1.72      0.00
    7    4   20     -1.21      0.00
    8    4   20      0.24      0.00
    9    4   20      1.55      0.00
   -9    5   20      2.60      0.00
   -8    5   20      0.10      0.00
   -7    5   20      1.62      0.00
   -6    5   20      1.08      0.00
   -5    5   20     -3.37      0.00
   -4    5   20      4.90      0.00
   -3    5   20      2.04      0.00
   -2    5   20      6.01      0.00
   -1    5   20     -5.22      0.00
    0    5   20      1.43      0.00
    1    5   20      5.95      0.00
    2    5   20     -4.77      0.00
    3    5   20      1.10      0.00
    4    5   20     -4.25      0.00
    5    5   20     -1.41      0.00
    6    5   20     -0.18      0.00
    7    5   20     -0.12      0.00
    8    5   20     -0.40      0.00
   -9    6   20      2.22      0.00
   -8    6   20      2.11      0.00
   -7    6   20     -0.53      0.00
   -6    6   20     -1.67      0.00
   -5    6   20     -4.03      0.00
   -4    6   20     -0.42      0.00
   -3    6   20     -5.45      0.00
   -2    6   20      2.57      0.00
   -1    6   20     -4.56      0.00
    0    6   20      0.95      0.00
    1    6   20      6.21      0.00
    2    6   20      5.15      0.00
    3    6   20     -2.51      0.00
    4    6   20     -1.78      0.00
    5    6   20     -0.48      0.00
    6    6   20     -0.80      0.00
    7    6   20     -3.39      0.00
    8    6   20      0.02      0.00
   -9    7   20      3.27      0.00
   -8    7   20     -1.42      0.00
   -7    7   20     -0.03      0.00
   -6    7   20     -1.00      0.00
   -5    7   20     -1.33      0.00
   -4    7   20      5.15      0.00
   -3    7   20     -3.01      0.00
   -2    7   20     -0.03      0.00
   -1    7   20     -5.83      0.00
    0    7   20      5.25      0.00
    1    7   20     -4.13      0.00
    2    7   20      3.73      0.00
    3    7   20     -0.82      0.00
    4    7   20     -0.90      0.00
    5    7   20      0.70      0.00
    6    7   20     -0.90      0.00
    7    7   20      1.64      0.00
    8    7   20     -0.42      0.00
   -9    8   20      2.34      0.00
   -8    8   20      2.23      0.00
   -7    8   20      2.54      0.00
   -6    8   20      1.40      0.00
   -5    8   20     -3.92      0.00
   -4    8   20      1.47      0.00
   -3    8   20     -2.35      0.00
   -2    8   20     -3.38      0.00
   -1    8   20      0.24      0.00
    0    8   20      1.78      0.00
    1    8   20      4.61      0.00
    2    8   20      1.93      0.00
    3    8   20     -5.31      0.00
    4    8   20      3.76      0.00
    5    8   20      0.76      0.00
    6    8   20     -0.66      0.00
    7    8   20     -1.35      0.00
    8    8   20     -0.27      0.00
   -8    9   20     -3.79      0.00
   -7    9   20     -0.24      0.00
   -6    9   20      0.18      0.00
   -5    9   20     -2.92      0.00
   -4    9   20      7.13      0.00
   -3    9   20     -9.59      0.00
   -2    9   20      3.62      0.00
   -1    9   20     -2.08      0.00
    0    9   20     -5.25      0.00
    1    9   20     -3.68      0.00
    2    9   20     -2.88      0.00
    3    9   20     -2.45      0.00
    4    9   20     -1.95      0.00
    5    9   20      0.24      0.00
    6    9   20     -0.82      0.00
    7    9   20      3.09      0.00
    8    9   20     -1.73      0.00
   -8   10   20      1.26      0.00
   -7   10   20      3.12      0.00
   -6   10   20      0.30      0.00
   -5   10   20     -2.36      0.00
   -4   10   20      1.85      0.00
   -3   10   20     -5.26      0.00
   -2   10   20      2.68      0.00
   -1   10   20      0.96      0.00
    0   10   20      4.20      0.00
    1   10   20      3.29      0.00
    2   10   20     -1.38      0.00
    3   10   20      0.26      0.00
    4   10   20      3.12      0.00
    5   10   20      1.49      0.00
    6   10   20     -2.32      0.00
    7   10   20      1.28      0.00
   -8   11   20     -1.00      0.00
   -7   11   20     -0.36      0.00
   -6   11   20      1.04      0.00
   -5   11   20      0.37      0.00
   -4   11   20     -0.33      0.00
   -3   11   20     -5.40      0.00
   -2   11   20      3.05      0.00
   -1   11   20     -4.58      0.00
    0   11   20     -3.46      0.00
    1   11   20     -3.44      0.00
    2   11   20     -3.59      0.00
    3   11   20     -2.38      0.00
    4   11   20     -0.44      0.00
    5   11   20     -0.78      0.00
    6   11   20      2.91      0.00
    7   11   20      0.16      0.00
   -7   12   20      0.83      0.00
   -6   12   20      3.40      0.00
   -5   12   20     -1.68      0.00
   -4   12   20      1.33      0.00
   -3   12   20      0.88      0.00
   -2   12   20     -1.69      0.00
   -1   12   20     -0.34      0.00
    0   12   20     -0.22      0.00
    1   12   20     -0.97      0.00
    2   12   20     -0.16      0.00
    3   12   20     -0.16      0.00
    4   12   20      1.54      0.00
    5   12   20     -0.88      0.00
    6   12   20      0.41      0.00
   -7   13   20     -0.17      0.00
   -6   13   20      3.43      0.00
   -5   13   20     -1.53      0.00
   -4   13   20      3.65      0.00
   -3   13   20      2.11      0.00
   -2   13   20      2.39      0.00
   -1   13   20      1.25      0.00
    0   13   20     -3.70      0.00
    1   13   20     -2.06      0.00
    2   13   20     -3.72      0.00
    3   13   20     -1.26      0.00
    4   13   20     -0.70      0.00
    5   13   20      0.21      0.00
    6   13   20      3.07      0.00
   -6   14   20     -0.60      0.00
   -5   14   20     -0.90      0.00
   -4   14   20      2.26      0.00
   -3   14   20     -1.77      0.00
   -2   14   20      1.42      0.00
   -1   14   20     -0.80      0.00
    0   14   20      2.37      0.00
    1   14   20     -0.98      0.00
    2   14   20      0.84      0.00
    3   14   20     -1.61      0.00
    4   14   20     -2.25      0.00
    5   14   20     -0.17      0.00
   -5   15   20      1.59      0.00
   -4   15   20      2.49      0.00
   -3   15   20      2.32      0.00
   -2   15   20     -1.29      0.00
   -1   15   20     -0.23      0.00
    0   15   20     -1.21      0.00
    1   15   20     -1.22      0.00
    2   15   20      1.95      0.00
    3   15   20     -0.30      0.00
    4   15   20      1.83      0.00
    5   15   20      1.07      0.00
   -5   16   20      2.49      0.00
   -4   16   20      0.62      0.00
   -3   16   20      0.49      0.00
   -2   16   20     -0.08      0.00
   -1   16   20      0.75      0.00
    0   16   20      0.44      0.00
    1   16   20     -0.71      0.00
    2   16   20      0.26      0.00
    3   16   20     -2.66      0.00
    4   16   20     -0.82      0.00
   -4   17   20      4.50      0.00
   -3   17   20     -0.42      0.00
   -2   17   20     -0.15      0.00
   -1   17   20      1.18      0.00
    0   17   20     -2.28      0.00
    1   17   20      0.36      0.00
    2   17   20     -0.30      0.00
    3   17   20      1.47      0.00
   -2   18   20      2.69      0.00
   -1   18   20      2.24      0.00
    0   18   20      3.15      0.00
    1   18   20      0.75      0.00
   -9    0   21      2.86      0.00
   -7    0   21      4.73      0.00
   -5    0   21      5.57      0.00
   -3    0   21     -0.33      0.00
   -1    0   21    -12.46      0.00
    1    0   21      0.79      0.00
    3    0   21     -3.56      0.00
    5    0   21      0.08      0.00
    7    0   21     -0.51      0.00
   -9    1   21     -2.71      0.00
   -8    1   21     -1.20      0.00
   -7    1   21     -0.86      0.00
   -6    1   21     -0.70      0.00
   -5    1   21      2.52      0.00
   -4    1   21     -1.43      0.00
   -3    1   21      0.87      0.00
   -2    1   21     -4.74      0.00
   -1    1   21      0.57      0.00
    0    1   21      1.27      0.00
    1    1   21      0.97      0.00
    2    1   21     -0.69      0.00
    3    1   21     -0.41      0.00
    4    1   21      5.74      0.00
    5    1   21      1.29      0.00
    6    1   21      0.88      0.00
    7    1   21     -1.05      0.00
    8    1   21      0.08      0.00
   -9    2   21      2.25      0.00
   -8    2   21      0.49      0.00
   -7    2   21     -0.09      0.00
   -6    2   21     -0.34      0.00
   -5    2   21      5.37      0.00
   -4    2   21      3.98      0.00
   -3    2   21      2.10      0.00
   -2    2   21      0.55      0.00
   -1    2   21     -3.46      0.00
    0    2   21      0.96      0.00
    1    2   21      4.41      0.00
    2    2   21     -8.45      0.00
    3    2   21     -3.95      0.00
    4    2   21     -4.12      0.00
    5    2   21     -2.51      0.00
    6    2   21     -1.50      0.00
    7    2   21      0.51      0.00
    8    2   21      3.13      0.00
   -9    3   21     -1.87      0.00
   -8    3   21      0.12      0.00
   -7    3   21     -0.37      0.00
   -6    3   21     -0.04      0.00
   -5    3   21     -0.46      0.00
   -4    3   21     -5.50      0.00
   -3    3   21     -5.30      0.00
   -2    3   21     -2.21      0.00
   -1    3   21      1.24      0.00
    0    3   21      7.28      0.00
    1    3   21      6.52      0.00
    2    3   21     -2.04      0.00
    3    3   21      6.29      0.00
    4    3   21      2.14      0.00
    5    3   21      3.31      0.00
    6    3   21      1.53      0.00
    7    3   21     -1.42      0.00
    8    3   21      2.86      0.00
   -9    4   21      1.00      0.00
   -8    4   21     -1.61      0.00
   -7    4   21     -1.75      0.00
   -6    4   21      1.66      0.00
   -5    4   21     10.61      0.00
   -4    4   21      2.43      0.00
   -3    4   21     -3.29      0.00
   -2    4   21      1.10      0.00
   -1    4   21     -8.04      0.00
    0    4   21      2.90      0.00
    1    4   21     -4.32      0.00
    2    4   21     -3.52      0.00
    3    4   21      1.24      0.00
    4    4   21     -3.34      0.00
    5    4   21      2.91      0.00
    6    4   21     -2.51      0.00
    7    4   21      1.22      0.00
    8    4   21      0.70      0.00
   -9    5   21     -0.23      0.00
   -8    5   21     -1.58      0.00
   -7    5   21     -1.37      0.00
   -6    5   21     -2.40      0.00
   -5    5   21      0.61      0.00
   -4    5   21     -4.48      0.00
   -3    5   21      2.37      0.00
   -2    5   21      1.29      0.00
   -1    5   21      0.81      0.00
    0    5   21      6.38      0.00
    1    5   21    -10.86      0.00
    2    5   21      0.34      0.00
    3    5   21     -7.47      0.00
    4    5   21      2.25      0.00
    5    5   21      3.05      0.00
    6    5   21      2.05      0.00
    7    5   21      2.65      0.00
    8    5   21      1.72      0.00
   -9    6   21      1.76      0.00
   -8    6   21     -0.08      0.00
   -7    6   21     -1.27      0.00
   -6    6   21      0.44      0.00
   -5    6   21      3.45      0.00
   -4    6   21     -4.77      0.00
   -3    6   21     -1.78      0.00
   -2    6   21      4.82      0.00
   -1    6   21      1.60      0.00
    0    6   21      2.29      0.00
    1    6   21      3.18      0.00
    2    6   21      5.25      0.00
    3    6   21     -4.34      0.00
    4    6   21     -0.08      0.00
    5    6   21     -3.94      0.00
    6    6   21     -2.25      0.00
    7    6   21     -0.89      0.00
    8    6   21     -0.14      0.00
   -9    7   21      0.46      0.00
   -8    7   21     -2.64      0.00
   -7    7   21      1.13      0.00
   -6    7   21     -0.62      0.00
   -5    7   21      1.48      0.00
   -4    7   21     -2.23      0.00
   -3    7   21     -4.08      0.00
   -2    7   21      1.90      0.00
   -1    7   21     -3.82      0.00
    0    7   21     -2.14      0.00
    1    7   21     -4.01      0.00
    2    7   21      2.39      0.00
    3    7   21     -0.42      0.00
    4    7   21      4.01      0.00
    5    7   21      0.55      0.00
    6    7   21      0.74      0.00
    7    7   21      1.55      0.00
    8    7   21     -1.87      0.00
   -8    8   21      1.17      0.00
   -7    8   21     -1.26      0.00
   -6    8   21     -3.09      0.00
   -5    8   21      1.39      0.00
   -4    8   21     -2.45      0.00
   -3    8   21     -0.26      0.00
   -2    8   21      7.09      0.00
   -1    8   21     -8.10      0.00
    0    8   21      2.74      0.00
    1    8   21      2.40      0.00
    2    8   21     -1.83      0.00
    3    8   21     -1.79      0.00
    4    8   21     -0.13      0.00
    5    8   21     -1.10      0.00
    6    8   21     -1.79      0.00
    7    8   21      0.33      0.00
   -8    9   21     -1.26      0.00
   -7    9   21      1.39      0.00
   -6    9   21     -0.80      0.00
   -5    9   21      1.70      0.00
   -4    9   21     -4.61      0.00
   -3    9   21      2.00      0.00
   -2    9   21      4.18      0.00
   -1    9   21     -5.57      0.00
    0    9   21      2.00      0.00
    1    9   21     -0.36      0.00
    2    9   21      3.87      0.00
    3    9   21      0.27      0.00
    4    9   21     -0.56      0.00
    5    9   21      0.15      0.00
    6    9   21      0.20      0.00
    7    9   21      0.87      0.00
   -8   10   21     -0.16      0.00
   -7   10   21     -3.18      0.00
   -6   10   21     -0.75      0.00
   -5   10   21     -3.29      0.00
   -4   10   21     -2.43      0.00
   -3   10   21      0.29      0.00
   -2   10   21     -2.30      0.00
   -1   10   21     -2.54      0.00
    0   10   21      4.27      0.00
    1   10   21      0.68      0.00
    2   10   21     -1.87      0.00
    3   10   21      1.30      0.00
    4   10   21      0.26      0.00
    5   10   21     -3.67      0.00
    6   10   21     -2.68      0.00
    7   10   21     -0.91      0.00
   -7   11   21      0.61      0.00
   -6   11   21      1.31      0.00
   -5   11   21     -2.01      0.00
   -4   11   21     -0.42      0.00
   -3   11   21     -2.15      0.00
   -2   11   21     -0.69      0.00
   -1   11   21     -3.28      0.00
    0   11   21      0.41      0.00
    1   11   21      2.49      0.00
    2   11   21      1.03      0.00
    3   11   21      4.06      0.00
    4   11   21      1.04      0.00
    5   11   21      3.65      0.00
    6   11   21      0.57      0.00
    7   11   21     -0.62      0.00
   -7   12   21     -0.62      0.00
   -6   12   21     -0.18      0.00
   -5   12   21     -1.59      0.00
   -4   12   21      1.58      0.00
   -3   12   21     -2.92      0.00
   -2   12   21     -1.26      0.00
   -1   12   21     -2.62      0.00
    0   12   21      2.73      0.00
    1   12   21     -4.47      0.00
    2   12   21      0.20      0.00
    3   12   21      0.11      0.00
    4   12   21     -0.11      0.00
    5   12   21     -2.10      0.00
    6   12   21     -1.68      0.00
   -6   13   21      0.43      0.00
   -5   13   21      0.01      0.00
   -4   13   21     -3.45      0.00
   -3   13   21     -0.51      0.00
   -2   13   21      0.21      0.00
   -1   13   21     -1.18      0.00
    0   13   21     -0.30      0.00
    1   13   21     -1.83      0.00
    2   13   21      0.13      0.00
    3   13   21     -0.66      0.00
    4   13   21     -0.13      0.00
    5   13   21      0.72      0.00
    6   13   21     -1.11      0.00
   -6   14   21      0.80      0.00
   -5   14   21     -1.52      0.00
   -4   14   21     -1.07      0.00
   -3   14   21     -0.92      0.00
   -2   14   21     -1.74      0.00
   -1   14   21      1.85      0.00
    0   14   21      1.48      0.00
    1   14   21     -2.31      0.00
    2   14   21      4.26      0.00
    3   14   21     -1.02      0.00
    4   14   21      3.49      0.00
    5   14   21     -2.65      0.00
   -5   15   21     -0.83      0.00
   -4   15   21     -1.57      0.00
   -3   15   21     -1.89      0.00
   -2   15   21     -0.53      0.00
   -1   15   21     -1.34      0.00
    0   15   21     -2.91      0.00
    1   15   21      0.85      0.00
    2   15   21     -3.80      0.00
    3   15   21     -1.76      0.00
    4   15   21      0.72      0.00
   -4   16   21      0.59      0.00
   -3   16   21      0.01      0.00
   -2   16   21      2.09      0.00
   -1   16   21     -2.38      0.00
    0   16   21      0.83      0.00
    1   16   21     -1.24      0.00
    2   16   21      1.97      0.00
    3   16   21      0.17      0.00
   -3   17   21     -0.30      0.00
   -2   17   21      1.79      0.00
   -1   17   21     -1.38      0.00
    0   17   21      0.44      0.00
    1   17   21     -0.76      0.00
    2   17   21     -2.83      0.00
   -8    0   22     -2.75      0.00
   -6    0   22      0.90      0.00
   -4    0   22      2.53      0.00
   -2    0   22     -5.34      0.00
    0    0   22     -2.41      0.00
    2    0   22     -1.40      0.00
    4    0   22      4.86      0.00
    6    0   22      5.60      0.00
    8    0   22     -2.72      0.00
   -9    1   22      0.36      0.00
   -8    1   22      1.32      0.00
   -7    1   22      0.20      0.00
   -6    1   22      0.41      0.00
   -5    1   22     -6.15      0.00
   -4    1   22      0.40      0.00
   -3    1   22     -4.01      0.00
   -2    1   22      4.41      0.00
   -1    1   22      7.02      0.00
    0    1   22     -3.99      0.00
    1    1   22     -2.55      0.00
    2    1   22     -4.09      0.00
    3    1   22      3.26      0.00
    4    1   22     -6.28      0.00
    5    1   22     -4.39      0.00
    6    1   22     -0.09      0.00
    7    1   22     -0.87      0.00
    8    1   22      1.56      0.00
   -9    2   22      1.01      0.00
   -8    2   22     -3.93      0.00
   -7    2   22      1.04      0.00
   -6    2   22      0.45      0.00
   -5    2   22      1.16      0.00
   -4    2   22     -0.18      0.00
   -3    2   22      0.37      0.00
   -2    2   22     -0.91      0.00
   -1    2   22     -2.01      0.00
    0    2   22      6.26      0.00
    1    2   22     -2.13      0.00
    2    2   22      3.26      0.00
    3    2   22      5.13      0.00
    4    2   22      1.99      0.00
    5    2   22      4.51      0.00
    6    2   22      0.12      0.00
    7    2   22     -2.39      0.00
    8    2   22     -1.11      0.00
   -9    3   22     -0.81      0.00
   -8    3   22      3.42      0.00
   -7    3   22     -0.10      0.00
   -6    3   22      0.59      0.00
   -5    3   22     -5.24      0.00
   -4    3   22     -3.30      0.00
   -3    3   22      3.47      0.00
   -2    3   22     -0.30      0.00
   -1    3   22      4.53      0.00
    0    3   22     -1.55      0.00
    1    3   22     -0.93      0.00
    2    3   22      3.08      0.00
    3    3   22     -6.78      0.00
    4    3   22     -1.84      0.00
    5    3   22     -1.42      0.00
    6    3   22     -3.07      0.00
    7    3   22     -1.16      0.00
    8    3   22      2.74      0.00
   -9    4   22      0.18      0.00
   -8    4   22     -3.03      0.00
   -7    4   22      1.41      0.00
   -6    4   22      2.86      0.00
   -5    4   22     -0.25      0.00
   -4    4   22      1.52      0.00
   -3    4   22      1.97      0.00
   -2    4   22     -7.14      0.00
   -1    4   22     -0.47      0.00
    0    4   22     -1.67      0.00
    1    4   22     -2.56      0.00
    2    4   22      6.22      0.00
    3    4   22      2.30      0.00
    4    4   22      7.66      0.00
    5    4   22      0.91      0.00
    6    4   22     -0.19      0.00
    7    4   22      1.06      0.00
    8    4   22     -0.08      0.00
   -9    5   22     -3.17      0.00
   -8    5   22      1.91      0.00
   -7    5   22     -1.57      0.00
   -6    5   22     -0.30      0.00
   -5    5   22     -4.34      0.00
   -4    5   22      4.55      0.00
   -3    5   22      3.66      0.00
   -2    5   22     -0.54      0.00
   -1    5   22      5.63      0.00
    0    5   22     -1.78      0.00
    1    5   22      0.55      0.00
    2    5   22     -7.48      0.00
    3    5   22     -9.74      0.00
    4    5   22      4.40      0.00
    5    5   22     -2.69      0.00
    6    5   22     -0.30      0.00
    7    5   22      0.37      0.00
    8    5   22      2.34      0.00
   -8    6   22     -3.83      0.00
   -7    6   22     -0.44      0.00
   -6    6   22      0.72      0.00
   -5    6   22     -0.23      0.00
   -4    6   22      3.42      0.00
   -3    6   22     -0.66      0.00
   -2    6   22      1.08      0.00
   -1    6   22      0.28      0.00
    0    6   22      4.12      0.00
    1    6   22      1.93      0.00
    2    6   22      3.02      0.00
    3    6   22     -2.27      0.00
    4    6   22      0.44      0.00
    5    6   22     -1.76      0.00
    6    6   22      1.35      0.00
    7    6   22      2.03      0.00
    8    6   22      0.56      0.00
   -8    7   22      0.71      0.00
   -7    7   22     -1.52      0.00
   -6    7   22     -0.72      0.00
   -5    7   22     -1.78      0.00
   -4    7   22      0.70      0.00
   -3    7   22     -2.55      0.00
   -2    7   22     -3.97      0.00
   -1    7   22      2.75      0.00
    0    7   22      0.79      0.00
    1    7   22     -0.23      0.00
    2    7   22     -2.32      0.00
    3    7   22     -1.95      0.00
    4    7   22      6.90      0.00
    5    7   22     -2.06      0.00
    6    7   22      1.68      0.00
    7    7   22      0.73      0.00
   -8    8   22     -3.60      0.00
   -7    8   22     -0.40      0.00
   -6    8   22      2.73      0.00
   -5    8   22      2.37      0.00
   -4    8   22      6.38      0.00
   -3    8   22      0.13      0.00
   -2    8   22      1.63      0.00
   -1    8   22     -0.84      0.00
    0    8   22     -1.24      0.00
    1    8   22     -1.08      0.00
    2    8   22     -6.13      0.00
    3    8   22     -2.31      0.00
    4    8   22      0.84      0.00
    5    8   22      0.38      0.00
    6    8   22      3.09      0.00
    7    8   22      0.91      0.00
   -8    9   22      1.16      0.00
   -7    9   22     -1.60      0.00
   -6    9   22     -0.95      0.00
   -5    9   22     -2.66      0.00
   -4    9   22      2.15      0.00
   -3    9   22     -2.55      0.00
   -2    9   22      4.24      0.00
   -1    9   22      3.62      0.00
    0    9   22      1.18      0.00
    1    9   22      2.05      0.00
    2    9   22     -4.33      0.00
    3    9   22     -0.85      0.00
    4    9   22     -1.83      0.00
    5    9   22     -0.41      0.00
    6    9   22     -0.66      0.00
    7    9   22      0.20      0.00
   -7   10   22     -1.25      0.00
   -6   10   22      0.78      0.00
   -5   10   22      1.06      0.00
   -4   10   22      1.50      0.00
   -3   10   22     -2.89      0.00
   -2   10   22      3.79      0.00
   -1   10   22     -2.45      0.00
    0   10   22      2.47      0.00
    1   10   22     -0.39      0.00
    2   10   22     -0.56      0.00
    3   10   22      4.66      0.00
    4   10   22     -1.49      0.00
    5   10   22      1.33      0.00
    6   10   22      0.28      0.00
    7   10   22      1.59      0.00
   -7   11   22     -2.73      0.00
   -6   11   22      0.46      0.00
   -5   11   22     -1.44      0.00
   -4   11   22     -0.25      0.00
   -3   11   22      1.19      0.00
   -2   11   22      1.87      0.00
   -1   11   22     -0.72      0.00
    0   11   22      0.52      0.00
    1   11   22     -1.35      0.00
    2   11   22      1.08      0.00
    3   11   22     -1.70      0.00
    4   11   22      0.61      0.00
    5   11   22      1.29      0.00
    6   11   22     -1.58      0.00
   -7   12   22     -0.58      0.00
   -6   12   22      1.60      0.00
   -5   12   22     -1.57      0.00
   -4   12   22      2.17      0.00
   -3   12   22      0.79      0.00
   -2   12   22     -1.78      0.00
   -1   12   22      1.42      0.00
    0   12   22     -2.33      0.00
    1   12   22      1.29      0.00
    2   12   22      1.36      0.00
    3   12   22      0.74      0.00
    4   12   22     -0.79      0.00
    5   12   22      0.35      0.00
    6   12   22      0.69      0.00
   -6   13   22     -1.80      0.00
   -5   13   22     -3.04      0.00
   -4   13   22      2.01      0.00
   -3   13   22      0.72      0.00
   -2   13   22      2.81      0.00
   -1   13   22     -0.73      0.00
    0   13   22     -0.76      0.00
    1   13   22      2.20      0.00
    2   13   22      1.69      0.00
    3   13   22     -0.25      0.00
    4   13   22      1.16      0.00
    5   13   22      0.96      0.00
   -5   14   22     -0.17      0.00
   -4   14   22      0.98      0.00
   -3   14   22     -3.49      0.00
   -2   14   22     -1.97      0.00
   -1   14   22     -0.48      0.00
    0   14   22     -1.04      0.00
    1   14   22      1.16      0.00
    2   14   22      0.05      0.00
    3   14   22      0.36      0.00
    4   14   22     -0.21      0.00
    5   14   22     -0.79      0.00
   -5   15   22      1.35      0.00
   -4   15   22     -2.27      0.00
   -3   15   22      1.78      0.00
   -2   15   22     -1.62      0.00
   -1   15   22     -2.55      0.00
    0   15   22      2.34      0.00
    1   15   22      0.56      0.00
    2   15   22      1.77      0.00
    3   15   22     -0.41      0.00
    4   15   22      1.87      0.00
   -4   16   22      1.81      0.00
   -3   16   22     -1.73      0.00
   -2   16   22     -2.65      0.00
   -1   16   22      0.68      0.00
    0   16   22     -2.07      0.00
    1   16   22      0.92      0.00
    2   16   22      0.81      0.00
    3   16   22      0.20      0.00
   -2   17   22     -0.92      0.00
   -1   17   22      0.18      0.00
    0   17   22      0.85      0.00
    1   17   22     -0.27      0.00
   -9    0   23     -0.14      0.00
   -7    0   23     -1.43      0.00
   -5    0   23      2.85      0.00
   -3    0   23     -0.93      0.00
   -1    0   23    -10.43      0.00
    1    0   23     -5.29      0.00
    3    0   23      0.78      0.00
    5    0   23      6.09      0.00
    7    0   23     -3.72      0.00
   -9    1   23      0.61      0.00
   -8    1   23     -3.38      0.00
   -7    1   23     -1.14      0.00
   -6    1   23     -4.53      0.00
   -5    1   23     -0.12      0.00
   -4    1   23     -5.70      0.00
   -3    1   23      4.07      0.00
   -2    1   23      3.12      0.00
   -1    1   23      1.54      0.00
    0    1   23      7.72      0.00
    1    1   23     -3.54      0.00
    2    1   23      5.21      0.00
    3    1   23     -5.70      0.00
    4    1   23     -1.14      0.00
    5    1   23      0.98      0.00
    6    1   23      3.34      0.00
    7    1   23      0.85      0.00
    8    1   23      2.22      0.00
   -9    2   23     -1.76      0.00
   -8    2   23      0.52      0.00
   -7    2   23      0.79      0.00
   -6    2   23      2.42      0.00
   -5    2   23     -1.51      0.00
   -4    2   23     -1.95      0.00
   -3    2   23     -0.32      0.00
   -2    2   23     -5.00      0.00
   -1    2   23      1.46      0.00
    0    2   23      4.21      0.00
    1    2   23     -0.50      0.00
    2    2   23      3.43      0.00
    3    2   23     -0.51      0.00
    4    2   23      3.14      0.00
    5    2   23     -2.95      0.00
    6    2   23     -3.48      0.00
    7    2   23     -1.98      0.00
    8    2   23      0.61      0.00
   -9    3   23      1.67      0.00
   -8    3   23     -0.43      0.00
   -7    3   23     -2.16      0.00
   -6    3   23     -2.67      0.00
   -5    3   23     -1.55      0.00
   -4    3   23     -3.90      0.00
   -3    3   23     -0.96      0.00
   -2    3   23      0.94      0.00
   -1    3   23     -0.62      0.00
    0    3   23      1.41      0.00
    1    3   23      0.56      0.00
    2    3   23     -0.29      0.00
    3    3   23      2.64      0.00
    4    3   23      4.89      0.00
    5    3   23      1.02      0.00
    6    3   23      3.25      0.00
    7    3   23      0.13      0.00
    8    3   23      2.15      0.00
   -8    4   23      3.03      0.00
   -7    4   23      3.16      0.00
   -6    4   23      1.16      0.00
   -5    4   23      0.23      0.00
   -4    4   23      0.27      0.00
   -3    4   23     -1.70      0.00
   -2    4   23     -1.07      0.00
   -1    4   23      0.44      0.00
    0    4   23      2.80      0.00
    1    4   23     -8.08      0.00
    2    4   23      4.52      0.00
    3    4   23      2.03      0.00
    4    4   23      0.31      0.00
    5    4   23     -2.62      0.00
    6    4   23     -0.24      0.00
    7    4   23     -0.53      0.00
    8    4   23     -3.20      0.00
   -8    5   23      1.35      0.00
   -7    5   23     -2.22      0.00
   -6    5   23     -0.27      0.00
   -5    5   23     -1.57      0.00
   -4    5   23     -2.66      0.00
   -3    5   23      3.35      0.00
   -2    5   23      2.24      0.00
   -1    5   23     -0.18      0.00
    0    5   23      1.73      0.00
    1    5   23     -3.99      0.00
    2    5   23     -0.81      0.00
    3    5   23      2.36      0.00
    4    5   23      3.83      0.00
    5    5   23     -2.56      0.00
    6    5   23      1.59      0.00
    7    5   23     -1.38      0.00
   -8    6   23      0.70      0.00
   -7    6   23      1.80      0.00
   -6    6   23      0.30      0.00
   -5    6   23     -1.62      0.00
   -4    6   23     -0.53      0.00
   -3    6   23     -1.88      0.00
   -2    6   23      1.13      0.00
   -1    6   23      2.97      0.00
    0    6   23      0.08      0.00
    1    6   23     -2.60      0.00
    2    6   23      7.79      0.00
    3    6   23      2.17      0.00
    4    6   23      0.67      0.00
    5    6   23      0.06      0.00
    6    6   23      1.61      0.00
    7    6   23     -2.16      0.00
   -8    7   23      1.20      0.00
   -7    7   23     -0.41      0.00
   -6    7   23      0.77      0.00
   -5    7   23     -1.78      0.00
   -4    7   23      2.72      0.00
   -3    7   23     -2.66      0.00
   -2    7   23      2.43      0.00
   -1    7   23     -3.05      0.00
    0    7   23      3.06      0.00
    1    7   23     -1.23      0.00
    2    7   23      0.26      0.00
    3    7   23      5.67      0.00
    4    7   23      0.02      0.00
    5    7   23     -1.43      0.00
    6    7   23      1.46      0.00
    7    7   23     -1.38      0.00
   -8    8   23      0.14      0.00
   -7    8   23      0.98      0.00
   -6    8   23     -0.14      0.00
   -5    8   23      0.13      0.00
   -4    8   23     -0.23      0.00
   -3    8   23     -0.67      0.00
   -2    8   23      3.16      0.00
   -1    8   23     -5.43      0.00
    0    8   23      0.32      0.00
    1    8   23     -3.99      0.00
    2    8   23      4.98      0.00
    3    8   23      0.44      0.00
    4    8   23      0.08      0.00
    5    8   23      3.82      0.00
    6    8   23     -0.46      0.00
    7    8   23     -0.86      0.00
   -7    9   23     -1.28      0.00
   -6    9   23      1.48      0.00
   -5    9   23     -0.67      0.00
   -4    9   23      2.34      0.00
   -3    9   23     -1.16      0.00
   -2    9   23      2.19      0.00
   -1    9   23      0.29      0.00
    0    9   23      5.75      0.00
    1    9   23     -1.83      0.00
    2    9   23      0.62      0.00
    3    9   23     -2.23      0.00
    4    9   23     -0.91      0.00
    5    9   23     -0.70      0.00
    6    9   23     -0.11      0.00
    7    9   23      0.17      0.00
   -7   10   23      0.05      0.00
   -6   10   23      2.69      0.00
   -5   10   23     -2.60      0.00
   -4   10   23      1.67      0.00
   -3   10   23      0.33      0.00
   -2   10   23     -0.39      0.00
   -1   10   23      0.16      0.00
    0   10   23      0.23      0.00
    1   10   23      2.16      0.00
    2   10   23      1.95      0.00
    3   10   23     -1.06      0.00
    4   10   23      1.45      0.00
    5   10   23      1.58      0.00
    6   10   23     -0.43      0.00
   -7   11   23     -1.03      0.00
   -6   11   23      0.03      0.00
   -5   11   23     -0.72      0.00
   -4   11   23      4.20      0.00
   -3   11   23     -6.43      0.00
   -2   11   23      2.08      0.00
   -1   11   23      0.70      0.00
    0   11   23      1.87      0.00
    1   11   23      1.14      0.00
    2   11   23     -3.27      0.00
    3   11   23     -2.31      0.00
    4   11   23      0.50      0.00
    5   11   23     -2.47      0.00
    6   11   23     -0.03      0.00
   -6   12   23      1.03      0.00
   -5   12   23      1.57      0.00
   -4   12   23      2.63      0.00
   -3   12   23     -0.66      0.00
   -2   12   23      3.45      0.00
   -1   12   23     -0.30      0.00
    0   12   23      1.74      0.00
    1   12   23      1.87      0.00
    2   12   23     -0.96      0.00
    3   12   23      0.54      0.00
    4   12   23      2.39      0.00
    5   12   23      0.09      0.00
   -6   13   23      0.46      0.00
   -5   13   23      2.19      0.00
   -4   13   23     -1.30      0.00
   -3   13   23     -0.51      0.00
   -2   13   23      4.56      0.00
   -1   13   23      1.54      0.00
    0   13   23      2.54      0.00
    1   13   23     -1.98      0.00
    2   13   23     -1.58      0.00
    3   13   23     -3.99      0.00
    4   13   23      0.09      0.00
    5   13   23     -3.81      0.00
   -5   14   23      0.00      0.00
   -4   14   23     -1.39      0.00
   -3   14   23     -1.26      0.00
   -2   14   23      0.92      0.00
   -1   14   23      3.50      0.00
    0   14   23      1.33      0.00
    1   14   23      2.04      0.00
    2   14   23      0.14      0.00
    3   14   23      1.84      0.00
    4   14   23      2.48      0.00
   -4   15   23      0.56      0.00
   -3   15   23      1.56      0.00
   -2   15   23      3.39      0.00
   -1   15   23     -0.08      0.00
    0   15   23      0.13      0.00
    1   15   23     -1.39      0.00
    2   15   23     -0.66      0.00
    3   15   23     -2.04      0.00
   -3   16   23     -1.79      0.00
   -2   16   23      2.80      0.00
   -1   16   23      0.08      0.00
    0   16   23     -0.36      0.00
    1   16   23     -0.75      0.00
    2   16   23      0.05      0.00
   -8    0   24      0.04      0.00
   -6    0   24      1.82      0.00
   -4    0   24      1.84      0.00
   -2    0   24      2.96      0.00
    0    0   24     -4.15      0.00
    2    0   24      0.04      0.00
    4    0   24      7.78      0.00
    6    0   24      1.23      0.00
    8    0   24     -0.81      0.00
   -8    1   24     -0.83      0.00
   -7    1   24      1.00      0.00
   -6    1   24     -0.33      0.00
   -5    1   24     -0.17      0.00
   -4    1   24      1.86      0.00
   -3    1   24      0.61      0.00
   -2    1   24      1.88      0.00
   -1    1   24      0.77      0.00
    0    1   24     -1.38      0.00
    1    1   24     -3.07      0.00
    2    1   24     -2.22      0.00
    3    1   24     -8.93      0.00
    4    1   24     -0.65      0.00
    5    1   24     -5.32      0.00
    6    1   24      1.93      0.00
    7    1   24      0.41      0.00
   -8    2   24     -0.20      0.00
   -7    2   24     -1.56      0.00
   -6    2   24     -2.12      0.00
   -5    2   24     -2.24      0.00
   -4    2   24      0.61      0.00
   -3    2   24      2.32      0.00
   -2    2   24      2.85      0.00
   -1    2   24     -1.20      0.00
    0    2   24     -0.28      0.00
    1    2   24      0.74      0.00
    2    2   24      1.06      0.00
    3    2   24      0.47      0.00
    4    2   24      3.53      0.00
    5    2   24     -2.17      0.00
    6    2   24      1.91      0.00
    7    2   24      0.29      0.00
   -8    3   24     -0.75      0.00
   -7    3   24      0.71      0.00
   -6    3   24      0.62      0.00
   -5    3   24      1.36      0.00
   -4    3   24     -1.31      0.00
   -3    3   24      1.12      0.00
   -2    3   24     -3.52      0.00
   -1    3   24     -0.96      0.00
    0    3   24      1.01      0.00
    1    3   24      1.59      0.00
    2    3   24      3.65      0.00
    3    3   24     -4.04      0.00
    4    3   24      1.51      0.00
    5    3   24     -4.32      0.00
    6    3   24      1.65      0.00
    7    3   24     -1.76      0.00
   -8    4   24     -0.33      0.00
   -7    4   24     -1.70      0.00
   -6    4   24     -2.78      0.00
   -5    4   24      0.31      0.00
   -4    4   24      2.43      0.00
   -3    4   24      0.23      0.00
   -2    4   24     -5.14      0.00
   -1    4   24     -2.38      0.00
    0    4   24     -7.34      0.00
    1    4   24     -2.49      0.00
    2    4   24     -1.51      0.00
    3    4   24      0.56      0.00
    4    4   24      2.86      0.00
    5    4   24     -2.34      0.00
    6    4   24      2.85      0.00
    7    4   24     -1.37      0.00
   -8    5   24     -0.69      0.00
   -7    5   24      1.08      0.00
   -6    5   24      0.17      0.00
   -5    5   24      1.53      0.00
   -4    5   24      1.96      0.00
   -3    5   24     -0.82      0.00
   -2    5   24      0.05      0.00
   -1    5   24     -0.38      0.00
    0    5   24      6.01      0.00
    1    5   24      0.78      0.00
    2    5   24      0.64      0.00
    3    5   24     -0.85      0.00
    4    5   24     -2.45      0.00
    5    5   24     -1.41      0.00
    6    5   24      0.98      0.00
    7    5   24     -1.01      0.00
   -8    6   24      1.78      0.00
   -7    6   24      0.05      0.00
   -6    6   24     -1.85      0.00
   -5    6   24      2.82      0.00
   -4    6   24     -1.74      0.00
   -3    6   24     -4.04      0.00
   -2    6   24     -0.08      0.00
   -1    6   24     -2.32      0.00
    0    6   24     -0.30      0.00
    1    6   24     -5.39      0.00
    2    6   24      5.36      0.00
    3    6   24     -1.63      0.00
    4    6   24     -1.08      0.00
    5    6   24     -1.81      0.00
    6    6   24     -1.63      0.00
    7    6   24     -1.74      0.00
   -8    7   24     -1.11      0.00
   -7    7   24      0.63      0.00
   -6    7   24      0.99      0.00
   -5    7   24      1.50      0.00
   -4    7   24     -1.87      0.00
   -3    7   24     -4.27      0.00
   -2    7   24     -1.53      0.00
   -1    7   24     -0.43      0.00
    0    7   24      6.22      0.00
    1    7   24     -3.89      0.00
    2    7   24      7.07      0.00
    3    7   24      0.52      0.00
    4    7   24      3.17      0.00
    5    7   24     -0.15      0.00
    6    7   24      1.12      0.00
    7    7   24     -0.78      0.00
   -7    8   24      1.07      0.00
   -6    8   24      1.90      0.00
   -5    8   24      0.40      0.00
   -4    8   24      0.41      0.00
   -3    8   24     -1.21      0.00
   -2    8   24      1.97      0.00
   -1    8   24     -1.51      0.00
    0    8   24     -4.10      0.00
    1    8   24     -3.40      0.00
    2    8   24      2.12      0.00
    3    8   24     -1.50      0.00
    4    8   24      2.21      0.00
    5    8   24     -1.10      0.00
    6    8   24     -1.32      0.00
   -7    9   24      2.41      0.00
   -6    9   24     -0.44      0.00
   -5    9   24     -0.70      0.00
   -4    9   24     -1.51      0.00
   -3    9   24     -6.07      0.00
   -2    9   24      5.01      0.00
   -1    9   24      0.08      0.00
    0    9   24      3.09      0.00
    1    9   24     -2.61      0.00
    2    9   24      1.08      0.00
    3    9   24      2.66      0.00
    4    9   24     -1.73      0.00
    5    9   24     -0.70      0.00
    6    9   24      0.39      0.00
   -7   10   24     -0.38      0.00
   -6   10   24     -0.16      0.00
   -5   10   24     -0.13      0.00
   -4   10   24     -1.51      0.00
   -3   10   24     -1.11      0.00
   -2   10   24      3.00      0.00
   -1   10   24     -4.69      0.00
    0   10   24      1.04      0.00
    1   10   24     -1.11      0.00
    2   10   24      3.49      0.00
    3   10   24      3.72      0.00
    4   10   24      1.15      0.00
    5   10   24      0.02      0.00
    6   10   24     -2.31      0.00
   -6   11   24      1.12      0.00
   -5   11   24      2.09      0.00
   -4   11   24     -4.71      0.00
   -3   11   24     -1.24      0.00
   -2   11   24      0.86      0.00
   -1   11   24     -0.83      0.00
    0   11   24     -0.19      0.00
    1   11   24     -2.93      0.00
    2   11   24      0.71      0.00
    3   11   24      1.58      0.00
    4   11   24     -0.65      0.00
    5   11   24      0.81      0.00
   -6   12   24      2.15      0.00
   -5   12   24     -1.77      0.00
   -4   12   24      0.83      0.00
   -3   12   24      2.30      0.00
   -2   12   24     -1.20      0.00
   -1   12   24     -2.79      0.00
    0   12   24     -1.59      0.00
    1   12   24     -0.74      0.00
    2   12   24      0.57      0.00
    3   12   24     -0.11      0.00
    4   12   24     -1.49      0.00
    5   12   24     -2.25      0.00
   -5   13   24     -0.05      0.00
   -4   13   24     -1.11      0.00
   -3   13   24     -0.47      0.00
   -2   13   24      3.58      0.00
   -1   13   24      0.73      0.00
    0   13   24     -0.66      0.00
    1   13   24      2.34      0.00
    2   13   24     -0.09      0.00
    3   13   24      2.24      0.00
    4   13   24     -1.04      0.00
   -4   14   24     -1.61      0.00
   -3   14   24     -0.11      0.00
   -2   14   24     -0.10      0.00
   -1   14   24     -2.82      0.00
    0   14   24      1.60      0.00
    1   14   24     -1.80      0.00
    2   14   24      0.63      0.00
    3   14   24     -0.63      0.00
   -3   15   24      1.06      0.00
   -2   15   24     -0.69      0.00
   -1   15   24     -2.12      0.00
    0   15   24     -0.02      0.00
    1   15   24      1.74      0.00
    2   15   24      0.96      0.00
   -1   16   24      1.40      0.00
    0   16   24     -1.33      0.00
   -7    0   25      0.53      0.00
   -5    0   25     -1.55      0.00
   -3    0   25      1.44      0.00
   -1    0   25     -1.73      0.00
    1    0   25     -4.00      0.00
    3    0   25     -0.56      0.00
    5    0   25     -0.88      0.00
    7    0   25      0.93      0.00
   -8    1   25      1.49      0.00
   -7    1   25     -0.14      0.00
   -6    1   25      2.52      0.00
   -5    1   25      0.65      0.00
   -4    1   25      5.08      0.00
   -3    1   25      2.15      0.00
   -2    1   25     -1.62      0.00
   -1    1   25      4.64      0.00
    0    1   25     -2.93      0.00
    1    1   25     -0.85      0.00
    2    1   25     -2.93      0.00
    3    1   25     -1.52      0.00
    4    1   25      0.56      0.00
    5    1   25     -2.53      0.00
    6    1   25     -3.80      0.00
    7    1   25     -0.02      0.00
   -8    2   25     -3.23      0.00
   -7    2   25      2.30      0.00
   -6    2   25      0.84      0.00
   -5    2   25     -3.17      0.00
   -4    2   25     -0.25      0.00
   -3    2   25      0.99      0.00
   -2    2   25     -2.13      0.00
   -1    2   25      5.40      0.00
    0    2   25     -0.48      0.00
    1    2   25      2.39      0.00
    2    2   25     -3.65      0.00
    3    2   25      0.87      0.00
    4    2   25      0.20      0.00
    5    2   25     -2.91      0.00
    6    2   25      3.64      0.00
    7    2   25     -0.24      0.00
   -8    3   25     -1.57      0.00
   -7    3   25      0.13      0.00
   -6    3   25     -0.23      0.00
   -5    3   25      1.20      0.00
   -4    3   25      1.95      0.00
   -3    3   25     -2.12      0.00
   -2    3   25      0.19      0.00
   -1    3   25      2.19      0.00
    0    3   25     -3.93      0.00
    1    3   25      1.39      0.00
    2    3   25      0.13      0.00
    3    3   25      2.34      0.00
    4    3   25     -2.28      0.00
    5    3   25     -2.23      0.00
    6    3   25     -0.48      0.00
    7    3   25     -0.48      0.00
   -8    4   25     -0.08      0.00
   -7    4   25      3.09      0.00
   -6    4   25     -1.13      0.00
   -5    4   25     -0.67      0.00
   -4    4   25     -1.47      0.00
   -3    4   25      2.69      0.00
   -2    4   25      1.30      0.00
   -1    4   25      1.27      0.00
    0    4   25     -0.54      0.00
    1    4   25     -4.73      0.00
    2    4   25     -0.20      0.00
    3    4   25      0.29      0.00
    4    4   25      1.09      0.00
    5    4   25      0.76      0.00
    6    4   25      4.77      0.00
    7    4   25     -1.14      0.00
   -8    5   25     -2.46      0.00
   -7    5   25     -1.22      0.00
   -6    5   25      0.19      0.00
   -5    5   25      1.14      0.00
   -4    5   25     -1.71      0.00
   -3    5   25      3.22      0.00
   -2    5   25      0.55      0.00
   -1    5   25      1.53      0.00
    0    5   25     -0.31      0.00
    1    5   25     -1.90      0.00
    2    5   25      3.36      0.00
    3    5   25     -9.98      0.00
    4    5   25     -1.70      0.00
    5    5   25     -2.14      0.00
    6    5   25     -1.53      0.00
    7    5   25     -0.62      0.00
   -7    6   25     -1.66      0.00
   -6    6   25     -0.78      0.00
   -5    6   25     -3.83      0.00
   -4    6   25      0.74      0.00
   -3    6   25      2.74      0.00
   -2    6   25      0.85      0.00
   -1    6   25      0.96      0.00
    0    6   25     -2.00      0.00
    1    6   25      1.18      0.00
    2    6   25      6.24      0.00
    3    6   25     -1.82      0.00
    4    6   25      3.70      0.00
    5    6   25     -1.94      0.00
    6    6   25      5.17      0.00
    7    6   25     -1.06      0.00
   -7    7   25      0.09      0.00
   -6    7   25      1.31      0.00
   -5    7   25     -0.83      0.00
   -4    7   25      1.59      0.00
   -3    7   25      0.25      0.00
   -2    7   25      0.71      0.00
   -1    7   25     -2.17      0.00
    0    7   25     -0.45      0.00
    1    7   25     -1.30      0.00
    2    7   25      0.74      0.00
    3    7   25     -6.82      0.00
    4    7   25     -0.30      0.00
    5    7   25     -1.61      0.00
    6    7   25     -2.12      0.00
   -7    8   25     -2.03      0.00
   -6    8   25     -0.07      0.00
   -5    8   25     -0.95      0.00
   -4    8   25      3.03      0.00
   -3    8   25      0.68      0.00
   -2    8   25      2.32      0.00
   -1    8   25     -3.94      0.00
    0    8   25     -0.47      0.00
    1    8   25      0.05      0.00
    2    8   25      3.18      0.00
    3    8   25     -3.47      0.00
    4    8   25      0.18      0.00
    5    8   25     -0.26      0.00
    6    8   25      2.33      0.00
   -7    9   25      1.06      0.00
   -6    9   25      1.40      0.00
   -5    9   25     -0.31      0.00
   -4    9   25      0.98      0.00
   -3    9   25      3.33      0.00
   -2    9   25      0.44      0.00
   -1    9   25      0.98      0.00
    0    9   25      1.13      0.00
    1    9   25      0.04      0.00
    2    9   25      2.42      0.00
    3    9   25     -5.16      0.00
    4    9   25      0.18      0.00
    5    9   25     -0.31      0.00
    6    9   25     -2.38      0.00
   -6   10   25      1.51      0.00
   -5   10   25     -2.44      0.00
   -4   10   25      1.40      0.00
   -3   10   25     -1.84      0.00
   -2   10   25     -1.30      0.00
   -1   10   25     -1.00      0.00
    0   10   25     -2.60      0.00
    1   10   25      3.45      0.00
    2   10   25     -1.82      0.00
    3   10   25     -1.43      0.00
    4   10   25      0.06      0.00
    5   10   25      0.29      0.00
   -6   11   25      0.86      0.00
   -5   11   25     -1.20      0.00
   -4   11   25      2.43      0.00
   -3   11   25     -0.17      0.00
   -2   11   25      0.71      0.00
   -1   11   25     -0.34      0.00
    0   11   25     -0.52      0.00
    1   11   25      1.53      0.00
    2   11   25     -1.25      0.00
    3   11   25      0.93      0.00
    4   11   25      0.16      0.00
    5   11   25      1.01      0.00
   -5   12   25     -1.12      0.00
   -4   12   25     -0.18      0.00
   -3   12   25     -1.08      0.00
   -2   12   25      0.29      0.00
   -1   12   25     -2.60      0.00
    0   12   25     -0.16      0.00
    1   12   25      0.22      0.00
    2   12   25     -3.21      0.00
    3   12   25      0.17      0.00
    4   12   25     -0.37      0.00
   -4   13   25     -0.82      0.00
   -3   13   25      1.49      0.00
   -2   13   25     -0.60      0.00
   -1   13   25     -0.43      0.00
    0   13   25     -0.45      0.00
    1   13   25     -1.48      0.00
    2   13   25     -0.31      0.00
    3   13   25      0.66      0.00
   -4   14   25      0.21      0.00
   -3   14   25      0.74      0.00
   -2   14   25     -1.45      0.00
   -1   14   25      0.38      0.00
    0   14   25     -0.67      0.00
    1   14   25      0.88      0.00
    2   14   25     -1.65      0.00
    3   14   25      0.68      0.00
   -2   15   25     -0.83      0.00
   -1   15   25     -2.51      0.00
    0   15   25     -0.41      0.00
    1   15   25      0.87      0.00
   -8    0   26     -0.13      0.00
   -6    0   26     -0.70      0.00
   -4    0   26     -0.67      0.00
   -2    0   26      1.50      0.00
    0    0   26     -8.58      0.00
    2    0   26     -2.12      0.00
    4    0   26     -2.84      0.00
    6    0   26      0.84      0.00
   -8    1   26     -0.14      0.00
   -7    1   26      1.30      0.00
   -6    1   26     -0.67      0.00
   -5    1   26      3.10      0.00
   -4    1   26      0.93      0.00
   -3    1   26     -4.94      0.00
   -2    1   26      2.85      0.00
   -1    1   26     -4.32      0.00
    0    1   26     -0.49      0.00
    1    1   26      4.41      0.00
    2    1   26     -1.96      0.00
    3    1   26      5.87      0.00
    4    1   26     -4.20      0.00
    5    1   26     -0.49      0.00
    6    1   26      1.86      0.00
    7    1   26      2.22      0.00
   -8    2   26      0.56      0.00
   -7    2   26      1.53      0.00
   -6    2   26     -2.13      0.00
   -5    2   26     -0.36      0.00
   -4    2   26     -1.22      0.00
   -3    2   26      2.86      0.00
   -2    2   26      2.84      0.00
   -1    2   26     -1.83      0.00
    0    2   26      0.12      0.00
    1    2   26      1.95      0.00
    2    2   26      1.10      0.00
    3    2   26     -0.62      0.00
    4    2   26     -1.75      0.00
    5    2   26      1.87      0.00
    6    2   26     -0.31      0.00
    7    2   26     -1.72      0.00
   -8    3   26      1.17      0.00
   -7    3   26      1.14      0.00
   -6    3   26      0.57      0.00
   -5    3   26      4.29      0.00
   -4    3   26     -2.15      0.00
   -3    3   26     -2.43      0.00
   -2    3   26     -0.75      0.00
   -1    3   26     -4.00      0.00
    0    3   26      0.03      0.00
    1    3   26      3.43      0.00
    2    3   26      2.70      0.00
    3    3   26     -0.22      0.00
    4    3   26     -0.69      0.00
    5    3   26     -0.24      0.00
    6    3   26      2.50      0.00
    7    3   26     -1.53      0.00
   -7    4   26      0.69      0.00
   -6    4   26     -1.00      0.00
   -5    4   26     -0.51      0.00
   -4    4   26      4.78      0.00
   -3    4   26      2.89      0.00
   -2    4   26     -0.94      0.00
   -1    4   26     -1.25      0.00
    0    4   26      0.24      0.00
    1    4   26     -0.06      0.00
    2    4   26     -4.36      0.00
    3    4   26     -1.00      0.00
    4    4   26      3.77      0.00
    5    4   26     -1.18      0.00
    6    4   26      1.30      0.00
   -7    5   26      0.26      0.00
   -6    5   26      0.43      0.00
   -5    5   26      1.66      0.00
   -4    5   26     -0.77      0.00
   -3    5   26     -0.96      0.00
   -2    5   26      4.35      0.00
   -1    5   26     -1.11      0.00
    0    5   26      4.71      0.00
    1    5   26      2.25      0.00
    2    5   26     -1.68      0.00
    3    5   26     -1.05      0.00
    4    5   26      0.39      0.00
    5    5   26     -0.75      0.00
    6    5   26      1.91      0.00
   -7    6   26      0.26      0.00
   -6    6   26     -0.80      0.00
   -5    6   26      1.32      0.00
   -4    6   26      2.03      0.00
   -3    6   26     -2.14      0.00
   -2    6   26     -0.24      0.00
   -1    6   26     -1.61      0.00
    0    6   26      5.94      0.00
    1    6   26     -4.39      0.00
    2    6   26     -0.51      0.00
    3    6   26      0.46      0.00
    4    6   26      0.72      0.00
    5    6   26     -1.21      0.00
    6    6   26      3.76      0.00
   -7    7   26     -1.08      0.00
   -6    7   26      0.20      0.00
   -5    7   26     -0.55      0.00
   -4    7   26     -0.51      0.00
   -3    7   26      2.58      0.00
   -2    7   26      0.43      0.00
   -1    7   26     -0.59      0.00
    0    7   26      2.28      0.00
    1    7   26     -1.83      0.00
    2    7   26      0.66      0.00
    3    7   26      0.04      0.00
    4    7   26      2.41      0.00
    5    7   26     -1.37      0.00
    6    7   26      0.99      0.00
   -7    8   26      0.45      0.00
   -6    8   26      0.57      0.00
   -5    8   26     -1.07      0.00
   -4    8   26      1.10      0.00
   -3    8   26     -1.35      0.00
   -2    8   26      1.34      0.00
   -1    8   26      0.43      0.00
    0    8   26      0.21      0.00
    1    8   26     -3.81      0.00
    2    8   26     -1.02      0.00
    3    8   26     -0.90      0.00
    4    8   26     -0.60      0.00
    5    8   26      0.63      0.00
    6    8   26      4.00      0.00
   -6    9   26     -1.11      0.00
   -5    9   26     -1.98      0.00
   -4    9   26      3.96      0.00
   -3    9   26      0.51      0.00
   -2    9   26      1.89      0.00
   -1    9   26     -0.37      0.00
    0    9   26      1.08      0.00
    1    9   26      0.31      0.00
    2    9   26     -0.97      0.00
    3    9   26      1.66      0.00
    4    9   26     -1.58      0.00
    5    9   26     -0.37      0.00
   -6   10   26     -0.27      0.00
   -5   10   26     -0.65      0.00
   -4   10   26     -0.93      0.00
   -3   10   26      0.43      0.00
   -2   10   26      3.22      0.00
   -1   10   26     -2.11      0.00
    0   10   26      1.54      0.00
    1   10   26     -1.70      0.00
    2   10   26      0.89      0.00
    3   10   26     -0.25      0.00
    4   10   26     -1.44      0.00
    5   10   26      2.44      0.00
   -5   11   26     -0.50      0.00
   -4   11   26      3.92      0.00
   -3   11   26      0.83      0.00
   -2   11   26     -1.97      0.00
   -1   11   26     -0.34      0.00
    0   11   26      0.71      0.00
    1   11   26     -0.52      0.00
    2   11   26      2.24      0.00
    3   11   26     -0.02      0.00
    4   11   26      0.89      0.00
   -5   12   26     -2.16      0.00
   -4   12   26      2.16      0.00
   -3   12   26      2.85      0.00
   -2   12   26      2.02      0.00
   -1   12   26     -0.32      0.00
    0   12   26     -0.77      0.00
    1   12   26      0.16      0.00
    2   12   26     -1.54      0.00
    3   12   26     -1.19      0.00
    4   12   26      1.22      0.00
   -4   13   26      3.51      0.00
   -3   13   26     -3.26      0.00
   -2   13   26      0.53      0.00
   -1   13   26      0.65      0.00
    0   13   26      1.61      0.00
    1   13   26     -0.06      0.00
    2   13   26      1.34      0.00
    3   13   26      0.64      0.00
   -3   14   26      0.32      0.00
   -2   14   26      1.10      0.00
   -1   14   26     -2.20      0.00
    0   14   26      2.92      0.00
    1   14   26     -0.97      0.00
    2   14   26     -1.23      0.00
   -7    0   27     -1.81      0.00
   -5    0   27      2.29      0.00
   -3    0   27      2.44      0.00
   -1    0   27      1.25      0.00
    1    0   27      1.19      0.00
    3    0   27     -4.84      0.00
    5    0   27      4.63      0.00
   -7    1   27     -0.12      0.00
   -6    1   27      1.33      0.00
   -5    1   27      0.57      0.00
   -4    1   27     -0.07      0.00
   -3    1   27      0.48      0.00
   -2    1   27     -1.49      0.00
   -1    1   27      0.97      0.00
    0    1   27      1.50      0.00
    1    1   27     -1.83      0.00
    2    1   27      1.60      0.00
    3    1   27     -1.10      0.00
    4    1   27      0.97      0.00
    5    1   27     -0.53      0.00
    6    1   27     -2.76      0.00
   -7    2   27     -1.65      0.00
   -6    2   27      1.90      0.00
   -5    2   27     -0.29      0.00
   -4    2   27      0.35      0.00
   -3    2   27      1.13      0.00
   -2    2   27     -0.28      0.00
   -1    2   27      4.02      0.00
    0    2   27     -1.22      0.00
    1    2   27      4.40      0.00
    2    2   27     -2.67      0.00
    3    2   27     -4.21      0.00
    4    2   27      2.36      0.00
    5    2   27      0.11      0.00
    6    2   27     -1.49      0.00
   -7    3   27      1.41      0.00
   -6    3   27      1.30      0.00
   -5    3   27      1.47      0.00
   -4    3   27     -1.33      0.00
   -3    3   27     -2.71      0.00
   -2    3   27      0.39      0.00
   -1    3   27     -3.26      0.00
    0    3   27     -2.08      0.00
    1    3   27      0.32      0.00
    2    3   27      3.56      0.00
    3    3   27      2.21      0.00
    4    3   27      0.19      0.00
    5    3   27     -0.20      0.00
    6    3   27     -0.27      0.00
   -7    4   27     -0.02      0.00
   -6    4   27      0.46      0.00
   -5    4   27      2.71      0.00
   -4    4   27      0.30      0.00
   -3    4   27      0.39      0.00
   -2    4   27     -0.49      0.00
   -1    4   27     -0.76      0.00
    0    4   27     -1.07      0.00
    1    4   27     -2.62      0.00
    2    4   27     -3.18      0.00
    3    4   27     -0.92      0.00
    4    4   27      2.62      0.00
    5    4   27     -1.89      0.00
    6    4   27     -2.30      0.00
   -7    5   27      1.84      0.00
   -6    5   27      1.43      0.00
   -5    5   27      2.17      0.00
   -4    5   27     -2.40      0.00
   -3    5   27      4.85      0.00
   -2    5   27     -0.53      0.00
   -1    5   27     -1.56      0.00
    0    5   27     -1.65      0.00
    1    5   27      0.42      0.00
    2    5   27      2.29      0.00
    3    5   27     -4.96      0.00
    4    5   27      0.36      0.00
    5    5   27     -0.64      0.00
    6    5   27      0.44      0.00
   -7    6   27      0.10      0.00
   -6    6   27     -0.68      0.00
   -5    6   27      1.57      0.00
   -4    6   27     -0.36      0.00
   -3    6   27     -1.72      0.00
   -2    6   27     -2.46      0.00
   -1    6   27      2.23      0.00
    0    6   27      0.27      0.00
    1    6   27      1.35      0.00
    2    6   27      1.08      0.00
    3    6   27      1.86      0.00
    4    6   27      0.41      0.00
    5    6   27     -2.55      0.00
    6    6   27     -1.09      0.00
   -6    7   27      1.16      0.00
   -5    7   27      0.82      0.00
   -4    7   27      1.08      0.00
   -3    7   27      0.92      0.00
   -2    7   27     -3.01      0.00
   -1    7   27     -2.79      0.00
    0    7   27     -1.83      0.00
    1    7   27      0.32      0.00
    2    7   27     -0.41      0.00
    3    7   27     -0.27      0.00
    4    7   27      1.61      0.00
    5    7   27      0.46      0.00
   -6    8   27     -0.03      0.00
   -5    8   27      1.79      0.00
   -4    8   27     -0.18      0.00
   -3    8   27     -1.77      0.00
   -2    8   27     -0.06      0.00
   -1    8   27      0.03      0.00
    0    8   27      1.53      0.00
    1    8   27     -2.20      0.00
    2    8   27     -0.60      0.00
    3    8   27     -3.32      0.00
    4    8   27     -0.47      0.00
    5    8   27      1.35      0.00
   -6    9   27      0.71      0.00
   -5    9   27     -0.57      0.00
   -4    9   27      1.14      0.00
   -3    9   27     -0.74      0.00
   -2    9   27     -2.75      0.00
   -1    9   27      1.39      0.00
    0    9   27     -0.18      0.00
    1    9   27      2.97      0.00
    2    9   27      0.21      0.00
    3    9   27      1.52      0.00
    4    9   27      0.74      0.00
    5    9   27     -1.28      0.00
   -5   10   27     -1.75      0.00
   -4   10   27      0.36      0.00
   -3   10   27     -2.82      0.00
   -2   10   27      0.02      0.00
   -1   10   27     -0.34      0.00
    0   10   27      0.33      0.00
    1   10   27     -1.65      0.00
    2   10   27     -2.73      0.00
    3   10   27      0.18      0.00
    4   10   27      2.75      0.00
   -5   11   27      1.79      0.00
   -4   11   27      1.88      0.00
   -3   11   27     -3.94      0.00
   -2   11   27     -1.20      0.00
   -1   11   27     -0.34      0.00
    0   11   27     -0.17      0.00
    1   11   27      1.94      0.00
    2   11   27     -2.10      0.00
    3   11   27      2.91      0.00
    4   11   27     -2.51      0.00
   -4   12   27     -0.36      0.00
   -3   12   27      2.56      0.00
   -2   12   27      2.31      0.00
   -1   12   27     -1.49      0.00
    0   12   27      1.84      0.00
    1   12   27     -3.83      0.00
    2   12   27      1.55      0.00
    3   12   27      2.53      0.00
   -3   13   27     -1.75      0.00
   -2   13   27     -1.42      0.00
   -1   13   27      3.47      0.00
    0   13   27     -0.90      0.00
    1   13   27      0.74      0.00
    2   13   27      1.14      0.00
   -6    0   28      1.67      0.00
   -4    0   28      1.05      0.00
   -2    0   28     -0.34      0.00
    0    0   28     -0.65      0.00
    2    0   28     -1.19      0.00
    4    0   28     -0.39      0.00
    6    0   28      1.28      0.00
   -7    1   28      2.18      0.00
   -6    1   28     -0.34      0.00
   -5    1   28     -4.35      0.00
   -4    1   28      1.60      0.00
   -3    1   28      3.56      0.00
   -2    1   28      0.25      0.00
   -1    1   28      4.61      0.00
    0    1   28      0.11      0.00
    1    1   28      0.92      0.00
    2    1   28     -0.60      0.00
    3    1   28      1.08      0.00
    4    1   28     -1.65      0.00
    5    1   28      1.57      0.00
    6    1   28     -0.19      0.00
   -7    2   28     -3.33      0.00
   -6    2   28      0.81      0.00
   -5    2   28     -2.13      0.00
   -4    2   28     -1.85      0.00
   -3    2   28      0.38      0.00
   -2    2   28     -1.37      0.00
   -1    2   28      0.50      0.00
    0    2   28      3.26      0.00
    1    2   28      3.63      0.00
    2    2   28      0.60      0.00
    3    2   28     -0.32      0.00
    4    2   28      0.54      0.00
    5    2   28      1.52      0.00
    6    2   28      0.23      0.00
   -7    3   28      1.27      0.00
   -6    3   28     -1.57      0.00
   -5    3   28     -3.10      0.00
   -4    3   28     -0.30      0.00
   -3    3   28      1.65      0.00
   -2    3   28     -5.49      0.00
   -1    3   28      3.07      0.00
    0    3   28     -2.15      0.00
    1    3   28      3.04      0.00
    2    3   28      1.27      0.00
    3    3   28     -0.50      0.00
    4    3   28      2.20      0.00
    5    3   28      1.25      0.00
    6    3   28     -0.60      0.00
   -7    4   28      0.39      0.00
   -6    4   28      0.39      0.00
   -5    4   28     -2.21      0.00
   -4    4   28     -1.88      0.00
   -3    4   28     -0.38      0.00
   -2    4   28     -2.75      0.00
   -1    4   28      3.33      0.00
    0    4   28     -0.43      0.00
    1    4   28      1.98      0.00
    2    4   28     -5.09      0.00
    3    4   28      0.55      0.00
    4    4   28      1.23      0.00
    5    4   28     -2.20      0.00
   -6    5   28     -3.68      0.00
   -5    5   28     -1.18      0.00
   -4    5   28     -0.55      0.00
   -3    5   28     -0.61      0.00
   -2    5   28     -2.06      0.00
   -1    5   28      1.46      0.00
    0    5   28      0.84      0.00
    1    5   28      3.08      0.00
    2    5   28     -0.44      0.00
    3    5   28      0.37      0.00
    4    5   28      1.28      0.00
    5    5   28      0.88      0.00
   -6    6   28     -1.62      0.00
   -5    6   28     -0.24      0.00
   -4    6   28     -4.00      0.00
   -3    6   28     -0.87      0.00
   -2    6   28      0.31      0.00
   -1    6   28      3.04      0.00
    0    6   28      0.59      0.00
    1    6   28     -1.40      0.00
    2    6   28     -0.41      0.00
    3    6   28      0.89      0.00
    4    6   28     -1.88      0.00
    5    6   28     -1.73      0.00
   -6    7   28     -1.38      0.00
   -5    7   28     -1.27      0.00
   -4    7   28     -0.87      0.00
   -3    7   28      0.35      0.00
   -2    7   28     -1.87      0.00
   -1    7   28      0.76      0.00
    0    7   28     -1.04      0.00
    1    7   28      0.12      0.00
    2    7   28      2.34      0.00
    3    7   28     -0.92      0.00
    4    7   28      2.43      0.00
    5    7   28     -0.79      0.00
   -5    8   28     -0.87      0.00
   -4    8   28      0.50      0.00
   -3    8   28     -1.31      0.00
   -2    8   28      2.40      0.00
   -1    8   28      3.23      0.00
    0    8   28     -2.15      0.00
    1    8   28      1.33      0.00
    2    8   28     -1.11      0.00
    3    8   28      1.21      0.00
    4    8   28     -1.68      0.00
   -5    9   28     -1.06      0.00
   -4    9   28      0.59      0.00
   -3    9   28     -1.59      0.00
   -2    9   28      2.12      0.00
   -1    9   28     -1.86      0.00
    0    9   28     -0.24      0.00
    1    9   28      0.57      0.00
    2    9   28      0.78      0.00
    3    9   28     -0.49      0.00
    4    9   28     -2.47      0.00
   -4   10   28     -0.07      0.00
   -3   10   28     -1.32      0.00
   -2   10   28      0.90      0.00
   -1   10   28      0.21      0.00
    0   10   28     -0.32      0.00
    1   10   28      1.29      0.00
    2   10   28      2.60      0.00
    3   10   28     -0.14      0.00
   -4   11   28     -1.72      0.00
   -3   11   28      1.45      0.00
   -2   11   28     -1.92      0.00
   -1   11   28     -0.30      0.00
    0   11   28     -0.91      0.00
    1   11   28      1.07      0.00
    2   11   28      0.43      0.00
    3   11   28     -2.99      0.00
   -3   12   28     -1.62      0.00
   -2   12   28     -2.58      0.00
   -1   12   28      0.28      0.00
    0   12   28     -3.10      0.00
    1   12   28      3.32      0.00
   -1   13   28      1.15      0.00
    0   13   28      0.65      0.00
   -5    0   29      1.65      0.00
   -3    0   29     -2.26      0.00
   -1    0   29     -1.84      0.00
    1    0   29     -4.54      0.00
    3    0   29     -1.22      0.00
    5    0   29     -0.30      0.00
   -6    1   29     -1.92      0.00
   -5    1   29     -0.58      0.00
   -4    1   29      0.81      0.00
   -3    1   29      0.26      0.00
   -2    1   29     -2.67      0.00
   -1    1   29      4.53      0.00
    0    1   29     -2.57      0.00
    1    1   29      1.09      0.00
    2    1   29      0.52      0.00
    3    1   29      0.80      0.00
    4    1   29      3.76      0.00
    5    1   29      0.11      0.00
   -6    2   29      0.45      0.00
   -5    2   29     -0.78      0.00
   -4    2   29     -0.36      0.00
   -3    2   29     -1.13      0.00
   -2    2   29      1.10      0.00
   -1    2   29      1.28      0.00
    0    2   29     -0.38      0.00
    1    2   29      0.64      0.00
    2    2   29     -1.29      0.00
    3    2   29     -1.35      0.00
    4    2   29     -2.59      0.00
    5    2   29     -1.68      0.00
   -6    3   29     -3.10      0.00
   -5    3   29     -1.41      0.00
   -4    3   29     -0.57      0.00
   -3    3   29     -3.68      0.00
   -2    3   29     -0.26      0.00
   -1    3   29      2.40      0.00
    0    3   29     -3.01      0.00
    1    3   29      2.42      0.00
    2    3   29      0.56      0.00
    3    3   29      5.94      0.00
    4    3   29      2.62      0.00
    5    3   29      0.28      0.00
   -6    4   29     -1.58      0.00
   -5    4   29      0.09      0.00
   -4    4   29      0.34      0.00
   -3    4   29      3.72      0.00
   -2    4   29      2.08      0.00
   -1    4   29     -0.13      0.00
    0    4   29      0.69      0.00
    1    4   29     -1.67      0.00
    2    4   29     -1.06      0.00
    3    4   29     -2.78      0.00
    4    4   29     -0.02      0.00
    5    4   29      0.23      0.00
   -6    5   29     -1.96      0.00
   -5    5   29     -2.63      0.00
   -4    5   29     -1.61      0.00
   -3    5   29     -2.67      0.00
   -2    5   29     -0.88      0.00
   -1    5   29      0.70      0.00
    0    5   29     -1.04      0.00
    1    5   29      1.74      0.00
    2    5   29     -0.36      0.00
    3    5   29      1.11      0.00
    4    5   29      1.84      0.00
    5    5   29      0.26      0.00
   -6    6   29     -1.41      0.00
   -5    6   29     -0.13      0.00
   -4    6   29      2.05      0.00
   -3    6   29      2.72      0.00
   -2    6   29      1.18      0.00
   -1    6   29      0.53      0.00
    0    6   29      1.13      0.00
    1    6   29      1.55      0.00
    2    6   29     -1.54      0.00
    3    6   29      0.48      0.00
    4    6   29      1.09      0.00
   -5    7   29     -2.89      0.00
   -4    7   29     -0.68      0.00
   -3    7   29     -5.36      0.00
   -2    7   29      0.03      0.00
   -1    7   29     -4.62      0.00
    0    7   29      1.31      0.00
    1    7   29     -0.63      0.00
    2    7   29     -1.32      0.00
    3    7   29      2.76      0.00
    4    7   29      1.75      0.00
   -5    8   29      1.65      0.00
   -4    8   29     -0.53      0.00
   -3    8   29      3.19      0.00
   -2    8   29      1.38      0.00
   -1    8   29      0.81      0.00
    0    8   29      1.56      0.00
    1    8   29     -2.60      0.00
    2    8   29     -2.36      0.00
    3    8   29      0.76      0.00
    4    8   29     -1.22      0.00
   -4    9   29     -1.20      0.00
   -3    9   29     -1.45      0.00
   -2    9   29     -0.83      0.00
   -1    9   29     -1.13      0.00
    0    9   29      2.83      0.00
    1    9   29     -0.47      0.00
    2    9   29      0.64      0.00
    3    9   29      0.19      0.00
   -4   10   29     -0.25      0.00
   -3   10   29      0.17      0.00
   -2   10   29     -0.35      0.00
   -1   10   29      3.88      0.00
    0   10   29     -2.88      0.00
    1   10   29      1.32      0.00
    2   10   29     -3.02      0.00
    3   10   29      2.59      0.00
   -3   11   29     -0.60      0.00
   -2   11   29      0.51      0.00
   -1   11   29     -1.56      0.00
    0   11   29      1.76      0.00
    1   11   29     -1.67      0.00
    2   11   29     -1.49      0.00
   -1   12   29      3.17      0.00
    0   12   29     -2.33      0.00
   -6    0   30     -2.09      0.00
   -4    0   30     -0.65      0.00
   -2    0   30     -4.07      0.00
    0    0   30     -3.89      0.00
    2    0   30      2.01      0.00
    4    0   30      0.25      0.00
   -6    1   30      0.27      0.00
   -5    1   30      2.29      0.00
   -4    1   30      0.80      0.00
   -3    1   30      1.82      0.00
   -2    1   30      1.25      0.00
   -1    1   30      0.28      0.00
    0    1   30     -0.45      0.00
    1    1   30     -1.02      0.00
    2    1   30     -3.41      0.00
    3    1   30     -5.22      0.00
    4    1   30     -0.89      0.00
    5    1   30     -0.84      0.00
   -6    2   30     -1.30      0.00
   -5    2   30      3.01      0.00
   -4    2   30     -0.49      0.00
   -3    2   30      1.10      0.00
   -2    2   30     -2.80      0.00
   -1    2   30      0.69      0.00
    0    2   30     -0.67      0.00
    1    2   30      0.07      0.00
    2    2   30      3.46      0.00
    3    2   30     -2.11      0.00
    4    2   30      1.74      0.00
    5    2   30      1.47      0.00
   -6    3   30      1.45      0.00
   -5    3   30      2.87      0.00
   -4    3   30      0.95      0.00
   -3    3   30      1.30      0.00
   -2    3   30     -0.35      0.00
   -1    3   30      1.83      0.00
    0    3   30     -3.02      0.00
    1    3   30     -1.96      0.00
    2    3   30     -2.01      0.00
    3    3   30     -1.69      0.00
    4    3   30      0.05      0.00
   -5    4   30      3.81      0.00
   -4    4   30      3.10      0.00
   -3    4   30     -0.46      0.00
   -2    4   30     -1.00      0.00
   -1    4   30     -0.12      0.00
    0    4   30     -3.41      0.00
    1    4   30     -1.34      0.00
    2    4   30     -1.23      0.00
    3    4   30     -1.92      0.00
    4    4   30      4.48      0.00
   -5    5   30      5.04      0.00
   -4    5   30      2.05      0.00
   -3    5   30      0.17      0.00
   -2    5   30      4.65      0.00
   -1    5   30      1.77      0.00
    0    5   30      0.19      0.00
    1    5   30     -1.03      0.00
    2    5   30      0.33      0.00
    3    5   30      0.87      0.00
    4    5   30     -2.36      0.00
   -5    6   30      3.38      0.00
   -4    6   30     -0.24      0.00
   -3    6   30      0.13      0.00
   -2    6   30     -1.44      0.00
   -1    6   30     -3.39      0.00
    0    6   30     -0.65      0.00
    1    6   30     -3.28      0.00
    2    6   30      3.15      0.00
    3    6   30     -0.88      0.00
    4    6   30      2.15      0.00
   -5    7   30      3.49      0.00
   -4    7   30      0.49      0.00
   -3    7   30      1.19      0.00
   -2    7   30      0.29      0.00
   -1    7   30      1.95      0.00
    0    7   30     -1.57      0.00
    1    7   30     -1.44      0.00
    2    7   30      1.57      0.00
    3    7   30     -0.62      0.00
   -4    8   30      1.98      0.00
   -3    8   30      0.49      0.00
   -2    8   30     -3.37      0.00
   -1    8   30     -0.98      0.00
    0    8   30     -2.11      0.00
    1    8   30      0.00      0.00
    2    8   30      2.98      0.00
    3    8   30     -1.05      0.00
   -3    9   30     -1.73      0.00
   -2    9   30      1.13      0.00
   -1    9   30      1.48      0.00
    0    9   30     -2.84      0.00
    1    9   30      0.74      0.00
    2    9   30     -0.95      0.00
   -2   10   30     -2.83      0.00
   -1   10   30      0.00      0.00
    0   10   30     -1.48      0.00
    1   10   30      2.29      0.00
   -5    0   31      0.83      0.00
   -3    0   31      1.94      0.00
   -1    0   31      0.86      0.00
    1    0   31     -2.39      0.00
    3    0   31      1.39      0.00
   -5    1   31     -1.46      0.00
   -4    1   31     -2.20      0.00
   -3    1   31      2.04      0.00
   -2    1   31     -0.55      0.00
   -1    1   31      0.78      0.00
    0    1   31      2.02      0.00
    1    1   31     -1.49      0.00
    2    1   31     -1.01      0.00
    3    1   31      0.59      0.00
    4    1   31      2.96      0.00
   -5    2   31     -1.33      0.00
   -4    2   31     -2.00      0.00
   -3    2   31     -0.01      0.00
   -2    2   31     -1.99      0.00
   -1    2   31      1.23      0.00
    0    2   31     -2.54      0.00
    1    2   31      2.31      0.00
    2    2   31      3.10      0.00
    3    2   31      1.13      0.00
    4    2   31     -0.93      0.00
   -5    3   31     -1.61      0.00
   -4    3   31     -0.54      0.00
   -3    3   31      1.56      0.00
   -2    3   31     -0.40      0.00
   -1    3   31     -3.08      0.00
    0    3   31     -1.17      0.00
    1    3   31     -3.02      0.00
    2    3   31      1.43      0.00
    3    3   31      1.29      0.00
    4    3   31     -0.47      0.00
   -5    4   31     -1.76      0.00
   -4    4   31     -1.78      0.00
   -3    4   31      0.53      0.00
   -2    4   31     -1.26      0.00
   -1    4   31     -0.01      0.00
    0    4   31      0.70      0.00
    1    4   31      2.90      0.00
    2    4   31      3.18      0.00
    3    4   31     -2.30      0.00
    4    4   31      1.19      0.00
   -4    5   31     -0.53      0.00
   -3    5   31      2.46      0.00
   -2    5   31     -1.93      0.00
   -1    5   31     -1.63      0.00
    0    5   31     -1.12      0.00
    1    5   31     -1.08      0.00
    2    5   31      2.64      0.00
    3    5   31     -3.44      0.00
   -4    6   31      2.58      0.00
   -3    6   31     -1.22      0.00
   -2    6   31      0.81      0.00
   -1    6   31      1.96      0.00
    0    6   31      3.38      0.00
    1    6   31      3.18      0.00
    2    6   31      0.69      0.00
    3    6   31     -0.70      0.00
   -4    7   31     -1.11      0.00
   -3    7   31     -0.19      0.00
   -2    7   31      0.77      0.00
   -1    7   31     -0.22      0.00
    0    7   31      0.10      0.00
    1    7   31     -0.58      0.00
    2    7   31      1.01      0.00
   -3    8   31     -1.77      0.00
   -2    8   31      2.62      0.00
   -1    8   31      1.70      0.00
    0    8   31      3.31      0.00
    1    8   31     -0.73      0.00
   -2    9   31      1.57      0.00
   -1    9   31      1.41      0.00
    0    9   31     -2.64      0.00
    1    9   31      1.74      0.00
   -4    0   32      0.60      0.00
   -2    0   32      3.11      0.00
    0    0   32      1.71      0.00
    2    0   32      1.25      0.00
   -4    1   32      1.36      0.00
   -3    1   32     -0.63      0.00
   -2    1   32     -0.12      0.00
   -1    1   32      0.37      0.00
    0    1   32      1.07      0.00
    1    1   32     -1.67      0.00
    2    1   32     -1.42      0.00
    3    1   32     -3.14      0.00
   -4    2   32     -2.34      0.00
   -3    2   32      0.38      0.00
   -2    2   32      2.00      0.00
   -1    2   32      1.04      0.00
    0    2   32      2.67      0.00
    1    2   32      2.65      0.00
    2    2   32      2.47      0.00
    3    2   32      0.24      0.00
   -4    3   32      1.04      0.00
   -3    3   32     -2.60      0.00
   -2    3   32     -2.23      0.00
   -1    3   32      0.49      0.00
    0    3   32     -0.28      0.00
    1    3   32     -1.26      0.00
    2    3   32     -0.31      0.00
    3    3   32     -1.05      0.00
   -4    4   32     -1.76      0.00
   -3    4   32     -0.63      0.00
   -2    4   32      1.35      0.00
   -1    4   32     -0.18      0.00
    0    4   32      0.06      0.00
    1    4   32      1.18      0.00
    2    4   32     -2.34      0.00
    3    4   32     -0.86      0.00
   -3    5   32     -2.36      0.00
   -2    5   32      2.09      0.00
   -1    5   32     -1.67      0.00
    0    5   32      2.51      0.00
    1    5   32     -0.95      0.00
    2    5   32      1.01      0.00
   -3    6   32     -0.81      0.00
   -2    6   32      1.00      0.00
   -1    6   32     -2.37      0.00
    0    6   32      1.48      0.00
    1    6   32     -1.52      0.00
    2    6   32     -0.16      0.00
   -2    7   32      0.66      0.00
   -1    7   32     -2.47      0.00
    0    7   32      1.22      0.00
    1    7   32     -1.77      0.00
   -1    8   32     -1.03      0.00
    0    8   32      2.34      0.00
   -3    0   33      1.97      0.00
   -1    0   33      0.32      0.00
    1    0   33     -3.21      0.00
   -3    1   33      1.85      0.00
   -2    1   33     -0.48      0.00
   -1    1   33      2.18      0.00
    0    1   33     -1.34      0.00
    1    1   33      1.16      0.00
    2    1   33      3.72      0.00
   -3    2   33      1.81      0.00
   -2    2   33      1.02      0.00
   -1    2   33      0.56      0.00
    0    2   33      0.75      0.00
    1    2   33      0.14      0.00
    2    2   33      0.40      0.00
   -3    3   33      1.47      0.00
   -2    3   33      0.14      0.00
   -1    3   33      0.67      0.00
    0    3   33     -0.63      0.00
    1    3   33      0.57      0.00
    2    3   33      1.33      0.00
   -3    4   33      3.16      0.00
   -2    4   33     -0.40      0.00
   -1    4   33     -0.29      0.00
    0    4   33      2.46      0.00
    1    4   33     -1.03      0.00
   -2    5   33     -1.20      0.00
   -1    5   33      1.23      0.00
    0    5   33     -0.23      0.00
    1    5   33     -1.26      0.00
   -1    6   33     -0.77      0.00
    0    6   33      0.94      0.00
   -2    0   34      0.30      0.00
   -2    1   34     -0.19      0.00
   -1    1   34     -2.87      0.00
   12    0    0     -0.50      0.00
   12    1    0      1.45      0.00
    0    2    0    229.50      0.00
   12    2    0     -0.64      0.00
   12    3    0      0.02      0.00
    4    4    0     17.35      0.00
   12    4    0     -1.58      0.00
   12    5    0      1.04      0.00
   12    6    0     -3.40      0.00
   12    7    0      1.26      0.00
   12    8    0     -3.91      0.00
   11    9    0      0.95      0.00
   11   10    0     -2.77      0.00
   11   11    0      0.11      0.00
    4   12    0     -4.09      0.00
   11   12    0      0.25      0.00
   10   13    0     -1.55      0.00
   10   14    0     -1.26      0.00
    9   15    0      0.01      0.00
   10   15    0      0.40      0.00
    9   16    0     -1.27      0.00
    8   17    0      1.67      0.00
    9   17    0     -0.34      0.00
    8   18    0     -0.07      0.00
    7   19    0     -0.30      0.00
    8   19    0      0.45      0.00
    6   20    0      0.55      0.00
    7   20    0     -0.31      0.00
    5   21    0     -2.26      0.00
    6   21    0     -0.31      0.00
    0   22    0     -3.38      0.00
    1   22    0     -0.45      0.00
    2   22    0     -0.28      0.00
    3   22    0      0.18      0.00
    4   22    0     -0.69      0.00
    5   22    0     -0.20      0.00
    1   23    0     -0.86      0.00
    2   23    0      0.92      0.00
    3   23    0      1.81      0.00
    4   23    0     -0.63      0.00
  -12    1    1      0.51      0.00
   12    1    1      2.18      0.00
  -12    2    1      1.16      0.00
   12    2    1      1.12      0.00
  -12    3    1      1.48      0.00
   12    3    1      3.80      0.00
  -12    4    1      0.89      0.00
   12    4    1      0.48      0.00
  -12    5    1     -0.32      0.00
   12    5    1      1.23      0.00
  -12    6    1      1.91      0.00
   12    6    1     -0.85      0.00
  -12    7    1     -0.65      0.00
   12    7    1     -1.73      0.00
  -12    8    1      0.90      0.00
   12    8    1     -0.69      0.00
  -11    9    1     -0.86      0.00
   11    9    1     -2.21      0.00
  -11   10    1      0.26      0.00
   11   10    1     -0.44      0.00
  -11   11    1      0.95      0.00
   11   11    1     -0.05      0.00
  -11   12    1      0.05      0.00
   11   12    1      1.27      0.00
  -10   13    1      2.88      0.00
   10   13    1     -1.22      0.00
  -10   14    1     -1.43      0.00
   10   14    1      1.63      0.00
  -10   15    1      2.09      0.00
   -9   15    1     -1.45      0.00
    9   15    1     -0.59      0.00
   10   15    1     -0.32      0.00
   -9   16    1      2.98      0.00
    9   16    1     -1.09      0.00
   -9   17    1     -0.98      0.00
   -8   17    1      2.37      0.00
    8   17    1      0.41      0.00
    9   17    1     -2.44      0.00
   -8   18    1     -1.34      0.00
    8   18    1      1.47      0.00
   -8   19    1      1.72      0.00
   -7   19    1      0.15      0.00
    7   19    1      1.22      0.00
    8   19    1     -1.13      0.00
   -7   20    1     -0.25      0.00
   -6   20    1     -0.37      0.00
    6   20    1     -1.97      0.00
    7   20    1     -0.05      0.00
   -6   21    1      1.88      0.00
   -5   21    1     -0.55      0.00
    0   21    1      1.00      0.00
    5   21    1     -1.36      0.00
    6   21    1      1.38      0.00
   -5   22    1     -0.97      0.00
   -4   22    1     -1.88      0.00
   -3   22    1     -0.21      0.00
   -1   22    1     -0.93      0.00
    0   22    1      0.06      0.00
    1   22    1      0.46      0.00
    3   22    1      1.45      0.00
    4   22    1     -1.20      0.00
    5   22    1      0.41      0.00
   -4   23    1      2.44      0.00
   -3   23    1     -0.62      0.00
   -2   23    1     -0.24      0.00
   -1   23    1      2.37      0.00
    0   23    1      0.17      0.00
    1   23    1     -0.61      0.00
    2   23    1      0.14      0.00
    3   23    1     -0.34      0.00
    4   23    1     -0.16      0.00
  -12    0    2      4.97      0.00
    0    0    2    -74.48      0.00
    6    0    2     18.30      0.00
   12    0    2     -0.99      0.00
  -12    1    2      0.10      0.00
   12    1    2      0.87      0.00
  -12    2    2      2.52      0.00
   12    2    2     -0.76      0.00
  -12    3    2      2.04      0.00
   12    3    2     -0.98      0.00
  -12    4    2      1.12      0.00
   -4    4    2    -16.80      0.00
   12    4    2      0.47      0.00
  -12    5    2      1.34      0.00
   12    5    2     -0.08      0.00
  -12    6    2      1.42      0.00
   12    6    2     -0.96      0.00
  -12    7    2      0.90      0.00
   12    7    2      0.27      0.00
  -12    8    2      1.54      0.00
   12    8    2     -1.62      0.00
  -11    9    2      2.82      0.00
   11    9    2      1.56      0.00
  -11   10    2     -0.64      0.00
   11   10    2     -2.41      0.00
  -11   11    2      3.05      0.00
   11   11    2      0.75      0.00
  -11   12    2     -0.92      0.00
   10   12    2      0.20      0.00
   11   12    2     -1.73      0.00
  -10   13    2     -2.75      0.00
   10   13    2      0.16      0.00
  -10   14    2     -0.03      0.00
   10   14    2      0.56      0.00
  -10   15    2     -0.74      0.00
   -9   15    2     -1.57      0.00
    9   15    2     -2.18      0.00
   10   15    2      0.97      0.00
   -9   16    2      0.61      0.00
    9   16    2     -1.86      0.00
   -9   17    2     -1.55      0.00
   -8   17    2      1.15      0.00
    8   17    2     -4.64      0.00
    9   17    2     -1.04      0.00
   -8   18    2     -0.15      0.00
    8   18    2      0.37      0.00
   -8   19    2      0.78      0.00
   -7   19    2     -1.28      0.00
    7   19    2     -3.02      0.00
    8   19    2     -1.75      0.00
   -7   20    2      0.08      0.00
   -6   20    2      1.77      0.00
    6   20    2      0.42      0.00
    7   20    2      1.57      0.00
   -6   21    2     -1.08      0.00
   -5   21    2      0.14      0.00
    5   21    2     -0.14      0.00
    6   21    2     -0.79      0.00
   -5   22    2      0.13      0.00
   -4   22    2      0.07      0.00
   -3   22    2      0.81      0.00
   -1   22    2     -0.66      0.00
    0   22    2      2.17      0.00
    1   22    2     -0.24      0.00
    3   22    2     -1.71      0.00
    4   22    2      0.56      0.00
    5   22    2     -0.24      0.00
   -4   23    2      0.03      0.00
   -3   23    2     -0.63      0.00
   -2   23    2      0.91      0.00
   -1   23    2     -1.54      0.00
    0   23    2     -2.30      0.00
    1   23    2      0.63      0.00
    2   23    2     -0.82      0.00
    3   23    2      0.29      0.00
    4   23    2      0.64      0.00
  -12    1    3      0.00      0.00
   12    1    3      1.35      0.00
  -12    2    3      1.87      0.00
   12    2    3      1.28      0.00
  -12    3    3     -0.70      0.00
   12    3    3      0.53      0.00
  -12    4    3      2.15      0.00
   12    4    3      2.62      0.00
  -12    5    3      1.10      0.00
   12    5    3      0.88      0.00
  -12    6    3      0.07      0.00
   12    6    3      2.82      0.00
  -12    7    3      1.08      0.00
   12    7    3     -0.24      0.00
  -12    8    3     -0.99      0.00
   11    8    3      3.10      0.00
   12    8    3      0.49      0.00
  -11    9    3     -2.44      0.00
   11    9    3     -0.42      0.00
  -11   10    3     -1.57      0.00
   11   10    3     -1.29      0.00
  -11   11    3     -0.45      0.00
   11   11    3      1.59      0.00
  -11   12    3      1.29      0.00
   10   12    3     -2.45      0.00
   11   12    3     -0.18      0.00
  -10   13    3     -1.79      0.00
   10   13    3     -0.25      0.00
  -10   14    3     -0.88      0.00
   10   14    3     -1.53      0.00
  -10   15    3     -0.32      0.00
   -9   15    3      1.24      0.00
    9   15    3     -0.52      0.00
   10   15    3      1.44      0.00
   -9   16    3      0.75      0.00
    9   16    3     -0.87      0.00
   -9   17    3     -1.00      0.00
   -8   17    3     -2.67      0.00
    8   17    3     -0.63      0.00
    9   17    3      1.79      0.00
   -8   18    3     -0.28      0.00
    8   18    3     -1.47      0.00
   -8   19    3      0.23      0.00
   -7   19    3     -0.15      0.00
    7   19    3      1.72      0.00
    8   19    3      0.06      0.00
   -7   20    3     -0.79      0.00
   -6   20    3     -0.35      0.00
    6   20    3      1.29      0.00
    7   20    3     -0.52      0.00
   -6   21    3      0.52      0.00
   -5   21    3      1.92      0.00
    5   21    3     -1.30      0.00
    6   21    3      0.08      0.00
   -5   22    3     -0.71      0.00
   -4   22    3      0.08      0.00
   -3   22    3      0.28      0.00
    0   22    3     -0.70      0.00
    1   22    3     -2.78      0.00
    3   22    3      0.29      0.00
    4   22    3      0.75      0.00
    5   22    3     -1.64      0.00
   -4   23    3     -2.82      0.00
   -3   23    3      1.08      0.00
   -2   23    3      0.16      0.00
   -1   23    3     -1.35      0.00
    0   23    3      1.45      0.00
    1   23    3      1.02      0.00
    2   23    3     -1.16      0.00
    3   23    3      0.43      0.00
    4   23    3     -1.15      0.00
  -12    0    4     -5.48      0.00
   12    0    4      1.09      0.00
  -12    1    4     -1.98      0.00
   12    1    4      0.32      0.00
  -12    2    4     -1.42      0.00
   12    2    4      1.00      0.00
  -12    3    4      0.71      0.00
   12    3    4      1.64      0.00
  -12    4    4     -0.94      0.00
    4    4    4    -14.60      0.00
   12    4    4      2.31      0.00
  -12    5    4      0.54      0.00
   12    5    4      3.52      0.00
  -12    6    4     -1.03      0.00
   12    6    4      0.37      0.00
  -12    7    4      0.13      0.00
   12    7    4      1.00      0.00
  -12    8    4      0.82      0.00
   11    8    4      1.89      0.00
  -11    9    4     -1.56      0.00
   11    9    4      0.37      0.00
  -11   10    4     -0.24      0.00
   11   10    4      1.70      0.00
  -11   11    4     -0.82      0.00
   11   11    4     -1.17      0.00
  -11   12    4     -0.68      0.00
   10   12    4      1.26      0.00
   11   12    4      2.01      0.00
  -10   13    4      0.87      0.00
   10   13    4      0.11      0.00
  -10   14    4      1.19      0.00
   10   14    4     -0.25      0.00
  -10   15    4      1.44      0.00
   -9   15    4      1.29      0.00
    9   15    4      1.11      0.00
   10   15    4      3.70      0.00
   -9   16    4     -1.44      0.00
    9   16    4     -0.32      0.00
   -9   17    4     -0.16      0.00
   -8   17    4      1.98      0.00
    8   17    4      1.56      0.00
    9   17    4      2.46      0.00
   -8   18    4     -0.09      0.00
    8   18    4      0.05      0.00
   -8   19    4      1.18      0.00
   -7   19    4     -0.39      0.00
    7   19    4     -0.04      0.00
   -7   20    4     -0.50      0.00
   -6   20    4     -0.74      0.00
   -2   20    4      4.22      0.00
    6   20    4      1.83      0.00
    7   20    4     -1.93      0.00
   -6   21    4     -0.54      0.00
   -5   21    4      1.33      0.00
    5   21    4      2.04      0.00
    6   21    4      2.25      0.00
   -5   22    4      1.56      0.00
   -4   22    4      1.99      0.00
   -3   22    4     -0.66      0.00
    3   22    4     -0.13      0.00
    4   22    4      0.43      0.00
    5   22    4     -1.08      0.00
   -4   23    4     -0.33      0.00
   -3   23    4      1.06      0.00
   -2   23    4     -0.45      0.00
   -1   23    4     -0.66      0.00
    0   23    4      2.22      0.00
    1   23    4     -1.32      0.00
    2   23    4     -0.57      0.00
    3   23    4      1.04      0.00
    4   23    4      0.94      0.00
  -12    1    5     -1.40      0.00
   12    1    5     -4.11      0.00
  -12    2    5      3.16      0.00
   12    2    5     -0.41      0.00
  -12    3    5      1.51      0.00
   12    3    5     -1.50      0.00
  -12    4    5     -1.06      0.00
   12    4    5      0.42      0.00
  -12    5    5      2.04      0.00
   12    5    5     -2.22      0.00
  -12    6    5     -0.19      0.00
   12    6    5      0.81      0.00
  -12    7    5      2.02      0.00
   12    7    5     -2.29      0.00
  -12    8    5      1.81      0.00
   11    8    5      3.74      0.00
  -11    9    5     -1.04      0.00
   11    9    5     -0.53      0.00
  -11   10    5     -0.47      0.00
   11   10    5      1.81      0.00
  -11   11    5      1.43      0.00
   11   11    5      0.62      0.00
  -11   12    5     -0.46      0.00
   10   12    5      2.07      0.00
  -10   13    5      2.59      0.00
   10   13    5      0.45      0.00
  -10   14    5      1.05      0.00
   10   14    5     -0.07      0.00
  -10   15    5      2.48      0.00
   -9   15    5      1.87      0.00
    9   15    5      0.75      0.00
   -9   16    5      0.06      0.00
    9   16    5     -1.45      0.00
   -9   17    5      1.10      0.00
   -8   17    5     -0.67      0.00
    8   17    5      2.46      0.00
    9   17    5     -0.70      0.00
   -8   18    5      0.85      0.00
    7   18    5      0.25      0.00
    8   18    5     -0.74      0.00
   -8   19    5      0.19      0.00
   -7   19    5     -1.95      0.00
    7   19    5      0.14      0.00
   -7   20    5     -0.11      0.00
   -6   20    5      2.45      0.00
    6   20    5     -0.53      0.00
    7   20    5     -0.24      0.00
   -6   21    5      0.51      0.00
   -5   21    5     -1.60      0.00
    5   21    5      0.18      0.00
    6   21    5      1.16      0.00
   -5   22    5      0.20      0.00
   -4   22    5      0.54      0.00
   -3   22    5     -1.17      0.00
    3   22    5      0.49      0.00
    4   22    5     -0.31      0.00
    5   22    5     -0.01      0.00
   -4   23    5     -0.91      0.00
   -3   23    5      1.22      0.00
   -2   23    5      0.74      0.00
   -1   23    5      1.87      0.00
    0   23    5     -0.19      0.00
    1   23    5     -0.97      0.00
    2   23    5      0.88      0.00
    3   23    5     -2.01      0.00
    4   23    5      0.69      0.00
  -12    0    6     -2.67      0.00
    0    0    6     41.16      0.00
   12    0    6     -0.08      0.00
  -12    1    6      0.62      0.00
   12    1    6      1.01      0.00
  -12    2    6     -2.21      0.00
   12    2    6     -0.23      0.00
  -12    3    6      1.26      0.00
   12    3    6     -0.42      0.00
  -12    4    6     -1.34      0.00
   -4    4    6     -2.54      0.00
    4    4    6     -5.61      0.00
   12    4    6      0.74      0.00
  -12    5    6     -0.62      0.00
   12    5    6     -0.71      0.00
  -12    6    6      0.84      0.00
   12    6    6      0.79      0.00
  -12    7    6      1.79      0.00
   11    7    6      0.04      0.00
   12    7    6     -0.61      0.00
  -12    8    6      0.05      0.00
   11    8    6      1.65      0.00
  -11    9    6      0.94      0.00
   11    9    6     -1.83      0.00
  -11   10    6     -1.86      0.00
   11   10    6      0.75      0.00
  -11   11    6     -0.42      0.00
   11   11    6     -0.14      0.00
  -11   12    6     -1.76      0.00
  -10   12    6      1.59      0.00
   10   12    6     -2.00      0.00
  -10   13    6      1.25      0.00
   10   13    6     -3.07      0.00
  -10   14    6     -0.31      0.00
    9   14    6     -0.54      0.00
   10   14    6     -0.02      0.00
  -10   15    6      1.11      0.00
   -9   15    6     -0.01      0.00
    9   15    6     -1.97      0.00
   -9   16    6      0.35      0.00
    9   16    6     -1.10      0.00
   -9   17    6     -0.56      0.00
   -8   17    6     -2.51      0.00
    8   17    6     -0.15      0.00
   -8   18    6      0.23      0.00
    7   18    6     -0.46      0.00
    8   18    6     -1.43      0.00
   -8   19    6     -0.91      0.00
   -7   19    6      1.54      0.00
    7   19    6      0.91      0.00
   -7   20    6     -0.20      0.00
   -6   20    6      0.82      0.00
    6   20    6     -2.70      0.00
    7   20    6     -1.66      0.00
   -6   21    6      1.33      0.00
   -5   21    6      0.39      0.00
    4   21    6      2.58      0.00
    5   21    6     -1.19      0.00
    6   21    6      0.33      0.00
   -5   22    6     -0.88      0.00
   -4   22    6     -3.09      0.00
   -3   22    6     -0.04      0.00
    2   22    6     -0.08      0.00
    3   22    6      0.54      0.00
    4   22    6     -0.14      0.00
    5   22    6     -2.57      0.00
   -4   23    6     -0.92      0.00
   -3   23    6      0.12      0.00
   -2   23    6     -0.11      0.00
   -1   23    6     -0.01      0.00
    0   23    6     -0.11      0.00
    1   23    6      0.25      0.00
    2   23    6     -0.88      0.00
    3   23    6     -0.63      0.00
    4   23    6      1.02      0.00
  -12    1    7      0.72      0.00
   12    1    7      0.16      0.00
  -12    2    7     -1.56      0.00
   12    2    7      0.24      0.00
  -12    3    7     -0.87      0.00
   12    3    7     -1.57      0.00
  -12    4    7     -1.25      0.00
   12    4    7      0.43      0.00
  -12    5    7      0.35      0.00
   12    5    7     -0.84      0.00
  -12    6    7     -3.29      0.00
   12    6    7      0.87      0.00
  -12    7    7      0.90      0.00
   11    7    7      0.38      0.00
  -12    8    7     -4.36      0.00
  -11    8    7      3.29      0.00
   11    8    7      1.32      0.00
  -11    9    7     -0.68      0.00
   11    9    7      1.23      0.00
  -11   10    7      4.52      0.00
   11   10    7     -0.12      0.00
  -11   11    7      0.03      0.00
   10   11    7     -0.67      0.00
   11   11    7      1.91      0.00
  -11   12    7      0.31      0.00
  -10   12    7     -2.47      0.00
   10   12    7     -0.51      0.00
  -10   13    7     -1.31      0.00
   10   13    7     -2.13      0.00
  -10   14    7     -0.40      0.00
    9   14    7     -0.69      0.00
   10   14    7      1.11      0.00
  -10   15    7     -1.34      0.00
   -9   15    7     -2.21      0.00
    9   15    7     -3.45      0.00
   -9   16    7      1.12      0.00
    8   16    7     -0.21      0.00
    9   16    7     -1.13      0.00
   -9   17    7     -1.83      0.00
   -8   17    7     -1.40      0.00
    8   17    7     -2.03      0.00
   -8   18    7     -2.07      0.00
   -7   18    7     -0.16      0.00
    7   18    7      0.27      0.00
    8   18    7     -1.62      0.00
   -7   19    7      0.88      0.00
    6   19    7     -0.32      0.00
    7   19    7      1.00      0.00
   -7   20    7     -0.14      0.00
   -6   20    7      1.53      0.00
    5   20    7      1.15      0.00
    6   20    7      0.89      0.00
   -6   21    7      0.30      0.00
   -5   21    7     -1.82      0.00
   -4   21    7      3.94      0.00
    4   21    7     -1.18      0.00
    5   21    7     -2.06      0.00
    6   21    7      0.26      0.00
   -5   22    7     -0.81      0.00
   -4   22    7      1.66      0.00
   -3   22    7      2.37      0.00
   -2   22    7      0.30      0.00
    2   22    7      1.03      0.00
    3   22    7     -0.97      0.00
    4   22    7      0.97      0.00
    5   22    7      0.55      0.00
   -4   23    7      3.03      0.00
   -3   23    7     -0.91      0.00
   -2   23    7      1.74      0.00
   -1   23    7      0.30      0.00
    0   23    7      1.00      0.00
    1   23    7     -0.22      0.00
    2   23    7     -1.52      0.00
    3   23    7      0.20      0.00
  -12    0    8     -0.02      0.00
    0    0    8     -7.66      0.00
   12    0    8     -0.54      0.00
  -12    1    8     -1.95      0.00
   12    1    8      0.12      0.00
  -12    2    8      4.36      0.00
   12    2    8     -1.28      0.00
  -12    3    8     -1.10      0.00
    5    3    8      0.41      0.00
   12    3    8      0.37      0.00
  -12    4    8      3.83      0.00
   -4    4    8    -11.32      0.00
   12    4    8     -0.41      0.00
  -12    5    8     -0.40      0.00
   12    5    8      0.56      0.00
  -12    6    8     -1.31      0.00
   11    6    8     -2.59      0.00
  -12    7    8      1.93      0.00
   11    7    8     -0.94      0.00
  -11    8    8      3.43      0.00
   11    8    8      1.71      0.00
  -11    9    8     -1.69      0.00
   11    9    8     -0.29      0.00
  -11   10    8      1.56      0.00
   11   10    8      2.00      0.00
  -11   11    8     -1.57      0.00
   10   11    8      0.15      0.00
   11   11    8      0.83      0.00
  -11   12    8      0.70      0.00
  -10   12    8      0.10      0.00
   10   12    8     -0.46      0.00
  -10   13    8     -3.19      0.00
   10   13    8     -1.27      0.00
  -10   14    8      1.01      0.00
    9   14    8      1.05      0.00
   10   14    8     -0.49      0.00
   -9   15    8      0.70      0.00
    9   15    8     -1.15      0.00
   -9   16    8     -0.36      0.00
    8   16    8     -0.31      0.00
    9   16    8      0.20      0.00
   -9   17    8     -0.01      0.00
   -8   17    8      0.74      0.00
    8   17    8     -0.82      0.00
   -8   18    8     -1.17      0.00
   -7   18    8      1.06      0.00
    7   18    8      1.67      0.00
    8   18    8     -0.25      0.00
   -7   19    8     -0.65      0.00
    6   19    8     -0.65      0.00
    7   19    8      1.16      0.00
   -7   20    8     -0.40      0.00
   -6   20    8     -0.94      0.00
    5   20    8      0.64      0.00
    6   20    8     -0.90      0.00
   -6   21    8      0.34      0.00
   -5   21    8      0.87      0.00
   -4   21    8     -0.07      0.00
    4   21    8     -1.13      0.00
    5   21    8     -0.48      0.00
   -5   22    8      0.35      0.00
   -4   22    8      1.48      0.00
   -3   22    8      1.53      0.00
   -2   22    8     -1.03      0.00
    1   22    8      1.48      0.00
    2   22    8     -0.40      0.00
    3   22    8      0.21      0.00
    4   22    8      1.00      0.00
   -3   23    8     -0.65      0.00
   -2   23    8      1.22      0.00
   -1   23    8      0.16      0.00
    0   23    8     -0.03      0.00
    1   23    8     -1.04      0.00
    2   23    8      1.87      0.00
    3   23    8      0.78      0.00
  -12    1    9     -1.76      0.00
   12    1    9      0.32      0.00
  -12    2    9      0.73      0.00
    4    2    9      4.72      0.00
    5    2    9     -1.18      0.00
   12    2    9     -0.24      0.00
  -12    3    9     -0.48      0.00
   12    3    9      2.28      0.00
  -12    4    9      0.07      0.00
   12    4    9     -0.61      0.00
  -12    5    9     -2.03      0.00
   11    5    9      2.20      0.00
   12    5    9      2.31      0.00
  -12    6    9     -0.42      0.00
   11    6    9     -2.90      0.00
  -12    7    9     -2.36      0.00
   11    7    9      3.40      0.00
  -11    8    9      2.23      0.00
   11    8    9     -2.28      0.00
  -11    9    9     -0.51      0.00
   11    9    9      0.44      0.00
  -11   10    9      1.56      0.00
   11   10    9     -1.30      0.00
  -11   11    9      0.38      0.00
   10   11    9      3.27      0.00
  -10   12    9     -1.55      0.00
   10   12    9     -1.22      0.00
  -10   13    9     -0.16      0.00
   10   13    9     -0.19      0.00
  -10   14    9     -0.34      0.00
   -9   14    9     -0.61      0.00
    9   14    9      1.88      0.00
   -9   15    9      4.15      0.00
    9   15    9      1.08      0.00
   -9   16    9      1.30      0.00
   -8   16    9      1.02      0.00
    8   16    9      0.73      0.00
    9   16    9     -0.39      0.00
   -8   17    9     -1.53      0.00
    8   17    9      0.24      0.00
   -8   18    9     -0.59      0.00
   -7   18    9      0.68      0.00
    7   18    9      2.38      0.00
    8   18    9     -0.39      0.00
   -7   19    9     -0.15      0.00
   -6   19    9      0.55      0.00
    6   19    9     -1.37      0.00
    7   19    9     -0.24      0.00
   -7   20    9      0.64      0.00
   -6   20    9     -1.51      0.00
   -5   20    9     -0.18      0.00
    5   20    9      1.09      0.00
    6   20    9      2.64      0.00
   -6   21    9      0.43      0.00
   -5   21    9      0.70      0.00
   -4   21    9     -1.23      0.00
    4   21    9      0.47      0.00
    5   21    9     -0.26      0.00
   -5   22    9     -0.28      0.00
   -4   22    9     -0.64      0.00
   -3   22    9     -0.68      0.00
   -2   22    9     -0.34      0.00
   -1   22    9     -0.45      0.00
    0   22    9      0.80      0.00
    1   22    9     -0.38      0.00
    2   22    9     -0.08      0.00
    3   22    9      1.44      0.00
    4   22    9      3.10      0.00
   -3   23    9      0.16      0.00
   -2   23    9     -1.42      0.00
   -1   23    9     -0.61      0.00
    0   23    9     -0.21      0.00
    1   23    9     -0.26      0.00
    2   23    9      1.03      0.00
    3   23    9     -1.32      0.00
  -12    0   10     -3.39      0.00
   12    0   10     -2.10      0.00
  -12    1   10      0.73      0.00
    5    1   10     -1.91      0.00
   12    1   10      1.02      0.00
  -12    2   10     -0.45      0.00
   12    2   10     -1.54      0.00
  -12    3   10      0.53      0.00
   12    3   10      1.17      0.00
  -12    4   10      0.59      0.00
   11    4   10     -0.37      0.00
   12    4   10      0.25      0.00
  -12    5   10     -2.20      0.00
   11    5   10      2.33      0.00
  -12    6   10      1.73      0.00
   11    6   10     -0.33      0.00
  -12    7   10     -0.99      0.00
  -11    7   10      0.46      0.00
   11    7   10      2.06      0.00
  -11    8   10     -2.36      0.00
   11    8   10     -0.64      0.00
  -11    9   10      0.41      0.00
   11    9   10      0.20      0.00
  -11   10   10     -0.33      0.00
   10   10   10     -1.26      0.00
   11   10   10      0.26      0.00
  -11   11   10      0.09      0.00
  -10   11   10      1.75      0.00
   10   11   10     -0.66      0.00
  -10   12   10      1.70      0.00
   10   12   10     -1.87      0.00
  -10   13   10      1.23      0.00
    9   13   10      2.92      0.00
   10   13   10     -0.20      0.00
  -10   14   10      0.71      0.00
   -9   14   10      1.52      0.00
    9   14   10      0.22      0.00
   -9   15   10     -0.35      0.00
    9   15   10      1.31      0.00
   -9   16   10      1.18      0.00
   -8   16   10      1.59      0.00
    8   16   10      1.51      0.00
   -8   17   10     -2.48      0.00
    7   17   10      0.42      0.00
    8   17   10      1.34      0.00
   -8   18   10     -1.32      0.00
   -7   18   10     -0.72      0.00
    7   18   10      1.25      0.00
   -7   19   10      1.79      0.00
   -6   19   10     -1.21      0.00
    6   19   10     -0.58      0.00
    7   19   10     -0.15      0.00
   -6   20   10     -1.10      0.00
   -5   20   10      2.74      0.00
    5   20   10     -1.54      0.00
    6   20   10      0.92      0.00
   -5   21   10     -1.50      0.00
   -4   21   10     -1.60      0.00
    3   21   10      1.90      0.00
    4   21   10      1.41      0.00
    5   21   10     -0.08      0.00
   -4   22   10      1.05      0.00
   -3   22   10      1.01      0.00
   -2   22   10      0.37      0.00
   -1   22   10      1.07      0.00
    0   22   10      0.85      0.00
    1   22   10     -0.60      0.00
    2   22   10     -0.18      0.00
    3   22   10     -2.66      0.00
    4   22   10     -1.66      0.00
   -3   23   10      0.17      0.00
   -2   23   10     -0.98      0.00
   -1   23   10     -0.02      0.00
    0   23   10     -0.03      0.00
    1   23   10      1.49      0.00
    2   23   10      0.95      0.00
  -12    1   11     -0.52      0.00
   11    1   11     -0.25      0.00
   12    1   11     -0.61      0.00
  -12    2   11      0.89      0.00
   11    2   11      0.82      0.00
   12    2   11     -0.73      0.00
  -12    3   11     -1.11      0.00
   11    3   11      0.15      0.00
  -12    4   11      2.34      0.00
   11    4   11      0.57      0.00
  -12    5   11     -1.00      0.00
   11    5   11     -0.46      0.00
  -12    6   11      2.11      0.00
  -11    6   11     -1.34      0.00
   11    6   11     -2.55      0.00
  -11    7   11      1.74      0.00
   11    7   11      0.84      0.00
  -11    8   11     -0.47      0.00
   11    8   11      0.00      0.00
  -11    9   11      2.65      0.00
   10    9   11     -0.75      0.00
   11    9   11     -0.34      0.00
  -11   10   11      1.91      0.00
   10   10   11      0.39      0.00
  -11   11   11      0.63      0.00
  -10   11   11     -0.94      0.00
   10   11   11     -1.05      0.00
  -10   12   11      0.04      0.00
   10   12   11     -0.14      0.00
  -10   13   11      0.12      0.00
    9   13   11     -0.35      0.00
   10   13   11     -2.17      0.00
  -10   14   11      0.47      0.00
   -9   14   11     -1.29      0.00
    9   14   11     -0.20      0.00
   -9   15   11      0.71      0.00
    8   15   11      0.93      0.00
    9   15   11     -1.19      0.00
   -9   16   11     -0.65      0.00
   -8   16   11     -0.29      0.00
    8   16   11      1.08      0.00
   -8   17   11     -1.30      0.00
    7   17   11     -0.89      0.00
    8   17   11     -0.45      0.00
   -8   18   11      1.43      0.00
   -7   18   11     -0.09      0.00
    6   18   11      0.81      0.00
    7   18   11      0.45      0.00
   -7   19   11      0.33      0.00
   -6   19   11     -0.71      0.00
    6   19   11     -2.48      0.00
    7   19   11     -1.39      0.00
   -6   20   11      1.66      0.00
   -5   20   11      1.17      0.00
    4   20   11      0.64      0.00
    5   20   11      1.23      0.00
    6   20   11     -0.18      0.00
   -5   21   11      1.27      0.00
   -4   21   11     -0.62      0.00
   -3   21   11      1.06      0.00
    3   21   11     -1.60      0.00
    4   21   11     -1.10      0.00
    5   21   11     -2.75      0.00
   -4   22   11     -1.54      0.00
   -3   22   11      0.81      0.00
   -2   22   11     -1.14      0.00
   -1   22   11      1.13      0.00
    0   22   11     -1.56      0.00
    1   22   11     -2.03      0.00
    2   22   11     -0.01      0.00
    3   22   11     -0.86      0.00
    4   22   11      1.17      0.00
   -2   23   11     -1.63      0.00
   -1   23   11      2.18      0.00
    0   23   11      0.26      0.00
    1   23   11      0.30      0.00
    2   23   11     -0.15      0.00
  -12    0   12     -0.25      0.00
  -12    1   12     -0.40      0.00
   11    1   12     -0.41      0.00
  -12    2   12      0.95      0.00
   11    2   12      1.75      0.00
  -12    3   12      1.02      0.00
   11    3   12     -3.89      0.00
  -12    4   12      0.94      0.00
   11    4   12      1.62      0.00
  -12    5   12      0.55      0.00
   11    5   12     -4.07      0.00
  -11    6   12     -1.62      0.00
   11    6   12      0.60      0.00
  -11    7   12      1.18      0.00
   11    7   12     -1.06      0.00
  -11    8   12     -0.35      0.00
   11    8   12      0.96      0.00
  -11    9   12      1.18      0.00
   10    9   12     -2.27      0.00
  -11   10   12      1.30      0.00
   10   10   12      1.78      0.00
  -10   11   12      0.56      0.00
   10   11   12      1.95      0.00
  -10   12   12     -1.11      0.00
    9   12   12     -1.45      0.00
   10   12   12      1.17      0.00
  -10   13   12     -0.74      0.00
    9   13   12     -1.02      0.00
   -9   14   12     -2.05      0.00
    9   14   12      0.40      0.00
   -9   15   12     -1.14      0.00
    8   15   12     -2.16      0.00
    9   15   12     -0.56      0.00
   -9   16   12     -1.31      0.00
   -8   16   12      1.52      0.00
    8   16   12      1.34      0.00
   -8   17   12      0.74      0.00
   -7   17   12     -1.68      0.00
    7   17   12     -0.87      0.00
    8   17   12     -0.79      0.00
   -7   18   12      0.54      0.00
    6   18   12      0.54      0.00
    7   18   12      1.30      0.00
   -7   19   12      0.11      0.00
   -6   19   12     -0.14      0.00
    5   19   12      2.59      0.00
    6   19   12      0.20      0.00
   -6   20   12      0.76      0.00
   -5   20   12     -0.36      0.00
    4   20   12     -0.68      0.00
    5   20   12     -1.63      0.00
    6   20   12      0.88      0.00
   -5   21   12      1.38      0.00
   -4   21   12      0.21      0.00
   -3   21   12      1.57      0.00
    2   21   12     -0.14      0.00
    3   21   12     -0.81      0.00
    4   21   12      4.26      0.00
    5   21   12      0.33      0.00
   -4   22   12     -0.97      0.00
   -3   22   12      0.04      0.00
   -2   22   12      0.77      0.00
   -1   22   12      0.28      0.00
    0   22   12     -1.19      0.00
    1   22   12      2.04      0.00
    2   22   12     -0.87      0.00
    3   22   12     -2.28      0.00
   -2   23   12     -0.07      0.00
   -1   23   12     -0.58      0.00
    0   23   12     -0.30      0.00
    1   23   12      0.02      0.00
   11    0   13      5.35      0.00
  -12    1   13     -1.02      0.00
   11    1   13     -1.85      0.00
  -12    2   13     -0.97      0.00
   11    2   13      1.84      0.00
  -12    3   13      1.61      0.00
   11    3   13     -1.68      0.00
  -12    4   13     -0.45      0.00
   11    4   13     -1.02      0.00
  -11    5   13     -1.63      0.00
   11    5   13     -0.38      0.00
  -11    6   13     -0.13      0.00
   11    6   13     -2.60      0.00
  -11    7   13      0.88      0.00
   11    7   13      0.94      0.00
  -11    8   13      0.46      0.00
   10    8   13     -1.82      0.00
   11    8   13     -1.75      0.00
  -11    9   13      0.83      0.00
   10    9   13     -1.14      0.00
  -11   10   13      0.23      0.00
  -10   10   13     -3.94      0.00
   10   10   13      0.02      0.00
  -10   11   13     -0.78      0.00
   10   11   13     -0.37      0.00
  -10   12   13     -1.01      0.00
    9   12   13      1.66      0.00
   10   12   13      0.49      0.00
  -10   13   13      1.27      0.00
   -9   13   13     -4.78      0.00
    9   13   13      0.45      0.00
   -9   14   13     -2.05      0.00
    8   14   13     -0.20      0.00
    9   14   13      0.59      0.00
   -9   15   13     -2.05      0.00
   -8   15   13      2.93      0.00
    8   15   13     -0.20      0.00
   -8   16   13      0.59      0.00
    7   16   13     -2.03      0.00
    8   16   13     -1.17      0.00
   -8   17   13     -0.44      0.00
   -7   17   13     -2.91      0.00
    7   17   13     -0.57      0.00
   -7   18   13      1.06      0.00
   -6   18   13     -0.65      0.00
    6   18   13     -1.04      0.00
    7   18   13     -0.38      0.00
   -7   19   13     -0.92      0.00
   -6   19   13      1.60      0.00
   -5   19   13     -1.50      0.00
    5   19   13     -0.76      0.00
    6   19   13     -1.36      0.00
   -6   20   13     -1.51      0.00
   -5   20   13     -2.50      0.00
   -4   20   13     -0.98      0.00
    4   20   13      1.95      0.00
    5   20   13      0.45      0.00
   -5   21   13      0.09      0.00
   -4   21   13      0.29      0.00
   -3   21   13      0.61      0.00
   -2   21   13      0.49      0.00
   -1   21   13      0.76      0.00
    1   21   13     -0.60      0.00
    2   21   13     -2.31      0.00
    3   21   13      0.47      0.00
    4   21   13      1.06      0.00
   -3   22   13      3.34      0.00
   -2   22   13      0.28      0.00
   -1   22   13     -1.63      0.00
    0   22   13      1.84      0.00
    1   22   13      1.29      0.00
    2   22   13      1.17      0.00
    3   22   13      0.89      0.00
   -1   23   13      0.21      0.00
    0   23   13     -0.48      0.00
  -12    0   14     -2.67      0.00
  -12    1   14     -0.44      0.00
   11    1   14     -2.38      0.00
  -12    2   14     -1.12      0.00
   11    2   14      2.64      0.00
  -12    3   14     -0.20      0.00
  -11    3   14      1.04      0.00
   11    3   14     -0.83      0.00
  -11    4   14      0.65      0.00
   11    4   14      5.78      0.00
  -11    5   14     -1.38      0.00
   11    5   14     -0.75      0.00
  -11    6   14     -1.52      0.00
   11    6   14      4.18      0.00
  -11    7   14     -0.99      0.00
   10    7   14      0.76      0.00
   11    7   14     -0.35      0.00
  -11    8   14     -3.20      0.00
   10    8   14     -1.32      0.00
  -11    9   14      0.03      0.00
   10    9   14     -1.64      0.00
  -10   10   14      0.64      0.00
   10   10   14     -1.00      0.00
  -10   11   14      0.62      0.00
    9   11   14     -1.64      0.00
   10   11   14     -0.18      0.00
  -10   12   14     -0.75      0.00
    9   12   14     -0.65      0.00
  -10   13   14     -2.10      0.00
   -9   13   14      0.49      0.00
    9   13   14     -0.24      0.00
   -9   14   14      0.65      0.00
    8   14   14      0.31      0.00
    9   14   14      0.20      0.00
   -9   15   14      1.99      0.00
   -8   15   14      2.84      0.00
    8   15   14      0.83      0.00
   -8   16   14      0.25      0.00
    7   16   14     -1.41      0.00
    8   16   14     -0.04      0.00
   -8   17   14      0.75      0.00
   -7   17   14     -2.09      0.00
    6   17   14      1.75      0.00
    7   17   14      1.02      0.00
   -7   18   14     -0.98      0.00
   -6   18   14     -1.60      0.00
    6   18   14     -3.39      0.00
    7   18   14      0.39      0.00
   -6   19   14      0.20      0.00
   -5   19   14      0.13      0.00
    5   19   14      1.85      0.00
    6   19   14      0.37      0.00
   -6   20   14     -0.24      0.00
   -5   20   14      0.32      0.00
   -4   20   14      1.18      0.00
    3   20   14     -0.69      0.00
    4   20   14     -0.51      0.00
    5   20   14     -0.06      0.00
   -4   21   14      0.74      0.00
   -3   21   14      0.14      0.00
   -2   21   14     -0.32      0.00
   -1   21   14     -0.05      0.00
    0   21   14     -0.92      0.00
    1   21   14     -0.05      0.00
    2   21   14      0.62      0.00
    3   21   14     -0.48      0.00
    4   21   14      0.60      0.00
   -3   22   14     -0.66      0.00
   -2   22   14     -1.71      0.00
   -1   22   14      0.48      0.00
    0   22   14      2.66      0.00
    1   22   14      0.34      0.00
    2   22   14      0.10      0.00
  -11    0   15      0.60      0.00
   11    0   15     -2.12      0.00
  -12    1   15      0.17      0.00
  -11    1   15      0.87      0.00
   11    1   15      0.65      0.00
  -11    2   15      1.26      0.00
   11    2   15     -2.23      0.00
  -11    3   15      1.47      0.00
   11    3   15      0.93      0.00
  -11    4   15     -0.38      0.00
   11    4   15     -0.18      0.00
  -11    5   15     -1.53      0.00
   11    5   15     -1.72      0.00
  -11    6   15     -0.85      0.00
   10    6   15      0.92      0.00
   11    6   15      1.19      0.00
  -11    7   15     -0.78      0.00
   10    7   15      2.57      0.00
  -11    8   15     -0.46      0.00
   10    8   15      1.86      0.00
  -11    9   15     -1.60      0.00
  -10    9   15      0.37      0.00
   10    9   15      0.17      0.00
  -10   10   15      2.67      0.00
   10   10   15      1.05      0.00
  -10   11   15     -0.48      0.00
    9   11   15      0.10      0.00
  -10   12   15      0.46      0.00
   -9   12   15      2.91      0.00
    9   12   15     -1.06      0.00
   -9   13   15      2.42      0.00
    8   13   15      0.16      0.00
    9   13   15      0.53      0.00
   -9   14   15      1.86      0.00
    8   14   15     -0.60      0.00
   -9   15   15      1.44      0.00
   -8   15   15     -1.31      0.00
    7   15   15      2.37      0.00
    8   15   15      0.09      0.00
   -8   16   15     -0.67      0.00
   -7   16   15     -1.85      0.00
    7   16   15      0.07      0.00
    8   16   15      0.14      0.00
   -8   17   15     -0.27      0.00
   -7   17   15      1.10      0.00
    6   17   15      1.35      0.00
    7   17   15      1.00      0.00
   -7   18   15     -1.61      0.00
   -6   18   15      1.16      0.00
    5   18   15      0.87      0.00
    6   18   15     -1.10      0.00
   -6   19   15      0.85      0.00
   -5   19   15     -0.94      0.00
    4   19   15     -1.86      0.00
    5   19   15      0.66      0.00
    6   19   15     -0.43      0.00
   -5   20   15     -1.84      0.00
   -4   20   15      1.39      0.00
   -3   20   15     -2.83      0.00
    2   20   15      0.60      0.00
    3   20   15      0.83      0.00
    4   20   15      2.00      0.00
    5   20   15      0.07      0.00
   -4   21   15      0.44      0.00
   -3   21   15      0.03      0.00
   -2   21   15      0.76      0.00
   -1   21   15     -1.12      0.00
    0   21   15      1.31      0.00
    1   21   15     -1.03      0.00
    2   21   15     -1.15      0.00
    3   21   15     -3.33      0.00
    4   21   15     -0.68      0.00
   -2   22   15     -0.62      0.00
   -1   22   15      1.07      0.00
    0   22   15     -0.93      0.00
    1   22   15      0.20      0.00
    2   22   15      1.96      0.00
  -11    1   16     -0.55      0.00
   11    1   16      2.88      0.00
  -11    2   16      2.34      0.00
   11    2   16     -1.66      0.00
  -11    3   16      1.45      0.00
   11    3   16      1.05      0.00
  -11    4   16      1.14      0.00
   10    4   16      1.33      0.00
   11    4   16     -1.45      0.00
  -11    5   16      2.55      0.00
   10    5   16     -2.46      0.00
  -11    6   16      0.55      0.00
   10    6   16      1.41      0.00
  -11    7   16      1.19      0.00
   10    7   16      1.38      0.00
  -11    8   16      0.31      0.00
  -10    8   16      1.09      0.00
   10    8   16     -1.71      0.00
  -10    9   16     -0.96      0.00
   10    9   16      1.20      0.00
  -10   10   16     -0.26      0.00
    9   10   16      0.18      0.00
   10   10   16     -1.47      0.00
  -10   11   16     -0.40      0.00
    9   11   16      3.03      0.00
  -10   12   16     -0.15      0.00
   -9   12   16     -1.43      0.00
    9   12   16     -0.16      0.00
   -9   13   16     -0.32      0.00
    8   13   16      0.25      0.00
    9   13   16      0.63      0.00
   -9   14   16     -0.60      0.00
   -8   14   16     -3.01      0.00
    8   14   16     -0.71      0.00
   -8   15   16      1.28      0.00
    7   15   16      0.00      0.00
    8   15   16     -0.32      0.00
   -8   16   16     -0.44      0.00
   -7   16   16      0.38      0.00
    7   16   16     -1.01      0.00
   -7   17   16     -0.06      0.00
   -6   17   16     -0.90      0.00
    4   17   16      0.92      0.00
    6   17   16      1.15      0.00
    7   17   16      1.65      0.00
   -7   18   16      0.63      0.00
   -6   18   16      2.44      0.00
   -5   18   16      1.11      0.00
    5   18   16     -1.04      0.00
    6   18   16     -1.89      0.00
   -6   19   16      0.43      0.00
   -5   19   16      0.25      0.00
   -4   19   16     -2.02      0.00
    4   19   16     -0.19      0.00
    5   19   16      0.52      0.00
   -5   20   16     -0.08      0.00
   -4   20   16     -1.76      0.00
   -3   20   16      0.57      0.00
   -2   20   16      0.07      0.00
    1   20   16     -1.43      0.00
    2   20   16      0.92      0.00
    3   20   16     -0.71      0.00
    4   20   16      0.31      0.00
   -4   21   16     -0.96      0.00
   -3   21   16      0.64      0.00
   -2   21   16     -0.86      0.00
   -1   21   16      2.42      0.00
    0   21   16     -0.05      0.00
    1   21   16     -0.52      0.00
    2   21   16      0.14      0.00
    3   21   16     -1.19      0.00
   -2   22   16      0.71      0.00
   -1   22   16      0.26      0.00
    0   22   16     -1.43      0.00
    1   22   16      1.07      0.00
  -11    0   17     -0.60      0.00
   11    0   17     -1.85      0.00
  -11    1   17     -1.22      0.00
   10    1   17      0.84      0.00
   11    1   17     -0.99      0.00
  -11    2   17      0.97      0.00
   10    2   17     -1.53      0.00
   11    2   17     -1.86      0.00
  -11    3   17     -0.50      0.00
   10    3   17      0.63      0.00
  -11    4   17      1.87      0.00
   10    4   17     -3.76      0.00
  -11    5   17     -2.60      0.00
   10    5   17     -0.71      0.00
  -11    6   17      2.47      0.00
   10    6   17     -3.06      0.00
  -11    7   17     -0.94      0.00
  -10    7   17      0.83      0.00
   10    7   17     -1.28      0.00
  -10    8   17     -0.28      0.00
   10    8   17     -1.10      0.00
  -10    9   17     -0.54      0.00
    9    9   17      2.09      0.00
   10    9   17     -1.79      0.00
  -10   10   17      0.41      0.00
    9   10   17      2.22      0.00
  -10   11   17      0.30      0.00
   -9   11   17      0.42      0.00
    9   11   17      1.01      0.00
   -9   12   17     -1.61      0.00
    8   12   17      2.01      0.00
    9   12   17      0.34      0.00
   -9   13   17     -2.76      0.00
    8   13   17      3.47      0.00
   -9   14   17     -0.80      0.00
   -8   14   17      0.39      0.00
    7   14   17      0.47      0.00
    8   14   17      1.44      0.00
   -8   15   17      2.20      0.00
    7   15   17      0.10      0.00
    8   15   17      0.68      0.00
   -8   16   17     -1.78      0.00
   -7   16   17      0.63      0.00
    6   16   17      2.52      0.00
    7   16   17     -0.31      0.00
   -7   17   17      1.60      0.00
   -6   17   17     -0.14      0.00
    5   17   17     -1.61      0.00
    6   17   17      0.36      0.00
   -6   18   17     -0.10      0.00
   -5   18   17      0.15      0.00
    4   18   17      1.82      0.00
    5   18   17      1.80      0.00
    6   18   17     -0.45      0.00
   -6   19   17     -0.39      0.00
   -5   19   17     -0.80      0.00
   -4   19   17      0.62      0.00
    3   19   17     -0.19      0.00
    4   19   17     -1.75      0.00
    5   19   17      0.79      0.00
   -5   20   17      1.30      0.00
   -4   20   17      1.22      0.00
   -3   20   17      2.02      0.00
   -2   20   17     -0.98      0.00
   -1   20   17     -1.00      0.00
    0   20   17     -3.58      0.00
    1   20   17      0.66      0.00
    2   20   17     -0.25      0.00
    3   20   17      1.07      0.00
    4   20   17      0.93      0.00
   -3   21   17      1.16      0.00
   -2   21   17     -0.10      0.00
   -1   21   17      1.42      0.00
    0   21   17     -1.45      0.00
    1   21   17      0.84      0.00
    2   21   17      1.17      0.00
   10    0   18     -0.58      0.00
  -11    1   18      2.24      0.00
   10    1   18      0.96      0.00
  -11    2   18      1.25      0.00
   10    2   18      0.59      0.00
  -11    3   18      2.82      0.00
   10    3   18      2.38      0.00
  -11    4   18      0.42      0.00
   10    4   18      1.53      0.00
  -11    5   18      0.67      0.00
   10    5   18      0.74      0.00
  -11    6   18      0.08      0.00
  -10    6   18     -2.84      0.00
   10    6   18      2.06      0.00
  -10    7   18      0.66      0.00
   10    7   18      0.01      0.00
  -10    8   18     -0.30      0.00
    9    8   18     -0.30      0.00
   10    8   18     -0.61      0.00
  -10    9   18     -0.03      0.00
    9    9   18      0.11      0.00
  -10   10   18      1.79      0.00
   -9   10   18      0.12      0.00
    9   10   18     -0.95      0.00
  -10   11   18     -0.04      0.00
   -9   11   18      0.43      0.00
    8   11   18      0.19      0.00
    9   11   18     -1.60      0.00
   -9   12   18     -1.10      0.00
    8   12   18      0.56      0.00
    9   12   18      0.56      0.00
   -9   13   18      0.74      0.00
   -8   13   18     -0.16      0.00
    8   13   18      0.04      0.00
   -8   14   18      0.53      0.00
    7   14   18     -0.67      0.00
    8   14   18      0.30      0.00
   -8   15   18     -1.09      0.00
   -7   15   18     -0.07      0.00
    7   15   18     -0.33      0.00
   -7   16   18      0.33      0.00
    6   16   18      2.90      0.00
    7   16   18     -0.79      0.00
   -7   17   18     -1.60      0.00
   -6   17   18     -3.51      0.00
    5   17   18     -1.61      0.00
    6   17   18     -0.32      0.00
   -6   18   18     -0.53      0.00
   -5   18   18      2.03      0.00
    4   18   18     -2.16      0.00
    5   18   18     -0.33      0.00
   -5   19   18      0.66      0.00
   -4   19   18     -2.91      0.00
   -3   19   18     -0.07      0.00
    2   19   18      1.91      0.00
    3   19   18      1.72      0.00
    4   19   18     -1.24      0.00
   -4   20   18     -0.64      0.00
   -3   20   18      0.95      0.00
   -2   20   18     -1.70      0.00
   -1   20   18      1.22      0.00
    0   20   18     -1.22      0.00
    1   20   18     -1.44      0.00
    2   20   18     -0.02      0.00
    3   20   18     -1.83      0.00
   -2   21   18     -0.76      0.00
   -1   21   18      0.33      0.00
    0   21   18     -1.64      0.00
    1   21   18      3.04      0.00
    2   21   18      0.36      0.00
  -11    0   19      0.10      0.00
  -11    1   19     -0.37      0.00
   10    1   19      0.87      0.00
  -11    2   19      1.95      0.00
   10    2   19      2.36      0.00
  -11    3   19      0.39      0.00
   10    3   19      0.61      0.00
  -11    4   19      1.54      0.00
   10    4   19      1.09      0.00
  -11    5   19      0.26      0.00
  -10    5   19     -1.54      0.00
   10    5   19     -0.66      0.00
  -10    6   19     -0.98      0.00
    9    6   19      1.29      0.00
   10    6   19     -0.55      0.00
  -10    7   19     -0.63      0.00
    9    7   19     -1.41      0.00
   10    7   19      0.94      0.00
  -10    8   19     -2.06      0.00
    9    8   19     -0.92      0.00
  -10    9   19     -1.25      0.00
    9    9   19     -0.50      0.00
  -10   10   19     -1.25      0.00
   -9   10   19     -0.43      0.00
    9   10   19      0.48      0.00
   -9   11   19      1.32      0.00
    8   11   19     -2.14      0.00
    9   11   19     -0.22      0.00
   -9   12   19     -0.60      0.00
   -8   12   19      0.38      0.00
    8   12   19     -0.39      0.00
   -9   13   19     -0.27      0.00
   -8   13   19     -1.31      0.00
    7   13   19     -1.37      0.00
    8   13   19     -0.57      0.00
   -8   14   19      1.86      0.00
   -7   14   19     -2.81      0.00
    7   14   19     -0.22      0.00
   -8   15   19     -0.03      0.00
   -7   15   19      0.97      0.00
    6   15   19     -1.08      0.00
    7   15   19     -1.64      0.00
   -7   16   19     -1.99      0.00
   -6   16   19     -1.40      0.00
    5   16   19      2.81      0.00
    6   16   19      1.97      0.00
   -6   17   19     -0.48      0.00
   -5   17   19     -0.90      0.00
    4   17   19     -0.69      0.00
    5   17   19     -1.01      0.00
    6   17   19     -1.34      0.00
   -6   18   19      0.67      0.00
   -5   18   19     -0.23      0.00
   -4   18   19     -1.51      0.00
    3   18   19      0.77      0.00
    4   18   19     -1.09      0.00
    5   18   19      1.98      0.00
   -5   19   19     -1.34      0.00
   -4   19   19      0.69      0.00
   -3   19   19      1.26      0.00
   -2   19   19     -0.92      0.00
   -1   19   19      0.88      0.00
    0   19   19      1.29      0.00
    1   19   19      1.88      0.00
    2   19   19     -0.79      0.00
    3   19   19      0.93      0.00
    4   19   19      0.23      0.00
   -4   20   19      0.78      0.00
   -3   20   19     -1.77      0.00
   -2   20   19     -1.06      0.00
   -1   20   19     -0.01      0.00
    0   20   19      0.35      0.00
    1   20   19      0.08      0.00
    2   20   19     -1.45      0.00
    3   20   19      0.37      0.00
   -1   21   19      0.86      0.00
    0   21   19      1.89      0.00
    1   21   19      0.87      0.00
   10    0   20      0.50      0.00
  -11    1   20      1.08      0.00
  -10    1   20      0.17      0.00
   10    1   20     -0.78      0.00
  -11    2   20      0.15      0.00
  -10    2   20     -3.09      0.00
   10    2   20      1.66      0.00
  -11    3   20      1.47      0.00
  -10    3   20      0.11      0.00
   10    3   20     -1.57      0.00
  -11    4   20     -0.22      0.00
  -10    4   20     -1.82      0.00
   10    4   20      1.33      0.00
  -10    5   20     -2.40      0.00
    9    5   20     -0.94      0.00
   10    5   20     -0.85      0.00
  -10    6   20     -0.83      0.00
    9    6   20      0.26      0.00
  -10    7   20     -0.23      0.00
    9    7   20     -0.21      0.00
  -10    8   20     -1.05      0.00
    9    8   20     -0.30      0.00
  -10    9   20     -0.53      0.00
   -9    9   20     -0.37      0.00
    9    9   20     -0.88      0.00
   -9   10   20      0.54      0.00
    8   10   20     -1.69      0.00
    9   10   20      1.21      0.00
   -9   11   20     -0.86      0.00
    8   11   20     -4.23      0.00
   -9   12   20     -0.52      0.00
   -8   12   20      3.92      0.00
    7   12   20     -0.10      0.00
    8   12   20      0.22      0.00
   -8   13   20     -1.91      0.00
    7   13   20     -4.92      0.00
    8   13   20     -0.58      0.00
   -8   14   20      2.71      0.00
   -7   14   20     -0.01      0.00
    6   14   20      0.38      0.00
    7   14   20     -0.18      0.00
   -7   15   20      2.08      0.00
   -6   15   20      0.61      0.00
    6   15   20     -1.19      0.00
    7   15   20     -2.86      0.00
   -7   16   20     -0.10      0.00
   -6   16   20      1.30      0.00
    5   16   20      1.06      0.00
    6   16   20      1.01      0.00
   -6   17   20      0.75      0.00
   -5   17   20      0.80      0.00
    4   17   20      1.25      0.00
    5   17   20     -1.53      0.00
   -5   18   20      0.07      0.00
   -4   18   20     -1.17      0.00
   -3   18   20     -1.19      0.00
    2   18   20     -1.24      0.00
    3   18   20      0.49      0.00
    4   18   20     -1.19      0.00
    5   18   20      1.27      0.00
   -4   19   20      1.07      0.00
   -3   19   20     -1.25      0.00
   -2   19   20     -0.67      0.00
   -1   19   20     -1.04      0.00
    0   19   20     -0.90      0.00
    1   19   20     -1.95      0.00
    2   19   20      1.06      0.00
    3   19   20      1.38      0.00
    4   19   20     -0.89      0.00
   -3   20   20      1.54      0.00
   -2   20   20      1.12      0.00
   -1   20   20      3.77      0.00
    0   20   20      0.27      0.00
    1   20   20     -0.07      0.00
    2   20   20      0.21      0.00
  -11    0   21     -1.39      0.00
    9    0   21      3.55      0.00
  -10    1   21      1.58      0.00
    9    1   21     -1.24      0.00
   10    1   21     -1.20      0.00
  -10    2   21     -0.47      0.00
    9    2   21      0.65      0.00
   10    2   21     -1.71      0.00
  -10    3   21      0.60      0.00
    9    3   21     -1.86      0.00
   10    3   21      1.08      0.00
  -10    4   21     -2.43      0.00
    9    4   21     -2.20      0.00
   10    4   21     -0.35      0.00
  -10    5   21      1.02      0.00
    9    5   21     -0.99      0.00
  -10    6   21     -1.84      0.00
    9    6   21     -0.15      0.00
  -10    7   21      1.53      0.00
    9    7   21     -1.77      0.00
  -10    8   21     -0.33      0.00
   -9    8   21      4.53      0.00
    8    8   21     -0.10      0.00
    9    8   21      1.46      0.00
   -9    9   21     -1.20      0.00
    8    9   21     -3.55      0.00
    9    9   21      0.47      0.00
   -9   10   21      3.41      0.00
    8   10   21      0.05      0.00
   -9   11   21     -0.53      0.00
   -8   11   21     -0.01      0.00
    8   11   21     -0.93      0.00
   -8   12   21     -1.02      0.00
    7   12   21      0.92      0.00
    8   12   21      0.29      0.00
   -8   13   21     -0.37      0.00
   -7   13   21      1.15      0.00
    7   13   21     -0.14      0.00
   -8   14   21     -0.97      0.00
   -7   14   21     -0.18      0.00
    6   14   21     -1.19      0.00
    7   14   21      0.68      0.00
   -7   15   21      2.74      0.00
   -6   15   21      0.13      0.00
    5   15   21      0.01      0.00
    6   15   21      0.69      0.00
   -6   16   21     -0.59      0.00
   -5   16   21     -0.98      0.00
    4   16   21      0.79      0.00
    5   16   21     -2.35      0.00
    6   16   21     -0.02      0.00
   -6   17   21     -0.83      0.00
   -5   17   21      0.99      0.00
   -4   17   21     -0.44      0.00
    3   17   21      0.17      0.00
    4   17   21      0.83      0.00
    5   17   21     -0.16      0.00
   -5   18   21     -1.16      0.00
   -4   18   21      0.75      0.00
   -3   18   21      0.30      0.00
   -2   18   21     -0.11      0.00
   -1   18   21     -1.09      0.00
    0   18   21      0.89      0.00
    1   18   21     -0.78      0.00
    2   18   21      0.46      0.00
    3   18   21     -0.12      0.00
    4   18   21      0.69      0.00
   -4   19   21      0.93      0.00
   -3   19   21     -2.05      0.00
   -2   19   21      1.30      0.00
   -1   19   21     -1.88      0.00
    0   19   21     -0.26      0.00
    1   19   21      0.20      0.00
    2   19   21     -1.23      0.00
    3   19   21      1.51      0.00
   -2   20   21      0.74      0.00
   -1   20   21     -0.67      0.00
    0   20   21      0.71      0.00
    1   20   21     -1.57      0.00
  -10    0   22     -1.73      0.00
  -10    1   22     -0.44      0.00
    9    1   22      2.75      0.00
  -10    2   22     -0.74      0.00
    9    2   22     -2.08      0.00
  -10    3   22      1.00      0.00
    9    3   22      0.19      0.00
  -10    4   22     -0.13      0.00
    9    4   22     -0.64      0.00
  -10    5   22     -0.42      0.00
    9    5   22     -0.99      0.00
  -10    6   22     -0.15      0.00
   -9    6   22      0.29      0.00
    9    6   22      1.34      0.00
  -10    7   22      1.15      0.00
   -9    7   22     -1.66      0.00
    8    7   22      0.75      0.00
    9    7   22     -0.61      0.00
   -9    8   22      0.20      0.00
    8    8   22      2.80      0.00
    9    8   22      0.16      0.00
   -9    9   22     -2.49      0.00
    8    9   22      0.13      0.00
   -9   10   22      0.18      0.00
   -8   10   22     -2.63      0.00
    8   10   22      0.37      0.00
   -9   11   22     -0.47      0.00
   -8   11   22      4.48      0.00
    7   11   22      1.73      0.00
    8   11   22     -0.76      0.00
   -8   12   22     -2.21      0.00
    7   12   22      0.71      0.00
   -8   13   22      1.01      0.00
   -7   13   22     -3.73      0.00
    6   13   22      0.44      0.00
    7   13   22      0.89      0.00
   -7   14   22      1.88      0.00
   -6   14   22     -2.85      0.00
    6   14   22     -0.25      0.00
   -7   15   22     -2.53      0.00
   -6   15   22     -1.40      0.00
    5   15   22      2.70      0.00
    6   15   22      0.55      0.00
   -6   16   22     -1.49      0.00
   -5   16   22      0.50      0.00
    4   16   22     -0.46      0.00
    5   16   22     -0.80      0.00
   -5   17   22     -0.92      0.00
   -4   17   22     -2.12      0.00
   -3   17   22     -0.29      0.00
    2   17   22     -1.43      0.00
    3   17   22      0.28      0.00
    4   17   22      0.60      0.00
   -4   18   22      0.97      0.00
   -3   18   22     -1.89      0.00
   -2   18   22      0.42      0.00
   -1   18   22     -0.77      0.00
    0   18   22      1.32      0.00
    1   18   22      1.24      0.00
    2   18   22      1.30      0.00
    3   18   22      1.01      0.00
   -3   19   22      0.35      0.00
   -2   19   22     -1.41      0.00
   -1   19   22     -0.40      0.00
    0   19   22      0.19      0.00
    1   19   22     -0.97      0.00
    2   19   22      0.45      0.00
    9    0   23      1.18      0.00
  -10    1   23     -3.02      0.00
    9    1   23     -0.09      0.00
  -10    2   23      1.76      0.00
    9    2   23     -1.45      0.00
  -10    3   23     -2.22      0.00
    9    3   23      0.24      0.00
  -10    4   23      1.41      0.00
   -9    4   23     -1.53      0.00
    9    4   23     -2.19      0.00
  -10    5   23     -3.40      0.00
   -9    5   23      1.61      0.00
    8    5   23      1.30      0.00
    9    5   23     -0.57      0.00
  -10    6   23      1.32      0.00
   -9    6   23     -1.87      0.00
    8    6   23     -3.15      0.00
    9    6   23     -0.74      0.00
   -9    7   23      2.70      0.00
    8    7   23      1.43      0.00
   -9    8   23     -1.62      0.00
    8    8   23     -1.25      0.00
   -9    9   23      0.41      0.00
   -8    9   23     -0.79      0.00
    8    9   23      1.10      0.00
   -9   10   23      0.32      0.00
   -8   10   23     -1.35      0.00
    7   10   23     -0.18      0.00
    8   10   23     -0.42      0.00
   -8   11   23     -0.48      0.00
    7   11   23      2.46      0.00
   -8   12   23     -0.24      0.00
   -7   12   23      3.20      0.00
    6   12   23      0.25      0.00
    7   12   23      0.39      0.00
   -7   13   23     -4.15      0.00
    6   13   23      2.22      0.00
    7   13   23      1.30      0.00
   -7   14   23      0.96      0.00
   -6   14   23     -0.53      0.00
    5   14   23     -2.45      0.00
    6   14   23      1.04      0.00
   -6   15   23      2.34      0.00
   -5   15   23     -0.91      0.00
    4   15   23      0.34      0.00
    5   15   23      0.14      0.00
   -6   16   23     -2.12      0.00
   -5   16   23      1.94      0.00
   -4   16   23     -1.46      0.00
    3   16   23      0.39      0.00
    4   16   23     -0.27      0.00
    5   16   23     -1.58      0.00
   -5   17   23     -0.52      0.00
   -4   17   23      1.35      0.00
   -3   17   23      4.28      0.00
   -2   17   23      1.68      0.00
   -1   17   23      1.47      0.00
    0   17   23      0.68      0.00
    1   17   23     -1.91      0.00
    2   17   23      0.44      0.00
    3   17   23     -1.46      0.00
    4   17   23      1.76      0.00
   -4   18   23     -1.41      0.00
   -3   18   23     -1.75      0.00
   -2   18   23     -0.11      0.00
   -1   18   23      0.25      0.00
    0   18   23     -0.96      0.00
    1   18   23      0.83      0.00
    2   18   23     -1.33      0.00
    3   18   23     -0.78      0.00
   -2   19   23      0.43      0.00
   -1   19   23      0.34      0.00
    0   19   23     -0.46      0.00
    1   19   23     -0.42      0.00
  -10    0   24     -0.35      0.00
  -10    1   24     -0.63      0.00
   -9    1   24      0.02      0.00
    8    1   24     -1.05      0.00
    9    1   24     -0.68      0.00
  -10    2   24      0.61      0.00
   -9    2   24     -0.70      0.00
    8    2   24      0.45      0.00
    9    2   24      1.30      0.00
  -10    3   24     -0.61      0.00
   -9    3   24      1.97      0.00
    8    3   24      0.49      0.00
    9    3   24      0.44      0.00
  -10    4   24      0.87      0.00
   -9    4   24     -2.54      0.00
    8    4   24      0.99      0.00
    9    4   24      0.33      0.00
   -9    5   24      4.23      0.00
    8    5   24      1.90      0.00
    9    5   24     -0.79      0.00
   -9    6   24     -4.31      0.00
    8    6   24     -1.47      0.00
   -9    7   24      4.83      0.00
    8    7   24      1.96      0.00
   -9    8   24     -1.07      0.00
   -8    8   24      4.46      0.00
    7    8   24     -1.99      0.00
    8    8   24     -1.42      0.00
   -9    9   24      1.00      0.00
   -8    9   24     -2.00      0.00
    7    9   24     -1.43      0.00
    8    9   24      1.87      0.00
   -8   10   24      2.44      0.00
    7   10   24     -1.26      0.00
   -8   11   24      1.48      0.00
   -7   11   24      0.73      0.00
    6   11   24      1.63      0.00
    7   11   24      0.49      0.00
   -8   12   24      0.83      0.00
   -7   12   24     -1.68      0.00
    6   12   24     -1.46      0.00
    7   12   24     -1.65      0.00
   -7   13   24     -0.05      0.00
   -6   13   24      3.15      0.00
    5   13   24      0.29      0.00
    6   13   24      1.23      0.00
   -7   14   24     -0.10      0.00
   -6   14   24     -0.20      0.00
   -5   14   24      0.75      0.00
    4   14   24     -1.57      0.00
    5   14   24     -0.24      0.00
    6   14   24     -1.52      0.00
   -6   15   24      1.99      0.00
   -5   15   24      0.82      0.00
   -4   15   24     -1.19      0.00
    3   15   24     -1.76      0.00
    4   15   24     -0.42      0.00
    5   15   24      0.09      0.00
   -5   16   24      1.31      0.00
   -4   16   24     -2.20      0.00
   -3   16   24      3.66      0.00
   -2   16   24      0.97      0.00
    1   16   24      0.14      0.00
    2   16   24      0.82      0.00
    3   16   24     -0.77      0.00
    4   16   24      0.48      0.00
   -4   17   24      0.07      0.00
   -3   17   24     -1.86      0.00
   -2   17   24     -0.58      0.00
   -1   17   24     -0.47      0.00
    0   17   24     -0.42      0.00
    1   17   24      1.83      0.00
    2   17   24     -1.74      0.00
    3   17   24     -0.40      0.00
   -3   18   24      2.36      0.00
   -2   18   24      1.38      0.00
   -1   18   24     -0.45      0.00
    0   18   24     -0.44      0.00
    1   18   24      0.37      0.00
    2   18   24     -0.31      0.00
   -9    0   25      4.66      0.00
    9    0   25      0.44      0.00
   -9    1   25      0.04      0.00
    8    1   25     -3.23      0.00
    9    1   25      1.13      0.00
   -9    2   25      2.51      0.00
    8    2   25      0.43      0.00
   -9    3   25     -0.57      0.00
    8    3   25     -0.43      0.00
   -9    4   25      0.00      0.00
    8    4   25      1.75      0.00
   -9    5   25     -2.03      0.00
    8    5   25     -0.04      0.00
   -9    6   25      0.42      0.00
   -8    6   25      1.99      0.00
    8    6   25      2.35      0.00
   -9    7   25      0.44      0.00
   -8    7   25     -1.71      0.00
    7    7   25     -0.30      0.00
    8    7   25      1.57      0.00
   -9    8   25      1.33      0.00
   -8    8   25      0.80      0.00
    7    8   25     -0.78      0.00
    8    8   25      1.80      0.00
   -8    9   25     -1.05      0.00
    7    9   25     -0.42      0.00
   -8   10   25     -0.12      0.00
   -7   10   25     -1.49      0.00
    6   10   25      1.38      0.00
    7   10   25      0.08      0.00
   -8   11   25      1.59      0.00
   -7   11   25      2.28      0.00
    6   11   25     -1.77      0.00
    7   11   25      0.16      0.00
   -7   12   25     -0.16      0.00
   -6   12   25      0.87      0.00
    5   12   25      2.33      0.00
    6   12   25      0.62      0.00
   -7   13   25      0.57      0.00
   -6   13   25     -0.13      0.00
   -5   13   25     -0.71      0.00
    4   13   25     -0.68      0.00
    5   13   25     -0.58      0.00
    6   13   25     -0.44      0.00
   -6   14   25      0.89      0.00
   -5   14   25     -3.52      0.00
    4   14   25      1.54      0.00
    5   14   25      1.24      0.00
   -5   15   25     -0.33      0.00
   -4   15   25      0.45      0.00
   -3   15   25     -1.33      0.00
    2   15   25     -0.64      0.00
    3   15   25      1.39      0.00
    4   15   25     -1.26      0.00
   -5   16   25     -1.21      0.00
   -4   16   25      1.71      0.00
   -3   16   25      2.15      0.00
   -2   16   25     -1.09      0.00
   -1   16   25     -2.53      0.00
    0   16   25     -1.28      0.00
    1   16   25     -0.55      0.00
    2   16   25     -0.50      0.00
    3   16   25      1.43      0.00
    4   16   25     -0.45      0.00
   -3   17   25      0.19      0.00
   -2   17   25     -0.12      0.00
   -1   17   25      0.61      0.00
    0   17   25      1.63      0.00
    1   17   25      1.02      0.00
    2   17   25      0.53      0.00
   -2   18   25     -2.98      0.00
   -1   18   25     -1.24      0.00
    0   18   25     -1.22      0.00
    1   18   25      1.88      0.00
    8    0   26     -2.03      0.00
   -9    1   26      2.79      0.00
    8    1   26     -1.85      0.00
   -9    2   26      1.27      0.00
    8    2   26      0.22      0.00
   -9    3   26     -0.19      0.00
    8    3   26     -1.07      0.00
   -9    4   26      2.13      0.00
   -8    4   26      1.31      0.00
    7    4   26     -1.03      0.00
    8    4   26      1.29      0.00
   -9    5   26     -1.76      0.00
   -8    5   26      0.92      0.00
    7    5   26     -0.98      0.00
    8    5   26      0.14      0.00
   -9    6   26      2.40      0.00
   -8    6   26     -0.04      0.00
    7    6   26     -0.13      0.00
    8    6   26     -0.02      0.00
   -8    7   26     -0.64      0.00
    7    7   26      2.27      0.00
   -8    8   26      0.27      0.00
    7    8   26     -1.92      0.00
   -8    9   26     -1.79      0.00
   -7    9   26     -0.67      0.00
    6    9   26      0.64      0.00
    7    9   26      1.91      0.00
   -8   10   26      0.36      0.00
   -7   10   26     -1.55      0.00
    6   10   26      0.56      0.00
    7   10   26     -0.75      0.00
   -7   11   26     -1.16      0.00
   -6   11   26     -1.40      0.00
    5   11   26      0.50      0.00
    6   11   26      0.00      0.00
   -7   12   26     -1.20      0.00
   -6   12   26      1.60      0.00
    5   12   26      0.04      0.00
    6   12   26      0.37      0.00
   -6   13   26     -1.88      0.00
   -5   13   26      0.75      0.00
    4   13   26      0.89      0.00
    5   13   26     -0.72      0.00
   -6   14   26     -0.35      0.00
   -5   14   26     -0.43      0.00
   -4   14   26      2.23      0.00
    3   14   26      0.01      0.00
    4   14   26      1.85      0.00
    5   14   26     -0.16      0.00
   -5   15   26      1.46      0.00
   -4   15   26     -0.63      0.00
   -3   15   26     -1.61      0.00
   -2   15   26     -0.28      0.00
   -1   15   26      0.34      0.00
    0   15   26      0.84      0.00
    1   15   26     -1.70      0.00
    2   15   26      1.75      0.00
    3   15   26     -0.47      0.00
    4   15   26      0.26      0.00
   -4   16   26      2.93      0.00
   -3   16   26     -1.11      0.00
   -2   16   26     -0.03      0.00
   -1   16   26      0.43      0.00
    0   16   26      1.19      0.00
    1   16   26     -0.84      0.00
    2   16   26     -1.27      0.00
    3   16   26     -0.02      0.00
   -2   17   26      2.17      0.00
   -1   17   26      0.37      0.00
    0   17   26      0.54      0.00
    1   17   26     -0.32      0.00
   -9    0   27     -2.12      0.00
    7    0   27      4.50      0.00
   -9    1   27     -1.84      0.00
   -8    1   27     -4.14      0.00
    7    1   27     -0.46      0.00
    8    1   27     -1.51      0.00
   -9    2   27     -0.45      0.00
   -8    2   27      1.87      0.00
    7    2   27      3.82      0.00
    8    2   27      0.12      0.00
   -9    3   27     -1.89      0.00
   -8    3   27     -0.43      0.00
    7    3   27     -2.39      0.00
    8    3   27     -0.17      0.00
   -9    4   27      2.03      0.00
   -8    4   27      0.30      0.00
    7    4   27      1.44      0.00
    8    4   27     -0.86      0.00
   -8    5   27      1.66      0.00
    7    5   27     -3.43      0.00
   -8    6   27     -2.36      0.00
    7    6   27      0.29      0.00
   -8    7   27      1.68      0.00
   -7    7   27      1.67      0.00
    6    7   27      0.36      0.00
    7    7   27     -1.04      0.00
   -8    8   27     -1.38      0.00
   -7    8   27      0.25      0.00
    6    8   27     -1.94      0.00
    7    8   27     -0.40      0.00
   -8    9   27     -1.20      0.00
   -7    9   27      0.00      0.00
    6    9   27      0.33      0.00
   -7   10   27      0.33      0.00
   -6   10   27      0.65      0.00
    5   10   27      1.05      0.00
    6   10   27     -0.49      0.00
   -7   11   27      0.84      0.00
   -6   11   27     -1.04      0.00
    5   11   27     -1.36      0.00
    6   11   27      0.37      0.00
   -6   12   27     -1.30      0.00
   -5   12   27      0.42      0.00
    4   12   27      0.16      0.00
    5   12   27      0.10      0.00
   -6   13   27     -0.33      0.00
   -5   13   27      1.74      0.00
   -4   13   27     -2.25      0.00
    3   13   27      1.12      0.00
    4   13   27     -0.74      0.00
    5   13   27     -0.91      0.00
   -5   14   27      0.01      0.00
   -4   14   27      1.08      0.00
   -3   14   27      1.47      0.00
   -2   14   27     -1.07      0.00
   -1   14   27     -0.97      0.00
    0   14   27     -0.40      0.00
    1   14   27     -1.32      0.00
    2   14   27      1.19      0.00
    3   14   27      1.26      0.00
    4   14   27     -0.93      0.00
   -4   15   27     -0.34      0.00
   -3   15   27     -0.90      0.00
   -2   15   27      2.24      0.00
   -1   15   27      1.14      0.00
    0   15   27     -1.59      0.00
    1   15   27      2.37      0.00
    2   15   27      0.67      0.00
    3   15   27      1.60      0.00
   -3   16   27     -0.22      0.00
   -2   16   27     -0.01      0.00
   -1   16   27     -1.23      0.00
    0   16   27      0.89      0.00
    1   16   27     -2.29      0.00
    2   16   27      1.28      0.00
   -8    0   28      0.48      0.00
   -8    1   28      0.86      0.00
    7    1   28      1.57      0.00
   -8    2   28     -2.83      0.00
    7    2   28      0.73      0.00
   -8    3   28      0.68      0.00
    7    3   28      0.40      0.00
   -8    4   28     -4.56      0.00
    6    4   28      1.26      0.00
    7    4   28      1.26      0.00
   -8    5   28     -0.05      0.00
   -7    5   28     -0.16      0.00
    6    5   28     -0.71      0.00
    7    5   28     -2.35      0.00
   -8    6   28     -2.19      0.00
   -7    6   28      1.46      0.00
    6    6   28      0.89      0.00
    7    6   28      1.91      0.00
   -8    7   28      0.93      0.00
   -7    7   28     -2.34      0.00
    6    7   28     -1.07      0.00
    7    7   28     -2.33      0.00
   -7    8   28      0.30      0.00
   -6    8   28      0.01      0.00
    5    8   28     -1.81      0.00
    6    8   28     -0.57      0.00
   -7    9   28     -1.70      0.00
   -6    9   28      0.17      0.00
    5    9   28      0.83      0.00
    6    9   28      0.30      0.00
   -7   10   28     -1.12      0.00
   -6   10   28     -0.38      0.00
   -5   10   28      1.30      0.00
    4   10   28     -2.67      0.00
    5   10   28     -0.88      0.00
    6   10   28     -1.45      0.00
   -6   11   28      1.50      0.00
   -5   11   28     -0.61      0.00
    4   11   28     -0.54      0.00
    5   11   28      2.06      0.00
   -6   12   28      1.65      0.00
   -5   12   28      0.57      0.00
   -4   12   28      1.31      0.00
    2   12   28     -0.27      0.00
    3   12   28     -3.76      0.00
    4   12   28     -1.95      0.00
    5   12   28     -0.89      0.00
   -5   13   28     -0.47      0.00
   -4   13   28     -0.24      0.00
   -3   13   28      0.35      0.00
   -2   13   28      0.40      0.00
    1   13   28      2.45      0.00
    2   13   28     -1.66      0.00
    3   13   28     -0.27      0.00
    4   13   28      0.41      0.00
   -4   14   28     -1.50      0.00
   -3   14   28     -2.65      0.00
   -2   14   28     -2.65      0.00
   -1   14   28     -0.92      0.00
    0   14   28      0.73      0.00
    1   14   28      1.35      0.00
    2   14   28     -0.95      0.00
    3   14   28     -1.99      0.00
   -3   15   28      0.30      0.00
   -2   15   28     -1.01      0.00
   -1   15   28     -0.08      0.00
    0   15   28     -0.66      0.00
    1   15   28      0.48      0.00
    2   15   28     -0.22      0.00
   -1   16   28      1.16      0.00
    0   16   28      0.48      0.00
   -7    0   29      1.11      0.00
    7    0   29     -2.04      0.00
   -8    1   29      3.12      0.00
   -7    1   29     -0.60      0.00
    6    1   29      0.37      0.00
    7    1   29      2.44      0.00
   -8    2   29     -0.02      0.00
   -7    2   29      2.12      0.00
    6    2   29     -2.34      0.00
    7    2   29     -0.38      0.00
   -8    3   29      1.58      0.00
   -7    3   29     -1.29      0.00
    6    3   29      1.97      0.00
    7    3   29      3.15      0.00
   -8    4   29      0.39      0.00
   -7    4   29      2.16      0.00
    6    4   29     -0.71      0.00
    7    4   29      0.21      0.00
   -8    5   29      0.30      0.00
   -7    5   29     -2.19      0.00
    6    5   29      1.56      0.00
    7    5   29      1.99      0.00
   -7    6   29      0.38      0.00
    5    6   29     -1.27      0.00
    6    6   29      1.40      0.00
   -7    7   29     -1.62      0.00
   -6    7   29     -0.67      0.00
    5    7   29      1.18      0.00
    6    7   29     -0.18      0.00
   -7    8   29      0.48      0.00
   -6    8   29      0.60      0.00
    5    8   29      0.14      0.00
    6    8   29      1.04      0.00
   -7    9   29     -0.86      0.00
   -6    9   29      1.61      0.00
   -5    9   29     -4.24      0.00
    4    9   29      2.29      0.00
    5    9   29     -0.27      0.00
   -6   10   29      1.91      0.00
   -5   10   29     -0.66      0.00
    4   10   29     -0.23      0.00
    5   10   29      0.06      0.00
   -6   11   29     -0.59      0.00
   -5   11   29     -3.61      0.00
   -4   11   29      1.07      0.00
    3   11   29      1.07      0.00
    4   11   29      0.70      0.00
    5   11   29      0.41      0.00
   -5   12   29      0.50      0.00
   -4   12   29     -1.85      0.00
   -3   12   29      0.01      0.00
   -2   12   29      2.01      0.00
    1   12   29      1.40      0.00
    2   12   29     -2.33      0.00
    3   12   29      0.98      0.00
    4   12   29      0.05      0.00
   -4   13   29     -0.28      0.00
   -3   13   29      0.81      0.00
   -2   13   29     -1.37      0.00
   -1   13   29      0.97      0.00
    0   13   29      1.07      0.00
    1   13   29     -2.29      0.00
    2   13   29      0.03      0.00
    3   13   29     -0.50      0.00
   -3   14   29     -0.40      0.00
   -2   14   29      1.61      0.00
   -1   14   29      0.78      0.00
    0   14   29     -2.20      0.00
    1   14   29      2.52      0.00
    2   14   29     -2.11      0.00
   -2   15   29      0.48      0.00
   -1   15   29     -0.63      0.00
    0   15   29      0.56      0.00
    1   15   29     -1.81      0.00
   -8    0   30     -0.88      0.00
    6    0   30     -1.67      0.00
   -8    1   30     -0.35      0.00
   -7    1   30     -3.11      0.00
    6    1   30     -0.52      0.00
    7    1   30     -0.97      0.00
   -8    2   30     -0.61      0.00
   -7    2   30     -0.90      0.00
    6    2   30     -1.70      0.00
   -8    3   30     -0.57      0.00
   -7    3   30     -1.23      0.00
    5    3   30     -3.17      0.00
    6    3   30     -0.28      0.00
   -7    4   30      0.54      0.00
   -6    4   30      0.34      0.00
    5    4   30     -0.98      0.00
    6    4   30     -1.58      0.00
   -7    5   30      1.47      0.00
   -6    5   30      1.31      0.00
    5    5   30     -0.31      0.00
    6    5   30      1.31      0.00
   -7    6   30      0.97      0.00
   -6    6   30     -0.98      0.00
    5    6   30     -2.04      0.00
    6    6   30     -0.90      0.00
   -7    7   30      1.96      0.00
   -6    7   30      2.86      0.00
    4    7   30      0.35      0.00
    5    7   30      1.14      0.00
    6    7   30     -0.04      0.00
   -6    8   30      0.41      0.00
   -5    8   30      0.27      0.00
    4    8   30     -0.69      0.00
    5    8   30     -0.64      0.00
   -6    9   30      2.17      0.00
   -5    9   30     -0.54      0.00
   -4    9   30      1.62      0.00
    3    9   30      0.73      0.00
    4    9   30      0.25      0.00
    5    9   30      1.53      0.00
   -6   10   30      1.55      0.00
   -5   10   30      0.11      0.00
   -4   10   30      0.28      0.00
   -3   10   30     -1.28      0.00
    2   10   30      0.92      0.00
    3   10   30     -0.85      0.00
    4   10   30     -1.59      0.00
   -5   11   30     -1.83      0.00
   -4   11   30      2.65      0.00
   -3   11   30     -0.06      0.00
   -2   11   30      0.03      0.00
   -1   11   30      0.31      0.00
    0   11   30     -3.35      0.00
    1   11   30      2.06      0.00
    2   11   30     -1.43      0.00
    3   11   30      1.01      0.00
    4   11   30      0.99      0.00
   -4   12   30     -0.70      0.00
   -3   12   30     -0.89      0.00
   -2   12   30      0.81      0.00
   -1   12   30      1.47      0.00
    0   12   30     -1.59      0.00
    1   12   30      2.79      0.00
    2   12   30     -2.58      0.00
    3   12   30      1.48      0.00
   -4   13   30      1.31      0.00
   -3   13   30     -0.93      0.00
   -2   13   30     -0.16      0.00
   -1   13   30     -0.67      0.00
    0   13   30     -0.28      0.00
    1   13   30      0.33      0.00
    2   13   30     -1.36      0.00
   -2   14   30      0.61      0.00
   -1   14   30      0.63      0.00
    0   14   30      0.19      0.00
    1   14   30      0.70      0.00
   -7    0   31     -0.35      0.00
    5    0   31     -1.53      0.00
   -7    1   31      0.14      0.00
   -6    1   31      2.16      0.00
    5    1   31     -1.17      0.00
    6    1   31     -0.24      0.00
   -7    2   31     -1.58      0.00
   -6    2   31      2.41      0.00
    5    2   31     -1.56      0.00
    6    2   31      1.25      0.00
   -7    3   31      0.38      0.00
   -6    3   31      0.75      0.00
    5    3   31     -1.23      0.00
    6    3   31      1.60      0.00
   -7    4   31     -1.55      0.00
   -6    4   31      3.49      0.00
    5    4   31     -1.62      0.00
    6    4   31     -0.30      0.00
   -7    5   31      0.84      0.00
   -6    5   31     -0.07      0.00
   -5    5   31      0.09      0.00
    4    5   31      0.11      0.00
    5    5   31     -1.35      0.00
    6    5   31      2.24      0.00
   -6    6   31      1.55      0.00
   -5    6   31     -2.34      0.00
    4    6   31      2.56      0.00
    5    6   31     -3.08      0.00
   -6    7   31     -1.10      0.00
   -5    7   31      1.31      0.00
    3    7   31     -1.36      0.00
    4    7   31     -0.63      0.00
    5    7   31     -0.80      0.00
   -6    8   31     -0.28      0.00
   -5    8   31     -0.59      0.00
   -4    8   31      2.66      0.00
    2    8   31      1.30      0.00
    3    8   31     -0.41      0.00
    4    8   31      1.74      0.00
    5    8   31     -1.05      0.00
   -5    9   31      0.14      0.00
   -4    9   31      0.15      0.00
   -3    9   31      0.65      0.00
    2    9   31     -0.85      0.00
    3    9   31      0.55      0.00
    4    9   31     -0.70      0.00
   -5   10   31     -2.01      0.00
   -4   10   31      3.35      0.00
   -3   10   31     -2.51      0.00
   -2   10   31      3.65      0.00
   -1   10   31      0.77      0.00
    0   10   31      1.21      0.00
    1   10   31      0.33      0.00
    2   10   31      1.18      0.00
    3   10   31      1.18      0.00
    4   10   31     -0.11      0.00
   -4   11   31      1.70      0.00
   -3   11   31     -1.09      0.00
   -2   11   31      1.68      0.00
   -1   11   31     -2.77      0.00
    0   11   31     -2.25      0.00
    1   11   31      1.29      0.00
    2   11   31     -1.68      0.00
    3   11   31      2.16      0.00
   -3   12   31      1.17      0.00
   -2   12   31      2.44      0.00
   -1   12   31      0.10      0.00
    0   12   31      1.12      0.00
    1   12   31     -0.48      0.00
    2   12   31      3.26      0.00
   -2   13   31     -0.50      0.00
   -1   13   31     -0.78      0.00
    0   13   31     -1.33      0.00
    1   13   31      1.28      0.00
   -6    0   32     -0.15      0.00
    4    0   32      0.73      0.00
   -7    1   32      2.37      0.00
   -6    1   32     -0.34      0.00
   -5    1   32      0.30      0.00
    4    1   32     -0.02      0.00
    5    1   32     -0.95      0.00
   -7    2   32     -0.86      0.00
   -6    2   32      0.42      0.00
   -5    2   32     -1.63      0.00
    4    2   32     -0.02      0.00
    5    2   32      1.84      0.00
   -6    3   32      0.02      0.00
   -5    3   32      0.56      0.00
    4    3   32      3.21      0.00
    5    3   32     -1.06      0.00
   -6    4   32     -0.03      0.00
   -5    4   32     -4.41      0.00
    4    4   32      1.16      0.00
    5    4   32      1.31      0.00
   -6    5   32     -1.28      0.00
   -5    5   32      1.15      0.00
   -4    5   32     -1.04      0.00
    3    5   32     -1.06      0.00
    4    5   32      0.61      0.00
    5    5   32     -1.37      0.00
   -6    6   32     -2.40      0.00
   -5    6   32     -2.87      0.00
   -4    6   32     -2.48      0.00
    3    6   32      0.74      0.00
    4    6   32      1.73      0.00
    5    6   32      0.54      0.00
   -6    7   32     -0.76      0.00
   -5    7   32      0.24      0.00
   -4    7   32     -2.04      0.00
   -3    7   32      1.29      0.00
    2    7   32      0.76      0.00
    3    7   32     -2.70      0.00
    4    7   32      0.74      0.00
   -5    8   32     -1.33      0.00
   -4    8   32      0.28      0.00
   -3    8   32     -1.05      0.00
   -2    8   32      2.88      0.00
    1    8   32     -0.36      0.00
    2    8   32     -0.97      0.00
    3    8   32      0.94      0.00
    4    8   32     -0.24      0.00
   -5    9   32     -0.26      0.00
   -4    9   32     -1.53      0.00
   -3    9   32     -0.21      0.00
   -2    9   32      0.74      0.00
   -1    9   32     -2.95      0.00
    0    9   32      2.55      0.00
    1    9   32     -0.29      0.00
    2    9   32      0.58      0.00
    3    9   32     -0.04      0.00
   -4   10   32      0.55      0.00
   -3   10   32      0.16      0.00
   -2   10   32      1.52      0.00
   -1   10   32     -0.82      0.00
    0   10   32      2.45      0.00
    1   10   32     -1.85      0.00
    2   10   32     -0.42      0.00
    3   10   32     -1.26      0.00
   -3   11   32      0.65      0.00
   -2   11   32      0.00      0.00
   -1   11   32     -0.28      0.00
    0   11   32      0.95      0.00
    1   11   32      1.00      0.00
    2   11   32     -0.47      0.00
   -2   12   32      1.22      0.00
   -1   12   32      1.29      0.00
    0   12   32      0.63      0.00
    1   12   32     -0.27      0.00
   -5    0   33      0.60      0.00
    3    0   33     -1.73      0.00
    5    0   33     -0.51      0.00
   -6    1   33     -0.58      0.00
   -5    1   33      1.31      0.00
   -4    1   33     -0.05      0.00
    3    1   33     -1.39      0.00
    4    1   33     -0.22      0.00
    5    1   33     -0.69      0.00
   -6    2   33     -1.31      0.00
   -5    2   33     -0.71      0.00
   -4    2   33     -0.31      0.00
    3    2   33     -1.77      0.00
    4    2   33     -1.23      0.00
    5    2   33      0.28      0.00
   -6    3   33     -0.17      0.00
   -5    3   33      2.47      0.00
   -4    3   33      0.21      0.00
    3    3   33     -1.58      0.00
    4    3   33     -0.17      0.00
    5    3   33     -1.85      0.00
   -6    4   33     -1.80      0.00
   -5    4   33      0.95      0.00
   -4    4   33      0.21      0.00
    2    4   33      1.06      0.00
    3    4   33     -2.37      0.00
    4    4   33      1.95      0.00
   -5    5   33      1.27      0.00
   -4    5   33      1.00      0.00
   -3    5   33      2.34      0.00
    2    5   33     -0.53      0.00
    3    5   33     -3.43      0.00
    4    5   33      0.21      0.00
   -5    6   33      0.60      0.00
   -4    6   33     -0.12      0.00
   -3    6   33     -0.07      0.00
   -2    6   33     -1.46      0.00
    1    6   33     -1.28      0.00
    2    6   33      1.14      0.00
    3    6   33      0.23      0.00
    4    6   33      1.58      0.00
   -5    7   33      1.46      0.00
   -4    7   33      1.84      0.00
   -3    7   33      0.68      0.00
   -2    7   33     -1.16      0.00
   -1    7   33     -0.71      0.00
    0    7   33      0.76      0.00
    1    7   33     -3.54      0.00
    2    7   33      0.59      0.00
    3    7   33     -2.25      0.00
    4    7   33      0.08      0.00
   -4    8   33     -1.85      0.00
   -3    8   33      0.71      0.00
   -2    8   33     -2.00      0.00
   -1    8   33     -2.01      0.00
    0    8   33     -0.30      0.00
    1    8   33     -3.36      0.00
    2    8   33      1.98      0.00
    3    8   33      0.27      0.00
   -4    9   33      1.47      0.00
   -3    9   33      0.34      0.00
   -2    9   33     -1.71      0.00
   -1    9   33      1.66      0.00
    0    9   33      0.00      0.00
    1    9   33     -2.17      0.00
    2    9   33      1.83      0.00
    3    9   33     -2.62      0.00
   -3   10   33     -0.86      0.00
   -2   10   33     -2.50      0.00
   -1   10   33     -1.36      0.00
    0   10   33     -1.55      0.00
    1   10   33     -0.55      0.00
    2   10   33      1.32      0.00
   -2   11   33      0.56      0.00
   -1   11   33      0.35      0.00
    0   11   33     -1.17      0.00
   -4    0   34      1.54      0.00
    0    0   34     -2.29      0.00
    2    0   34     -2.04      0.00
    4    0   34      2.80      0.00
   -5    1   34     -1.16      0.00
   -4    1   34     -1.10      0.00
   -3    1   34     -1.01      0.00
    0    1   34      1.43      0.00
    1    1   34      1.51      0.00
    2    1   34     -1.38      0.00
    3    1   34     -0.66      0.00
    4    1   34     -0.08      0.00
   -5    2   34      0.85      0.00
   -4    2   34      0.24      0.00
   -3    2   34      1.17      0.00
   -2    2   34     -0.55      0.00
   -1    2   34     -0.94      0.00
    0    2   34     -0.66      0.00
    1    2   34     -1.77      0.00
    2    2   34      0.34      0.00
    3    2   34      1.93      0.00
    4    2   34      1.45      0.00
   -5    3   34     -1.37      0.00
   -4    3   34     -2.71      0.00
   -3    3   34      0.79      0.00
   -2    3   34     -2.26      0.00
   -1    3   34      0.97      0.00
    0    3   34      0.23      0.00
    1    3   34     -0.04      0.00
    2    3   34     -0.82      0.00
    3    3   34      1.19      0.00
    4    3   34      0.85      0.00
   -5    4   34      1.14      0.00
   -4    4   34      0.30      0.00
   -3    4   34      1.06      0.00
   -2    4   34     -1.33      0.00
   -1    4   34      0.45      0.00
    0    4   34     -0.89      0.00
    1    4   34     -0.42      0.00
    2    4   34      0.98      0.00
    3    4   34      0.58      0.00
    4    4   34      0.20      0.00
   -5    5   34     -0.50      0.00
   -4    5   34     -0.53      0.00
   -3    5   34      1.90      0.00
   -2    5   34     -0.19      0.00
   -1    5   34      1.43      0.00
    0    5   34     -0.49      0.00
    1    5   34      0.04      0.00
    2    5   34      1.50      0.00
    3    5   34      1.60      0.00
   -4    6   34     -1.14      0.00
   -3    6   34      1.15      0.00
   -2    6   34     -0.90      0.00
   -1    6   34      1.34      0.00
    0    6   34      1.54      0.00
    1    6   34      1.02      0.00
    2    6   34      1.49      0.00
    3    6   34     -2.18      0.00
   -4    7   34      1.12      0.00
   -3    7   34      0.05      0.00
   -2    7   34     -1.19      0.00
   -1    7   34      0.74      0.00
    0    7   34     -0.60      0.00
    1    7   34      0.52      0.00
    2    7   34      1.74      0.00
    3    7   34     -0.05      0.00
   -3    8   34     -0.37      0.00
   -2    8   34      0.29      0.00
   -1    8   34      0.60      0.00
    0    8   34      2.10      0.00
    1    8   34      0.55      0.00
    2    8   34     -0.28      0.00
   -2    9   34      1.05      0.00
   -1    9   34      0.35      0.00
    0    9   34      0.42      0.00
    1    9   34     -0.73      0.00
   -5    0   35      1.02      0.00
   -3    0   35     -1.96      0.00
   -1    0   35     -0.84      0.00
    1    0   35     -1.63      0.00
    3    0   35     -0.52      0.00
   -4    1   35      2.58      0.00
   -3    1   35      0.59      0.00
   -2    1   35      0.62      0.00
   -1    1   35      1.09      0.00
    0    1   35      1.17      0.00
    1    1   35      0.36      0.00
    2    1   35      1.10      0.00
    3    1   35     -0.88      0.00
   -4    2   35     -0.95      0.00
   -3    2   35     -2.32      0.00
   -2    2   35     -2.49      0.00
   -1    2   35      0.94      0.00
    0    2   35     -2.74      0.00
    1    2   35      0.76      0.00
    2    2   35      0.59      0.00
    3    2   35     -0.47      0.00
   -4    3   35      1.55      0.00
   -3    3   35     -0.82      0.00
   -2    3   35     -0.74      0.00
   -1    3   35      0.88      0.00
    0    3   35     -1.43      0.00
    1    3   35      0.77      0.00
    2    3   35     -0.84      0.00
    3    3   35     -0.45      0.00
   -4    4   35     -1.28      0.00
   -3    4   35     -0.74      0.00
   -2    4   35     -2.09      0.00
   -1    4   35      1.88      0.00
    0    4   35     -3.76      0.00
    1    4   35      1.79      0.00
    2    4   35     -0.72      0.00
    3    4   35     -2.18      0.00
   -4    5   35      0.90      0.00
   -3    5   35     -1.42      0.00
   -2    5   35      0.05      0.00
   -1    5   35      1.22      0.00
    0    5   35     -1.58      0.00
    1    5   35      1.73      0.00
    2    5   35     -1.43      0.00
   -3    6   35     -0.80      0.00
   -2    6   35      0.47      0.00
   -1    6   35      0.33      0.00
    0    6   35     -2.01      0.00
    1    6   35      1.58      0.00
    2    6   35     -2.03      0.00
   -3    7   35     -1.03      0.00
   -2    7   35      2.00      0.00
   -1    7   35     -0.61      0.00
    0    7   35      0.94      0.00
    1    7   35     -0.12      0.00
   -1    8   35     -0.32      0.00
    0    8   35      0.43      0.00
    0    0    0      0.00      0.00
# SQUEEZE RESULTS (Version =  60119)
# Note: Data are Listed for all Voids in the P1 Unit Cell
# i.e. Centre of Gravity, Solvent Accessible Volume,
# Recovered number of Electrons in the Void and
# Details about the Squeezed Material
loop_
  _platon_squeeze_void_nr
  _platon_squeeze_void_average_x
  _platon_squeeze_void_average_y
  _platon_squeeze_void_average_z
  _platon_squeeze_void_volume
  _platon_squeeze_void_count_electrons
  _platon_squeeze_void_content
   1 -0.030  0.500  0.500       707       236 ' '
   2  0.433  0.000  0.000       706       236 ' '
# Missing Reflections Below sin(th)/lambda = 0.25
loop_
  _platon_missing_refln_index_h
  _platon_missing_refln_index_k
  _platon_missing_refln_index_l
  _platon_missing_refln_theta
    0    2    0     4.690
    4    4    0    20.719
    0    0    2     3.110
   -4    4    2    20.812
    4    4    4    22.027
    0    0    6     9.366
   -4    4    6    22.468
    0    0    8    12.532
_platon_squeeze_void_probe_radius                  1.20
_platon_squeeze_details
)
TITL exp_524_a.res in P2(1)/n
CELL    9.8438   18.8552   28.4652     90.00     93.14     90.00
SPGR P21/n
# Solvent Accessible Volume =      1414
# Electrons Found in S.A.V. =       471
# Note: Atoms in Void are Labelled as Cxxx and Qxxx for all Others
Q101 0.903 0.246 0.027 !       6.17 eA-3
C102 0.884 0.372 0.809 !       4.51 eA-3
C103 0.475 0.973 0.136 !       4.33 eA-3
C104 0.120 0.515 0.894 !       4.22 eA-3
C105 0.062 0.936 0.262 !       4.17 eA-3
C106 0.374 0.142 0.211 !       4.00 eA-3
C107 0.366 0.095 0.915 !       3.70 eA-3
Q108 0.694 0.393 0.056 !       3.64 eA-3
C109 0.407 0.980 0.344 !       3.64 eA-3
C110 0.019 0.466 0.491 !       3.14 eA-3
C111 0.425 0.468 0.275 !       2.33 eA-3
C112 0.219 0.498 0.318 !       2.32 eA-3
Q113 0.551 0.107 0.006 !       2.29 eA-3
Q114 0.576 0.690 0.057 !       2.18 eA-3
C115 0.214 0.015 0.186 !       2.10 eA-3
Q116 0.219 0.454 0.594 !       1.52 eA-3
Q117 0.026 0.033 0.641 !       1.38 eA-3
C118 0.916 0.956 0.361 !       1.30 eA-3
Q119 0.178 0.686 0.444 !       1.19 eA-3
C120 0.135 0.015 0.310 !       1.17 eA-3
Q121 0.037 0.213 0.539 !       1.17 eA-3
Q122 0.716 0.236 0.414 !       1.16 eA-3
Q123 0.250 0.827 0.588 !       1.15 eA-3
Q124 0.217 0.326 0.901 !       1.14 eA-3
Q125 0.283 0.830 0.604 !       1.14 eA-3
Q126 0.015 0.188 0.416 !       1.08 eA-3
Q127 0.146 0.689 0.089 !       1.07 eA-3
Q128 0.550 0.578 0.256 !       1.04 eA-3
C129 0.294 0.480 0.266 !       1.02 eA-3
C130 0.765 0.986 0.670 !       1.01 eA-3
Q131 0.738 0.250 0.483 !       0.97 eA-3
Q132 0.420 0.031 0.979 !       0.97 eA-3
C133 0.179 0.563 0.252 !       0.97 eA-3
Q134 0.379 0.309 0.585 !       0.93 eA-3
Q135 0.137 0.689 0.745 !       0.90 eA-3
Q136 0.174 0.310 0.578 !       0.89 eA-3
Q137 0.856 0.498 0.147 !       0.88 eA-3
Q138 0.689 0.549 0.083 !       0.86 eA-3
Q139 0.765 0.815 0.578 !       0.86 eA-3
Q140 0.687 0.691 0.407 !       0.85 eA-3
Q141 0.936 0.671 0.391 !       0.84 eA-3
Q142 0.823 0.424 0.369 !       0.83 eA-3
C143 0.527 0.470 0.305 !       0.82 eA-3
Q144 0.035 0.393 0.459 !       0.81 eA-3
C145 0.222 0.076 0.201 !       0.81 eA-3
C146 0.320 0.456 0.221 !       0.79 eA-3
C147 0.717 0.029 0.721 !       0.79 eA-3
Q148 0.988 0.518 0.086 !       0.78 eA-3
Q149 0.639 0.877 0.002 !       0.77 eA-3
Q150 0.126 0.859 0.102 !       0.77 eA-3
Q151 0.626 0.874 0.899 !       0.76 eA-3
Q152 0.993 0.188 0.068 !       0.76 eA-3
C153 0.748 0.441 0.733 !       0.76 eA-3
Q154 0.570 0.691 0.102 !       0.75 eA-3
Q155 0.861 0.406 0.485 !       0.72 eA-3
Q156 0.775 0.435 0.398 !       0.70 eA-3
C157 0.098 0.576 0.242 !       0.70 eA-3
Q158 0.985 0.921 0.095 !       0.70 eA-3
Q159 0.375 0.811 0.139 !       0.70 eA-3
Q160 0.832 0.334 0.603 !       0.70 eA-3
Q161 0.309 0.611 0.205 !       0.69 eA-3
Q162 0.214 0.195 0.076 !       0.69 eA-3
Q163 0.258 0.217 0.632 !       0.68 eA-3
Q164 0.816 0.077 0.083 !       0.67 eA-3
Q165 0.804 0.318 0.792 !       0.67 eA-3
Q166 0.329 0.925 0.076 !       0.67 eA-3
Q167 0.963 0.015 0.234 !       0.66 eA-3
Q168 0.944 0.923 0.736 !       0.66 eA-3
Q169 0.448 0.420 0.712 !       0.66 eA-3
Q170 0.435 0.842 0.946 !       0.64 eA-3
Q171 0.780 0.812 0.479 !       0.63 eA-3
C172 0.941 0.982 0.163 !       0.63 eA-3
Q173 0.515 0.299 0.253 !       0.61 eA-3
Q174 0.349 0.919 0.758 !       0.61 eA-3
Q175 0.492 0.403 0.553 !       0.61 eA-3
Q176 0.697 0.483 0.640 !       0.61 eA-3
Q177 0.057 0.046 0.408 !       0.60 eA-3
Q178 0.262 0.611 0.548 !       0.60 eA-3
Q179 0.426 0.018 0.730 !       0.60 eA-3
Q180 0.695 0.688 0.440 !       0.59 eA-3
Q181 0.057 0.685 0.102 !       0.59 eA-3
Q182 0.484 0.559 0.897 !       0.59 eA-3
Q183 0.442 0.522 0.571 !       0.58 eA-3
Q184 0.346 0.376 0.775 !       0.58 eA-3
Q185 0.435 0.776 0.961 !       0.57 eA-3
Q186 0.406 0.964 0.205 !       0.57 eA-3
C187 0.042 0.561 0.180 !       0.57 eA-3
Q188 0.806 0.474 0.035 !       0.57 eA-3
Q189 0.117 0.560 0.437 !       0.56 eA-3
Q190 0.951 0.702 0.217 !       0.56 eA-3
Q191 0.472 0.296 0.212 !       0.56 eA-3
Q192 0.682 0.923 0.367 !       0.56 eA-3
Q193 0.927 0.361 0.068 !       0.56 eA-3
Q194 0.538 0.188 0.413 !       0.55 eA-3
Q195 0.049 0.967 0.782 !       0.55 eA-3
Q196 0.877 0.295 0.682 !       0.55 eA-3
Q197 0.473 0.361 0.243 !       0.55 eA-3
Q198 0.375 0.909 0.704 !       0.54 eA-3
Q199 0.180 0.316 0.336 !       0.54 eA-3
)
;
_shelx_fab_checksum              87408
loop_
_space_group_symop_operation_xyz
'x, y, z'
'-x+1/2, y+1/2, -z+1/2'
'-x, -y, -z'
'x-1/2, -y-1/2, z-1/2'
loop_
_atom_site_label
_atom_site_type_symbol
_atom_site_fract_x
_atom_site_fract_y
_atom_site_fract_z
_atom_site_U_iso_or_equiv
_atom_site_adp_type
_atom_site_occupancy
_atom_site_site_symmetry_order
_atom_site_calc_flag
_atom_site_refinement_flags_posn
_atom_site_refinement_flags_adp
_atom_site_refinement_flags_occupancy
_atom_site_disorder_assembly
_atom_site_disorder_group
Cd1 Cd 0.68670(6) 1.19359(3) 0.41887(2) 0.0441(2) Uani 1 1 d D . . . .
Cd2 Cd 0.56825(6) 1.18732(3) 0.08039(2) 0.0450(2) Uani 1 1 d . . . . .
O1 O 0.5475(7) 1.1054(4) 0.4431(4) 0.095(3) Uani 1 1 d . . . . .
O3 O -0.1701(9) 1.0945(6) 0.4292(5) 0.135(5) Uani 1 1 d D . . . .
O2 O 0.444(4) 1.195(2) 0.4128(12) 0.039(3) Uani 0.43(4) 1 d . . P A 1
O4 O -0.0699(10) 1.1776(6) 0.3967(4) 0.068(3) Uani 0.716(11) 1 d D . P B 1
O5 O 0.4238(17) 1.1006(9) 0.0900(7) 0.076(5) Uani 0.716(11) 1 d . . P B 1
Cl1 Cl 0.5556(5) 1.2524(3) 0.00512(19) 0.0782(16) Uani 0.716(11) 1 d . . P B 1
O2' O 0.420(3) 1.2005(14) 0.4261(10) 0.039(3) Uani 0.57(4) 1 d . . P A 2
O4' O -0.075(2) 1.1890(10) 0.4403(9) 0.068(3) Uani 0.284(11) 1 d D . P B 2
O5' O 0.402(5) 1.095(3) 0.072(2) 0.076(5) Uani 0.284(11) 1 d . . P B 2
Cl1' Cl 0.558(3) 1.2825(13) 0.0255(9) 0.142(8) Uani 0.284(11) 1 d . . P B 2
O6 O 0.2999(7) 1.1914(3) 0.0697(3) 0.069(2) Uani 1 1 d . . . . .
O7 O -0.2898(10) 1.0566(9) 0.0847(6) 0.194(8) Uani 1 1 d . . . . .
O8 O -0.2070(9) 1.1601(7) 0.0818(4) 0.106(4) Uani 1 1 d . . . . .
O9 O 0.7168(8) 0.2958(3) 0.3747(2) 0.0620(18) Uani 1 1 d . . . . .
O10 O 0.6431(6) 0.2021(3) 0.3359(2) 0.0487(14) Uani 1 1 d . . . . .
O11 O 0.5769(7) 0.2110(5) 0.1612(3) 0.071(2) Uani 1 1 d . . . . .
O12 O 0.6614(14) 0.2951(5) 0.1224(3) 0.115(4) Uani 1 1 d . . . . .
O13 O 0.6667(10) 1.2605(4) 0.4872(3) 0.081(2) Uani 1 1 d D . . . .
H13C H 0.632(12) 1.302(3) 0.4849(14) 0.121 Uiso 1 1 d D U . . .
H13B H 0.732(8) 1.263(5) 0.509(3) 0.121 Uiso 1 1 d D U . . .
N1 N 0.2533(8) 0.8655(4) 0.4214(3) 0.0485(18) Uani 1 1 d . . . . .
N2 N 0.4574(9) 0.7145(4) 0.2125(3) 0.059(2) Uani 1 1 d . . . . .
N3 N 0.8078(8) 0.5232(4) 0.2501(3) 0.056(2) Uani 1 1 d . . . . .
N4 N 0.1687(9) 0.8540(4) 0.0905(3) 0.055(2) Uani 1 1 d . . . . .
C1 C 0.4384(9) 1.1349(5) 0.4335(3) 0.047(2) Uani 1 1 d . . . . .
C2 C 0.3103(8) 1.0934(4) 0.4380(3) 0.0395(18) Uani 1 1 d . . . . .
C3 C 0.3153(9) 1.0221(4) 0.4504(3) 0.0422(18) Uani 1 1 d . . . . .
H3A H 0.3990 1.0004 0.4572 0.051 Uiso 1 1 calc R U . . .
C4 C 0.1979(9) 0.9833(4) 0.4529(3) 0.0426(19) Uani 1 1 d . . . . .
C5 C 0.0712(9) 1.0157(5) 0.4433(3) 0.053(2) Uani 1 1 d . . . . .
H5A H -0.0086 0.9897 0.4456 0.063 Uiso 1 1 calc R U . . .
C6 C 0.0655(9) 1.0868(5) 0.4305(3) 0.047(2) Uani 1 1 d . . . . .
C7 C 0.1848(9) 1.1245(4) 0.4278(3) 0.0427(19) Uani 1 1 d . . . . .
H7A H 0.1809 1.1719 0.4188 0.051 Uiso 1 1 calc R U . . .
C8 C -0.0682(9) 1.1254(5) 0.4217(4) 0.058(2) Uani 1 1 d D . . . .
C9 C 0.2073(12) 0.9046(5) 0.4633(3) 0.059(3) Uani 1 1 d . . . . .
H9A H 0.2712 0.8966 0.4899 0.070 Uiso 1 1 calc R U . . .
H9B H 0.1190 0.8870 0.4714 0.070 Uiso 1 1 calc R U . . .
C10 C 0.3800(10) 0.8461(5) 0.4190(3) 0.054(2) Uani 1 1 d . . . . .
H10A H 0.4404 0.8553 0.4446 0.065 Uiso 1 1 calc R U . . .
C11 C 0.4286(10) 0.8123(4) 0.3799(3) 0.049(2) Uani 1 1 d . . . . .
H11A H 0.5188 0.7978 0.3796 0.058 Uiso 1 1 calc R U . . .
C12 C 0.3400(9) 0.8009(4) 0.3418(3) 0.044(2) Uani 1 1 d . . . . .
C13 C 0.2046(10) 0.8220(5) 0.3454(4) 0.053(2) Uani 1 1 d . . . . .
H13A H 0.1414 0.8139 0.3205 0.064 Uiso 1 1 calc R U . . .
C14 C 0.1650(10) 0.8544(5) 0.3854(4) 0.056(2) Uani 1 1 d . . . . .
H14A H 0.0751 0.8687 0.3874 0.067 Uiso 1 1 calc R U . . .
C15 C 0.3811(9) 0.7701(4) 0.2962(3) 0.046(2) Uani 1 1 d . . . . .
C16 C 0.4806(9) 0.7178(4) 0.2965(3) 0.0418(18) Uani 1 1 d . . . . .
H16A H 0.5227 0.7025 0.3248 0.050 Uiso 1 1 calc R U . . .
C17 C 0.5166(10) 0.6887(4) 0.2540(3) 0.048(2) Uani 1 1 d . . . . .
C18 C 0.3586(9) 0.7675(4) 0.2147(3) 0.0442(19) Uani 1 1 d . . . . .
C19 C 0.3223(7) 0.7945(4) 0.2558(3) 0.0350(17) Uani 1 1 d . . . . .
H19A H 0.2567 0.8300 0.2562 0.042 Uiso 1 1 calc R U . . .
C20 C 0.6205(9) 0.6319(4) 0.2528(3) 0.044(2) Uani 1 1 d . . . . .
C21 C 0.6854(13) 0.6057(5) 0.2934(4) 0.069(3) Uani 1 1 d . . . . .
H21A H 0.6665 0.6246 0.3225 0.083 Uiso 1 1 calc R U . . .
C22 C 0.7790(12) 0.5509(5) 0.2905(4) 0.067(3) Uani 1 1 d . . . . .
H22A H 0.8224 0.5336 0.3180 0.080 Uiso 1 1 calc R U . . .
C23 C 0.7524(13) 0.5484(5) 0.2103(4) 0.071(3) Uani 1 1 d . . . . .
H23A H 0.7791 0.5304 0.1818 0.086 Uiso 1 1 calc R U . . .
C24 C 0.6533(12) 0.6023(5) 0.2103(4) 0.064(3) Uani 1 1 d . . . . .
H24A H 0.6105 0.6178 0.1822 0.077 Uiso 1 1 calc R U . . .
C25 C 0.9013(10) 0.4614(5) 0.2476(5) 0.068(3) Uani 1 1 d . . . . .
H25A H 0.9663 0.4618 0.2744 0.082 Uiso 1 1 calc R U . . .
H25B H 0.9513 0.4643 0.2192 0.082 Uiso 1 1 calc R U . . .
C26 C 0.8193(10) 0.3931(4) 0.2473(3) 0.050(2) Uani 1 1 d . . . . .
C27 C 0.7906(9) 0.3606(4) 0.2904(3) 0.047(2) Uani 1 1 d . . . . .
H27A H 0.8243 0.3804 0.3186 0.056 Uiso 1 1 calc R U . . .
C28 C 0.7115(9) 0.2988(4) 0.2909(3) 0.0418(18) Uani 1 1 d . . . . .
C29 C 0.6626(8) 0.2695(4) 0.2484(3) 0.0437(19) Uani 1 1 d . . . . .
H29A H 0.6096 0.2287 0.2486 0.052 Uiso 1 1 calc R U . . .
C30 C 0.6922(10) 0.3006(5) 0.2052(3) 0.049(2) Uani 1 1 d . . . . .
C31 C 0.7678(10) 0.3631(4) 0.2060(3) 0.050(2) Uani 1 1 d . . . . .
H31A H 0.7841 0.3853 0.1777 0.060 Uiso 1 1 calc R U . . .
C32 C 0.6890(8) 0.2632(4) 0.3364(3) 0.0403(18) Uani 1 1 d . . . . .
C33 C 0.6422(12) 0.2669(6) 0.1603(4) 0.061(3) Uani 1 1 d . . . . .
C34 C 0.2937(9) 0.7960(4) 0.1705(3) 0.046(2) Uani 1 1 d . . . . .
C35 C 0.1599(10) 0.8207(5) 0.1695(4) 0.062(3) Uani 1 1 d . . . . .
H35A H 0.1106 0.8172 0.1964 0.075 Uiso 1 1 calc R U . . .
C36 C 0.1012(11) 0.8496(5) 0.1300(4) 0.062(3) Uani 1 1 d . . . . .
H36A H 0.0127 0.8668 0.1302 0.075 Uiso 1 1 calc R U . . .
C37 C 0.2945(11) 0.8306(5) 0.0898(4) 0.053(2) Uani 1 1 d . . . . .
H37A H 0.3405 0.8349 0.0623 0.064 Uiso 1 1 calc R U . . .
C38 C 0.3604(10) 0.7997(4) 0.1289(3) 0.051(2) Uani 1 1 d . . . . .
H38A H 0.4480 0.7817 0.1272 0.061 Uiso 1 1 calc R U . . .
C39 C 0.1017(13) 0.8879(5) 0.0480(4) 0.071(3) Uani 1 1 d . . . . .
H39A H 0.0136 0.8662 0.0408 0.085 Uiso 1 1 calc R U . . .
H39B H 0.1570 0.8814 0.0212 0.085 Uiso 1 1 calc R U . . .
C40 C 0.0843(10) 0.9664(5) 0.0577(4) 0.056(2) Uani 1 1 d . . . . .
C41 C 0.1981(9) 1.0093(4) 0.0607(3) 0.0446(19) Uani 1 1 d . . . . .
H41A H 0.2834 0.9903 0.0559 0.053 Uiso 1 1 calc R U . . .
C42 C 0.1848(8) 1.0819(4) 0.0711(3) 0.0383(17) Uani 1 1 d . . . . .
C43 C 0.0573(8) 1.1102(5) 0.0751(3) 0.0408(18) Uani 1 1 d . . . . .
H43A H 0.0478 1.1588 0.0795 0.049 Uiso 1 1 calc R U . . .
C44 C -0.0562(10) 1.0676(5) 0.0728(3) 0.054(2) Uani 1 1 d . . . . .
C45 C -0.0442(10) 0.9947(5) 0.0633(3) 0.056(2) Uani 1 1 d . . . . .
H45A H -0.1210 0.9660 0.0608 0.068 Uiso 1 1 calc R U . . .
C46 C -0.1950(11) 1.0980(9) 0.0795(4) 0.075(3) Uani 1 1 d . . . . .
C47 C 0.3090(8) 1.1287(4) 0.0761(3) 0.0382(18) Uani 1 1 d . . . . .
loop_
_atom_site_aniso_label
_atom_site_aniso_U_11
_atom_site_aniso_U_22
_atom_site_aniso_U_33
_atom_site_aniso_U_23
_atom_site_aniso_U_13
_atom_site_aniso_U_12
Cd1 0.0409(3) 0.0458(4) 0.0448(4) 0.0076(2) -0.0036(2) 0.0000(2)
Cd2 0.0385(3) 0.0489(4) 0.0475(4) 0.0061(3) 0.0005(3) -0.0014(3)
O1 0.028(3) 0.055(4) 0.203(10) 0.028(5) -0.003(5) 0.002(3)
O3 0.047(5) 0.102(7) 0.257(16) 0.029(9) 0.019(7) 0.006(5)
O2 0.047(10) 0.039(6) 0.034(13) 0.003(8) 0.023(7) 0.006(6)
O4 0.057(5) 0.077(6) 0.069(6) 0.003(5) -0.015(5) 0.014(5)
O5 0.038(7) 0.039(5) 0.144(18) 0.026(9) -0.045(7) -0.005(4)
Cl1 0.084(3) 0.094(4) 0.057(3) 0.023(2) 0.007(2) -0.002(3)
O2' 0.047(10) 0.039(6) 0.034(13) 0.003(8) 0.023(7) 0.006(6)
O4' 0.057(5) 0.077(6) 0.069(6) 0.003(5) -0.015(5) 0.014(5)
O5' 0.038(7) 0.039(5) 0.144(18) 0.026(9) -0.045(7) -0.005(4)
Cl1' 0.162(18) 0.138(16) 0.122(16) -0.029(13) -0.016(13) -0.012(14)
O6 0.055(4) 0.038(4) 0.112(6) -0.010(4) -0.014(4) 0.000(3)
O7 0.040(5) 0.228(16) 0.32(2) -0.137(15) 0.035(8) -0.037(8)
O8 0.064(5) 0.128(9) 0.130(9) 0.044(7) 0.032(5) 0.038(6)
O9 0.094(5) 0.040(3) 0.050(4) 0.000(3) -0.012(4) -0.001(3)
O10 0.056(4) 0.043(3) 0.047(3) 0.004(3) 0.000(3) 0.000(3)
O11 0.053(4) 0.103(6) 0.056(4) -0.021(4) -0.005(3) -0.002(4)
O12 0.220(13) 0.076(6) 0.047(5) 0.004(4) 0.003(6) -0.014(7)
O13 0.124(8) 0.068(5) 0.049(4) -0.009(4) -0.005(4) 0.000(5)
N1 0.058(5) 0.032(4) 0.056(5) 0.002(3) 0.006(4) -0.005(3)
N2 0.061(5) 0.047(4) 0.068(5) 0.005(4) -0.009(4) -0.009(4)
N3 0.057(5) 0.036(4) 0.076(6) -0.002(4) 0.018(4) 0.004(3)
N4 0.076(6) 0.029(4) 0.058(5) 0.002(3) -0.015(4) -0.022(4)
C1 0.045(5) 0.042(5) 0.054(5) -0.010(4) 0.001(4) 0.003(4)
C2 0.041(4) 0.037(4) 0.041(4) 0.000(3) 0.001(3) 0.006(3)
C3 0.043(4) 0.040(4) 0.045(5) 0.003(4) 0.007(4) 0.007(4)
C4 0.051(5) 0.042(4) 0.036(4) 0.004(3) 0.007(4) -0.005(4)
C5 0.045(5) 0.066(6) 0.048(5) 0.004(4) 0.016(4) -0.016(4)
C6 0.043(5) 0.057(5) 0.042(5) 0.010(4) 0.011(4) 0.007(4)
C7 0.045(5) 0.038(4) 0.045(5) 0.001(3) 0.005(4) 0.004(4)
C8 0.043(5) 0.072(7) 0.058(6) 0.005(5) 0.008(4) 0.003(5)
C9 0.085(7) 0.043(5) 0.049(5) 0.009(4) 0.013(5) 0.004(5)
C10 0.062(6) 0.044(5) 0.055(6) 0.011(4) -0.009(5) 0.004(4)
C11 0.055(5) 0.038(4) 0.051(5) 0.004(4) -0.004(4) -0.006(4)
C12 0.049(5) 0.025(4) 0.060(6) 0.007(3) 0.007(4) -0.003(3)
C13 0.054(5) 0.047(5) 0.059(6) -0.009(4) -0.004(4) -0.009(4)
C14 0.042(5) 0.048(5) 0.079(7) -0.010(5) 0.008(5) -0.007(4)
C15 0.045(5) 0.031(4) 0.062(6) 0.000(4) 0.000(4) -0.008(4)
C16 0.049(5) 0.028(4) 0.047(5) 0.006(3) -0.002(4) -0.003(3)
C17 0.060(5) 0.027(4) 0.056(5) 0.004(4) 0.000(4) -0.001(4)
C18 0.042(4) 0.031(4) 0.060(5) -0.003(4) 0.007(4) -0.009(3)
C19 0.028(4) 0.025(3) 0.053(5) -0.001(3) 0.006(3) -0.004(3)
C20 0.055(5) 0.029(4) 0.049(5) 0.001(3) 0.002(4) -0.010(4)
C21 0.098(9) 0.044(5) 0.064(7) -0.013(5) -0.003(6) 0.020(5)
C22 0.084(8) 0.049(6) 0.065(7) -0.003(5) -0.020(6) 0.008(5)
C23 0.098(9) 0.047(6) 0.072(7) 0.010(5) 0.033(7) 0.009(6)
C24 0.091(8) 0.050(5) 0.053(6) 0.009(4) 0.025(5) 0.012(5)
C25 0.049(5) 0.036(5) 0.121(10) 0.001(5) 0.014(6) 0.005(4)
C26 0.055(5) 0.034(4) 0.062(6) 0.001(4) 0.009(4) 0.005(4)
C27 0.045(5) 0.041(5) 0.055(5) 0.004(4) -0.006(4) 0.007(4)
C28 0.045(5) 0.034(4) 0.046(5) -0.001(3) -0.005(4) 0.007(3)
C29 0.039(4) 0.034(4) 0.058(5) 0.005(4) 0.008(4) 0.011(3)
C30 0.061(6) 0.044(5) 0.043(5) -0.002(4) 0.006(4) 0.015(4)
C31 0.058(5) 0.037(4) 0.055(6) 0.010(4) 0.017(4) 0.008(4)
C32 0.038(4) 0.038(4) 0.044(5) -0.002(3) -0.006(3) 0.003(3)
C33 0.079(7) 0.054(6) 0.048(6) 0.001(5) 0.000(5) 0.014(5)
C34 0.053(5) 0.023(4) 0.060(6) 0.001(3) 0.001(4) -0.012(3)
C35 0.058(6) 0.042(5) 0.089(8) 0.019(5) 0.015(5) -0.008(4)
C36 0.054(6) 0.043(5) 0.089(8) 0.013(5) -0.004(5) -0.004(4)
C37 0.067(6) 0.033(4) 0.061(6) -0.010(4) 0.007(5) -0.006(4)
C38 0.057(5) 0.038(5) 0.056(6) -0.001(4) 0.001(4) -0.006(4)
C39 0.093(8) 0.046(5) 0.068(7) -0.003(5) -0.033(6) -0.017(5)
C40 0.064(6) 0.038(5) 0.062(6) 0.005(4) -0.026(5) -0.012(4)
C41 0.050(5) 0.037(4) 0.046(5) 0.002(4) -0.013(4) -0.003(4)
C42 0.039(4) 0.036(4) 0.039(4) 0.008(3) -0.006(3) -0.007(3)
C43 0.039(4) 0.049(5) 0.035(4) 0.006(3) 0.004(3) -0.003(4)
C44 0.057(6) 0.062(6) 0.043(5) -0.001(4) -0.006(4) -0.007(5)
C45 0.060(6) 0.057(6) 0.051(5) 0.006(4) -0.008(4) -0.024(5)
C46 0.048(6) 0.119(11) 0.057(7) -0.003(7) 0.002(5) 0.004(7)
C47 0.036(4) 0.037(4) 0.042(4) 0.006(3) 0.000(3) 0.001(3)
loop_
_atom_type_symbol
_atom_type_description
_atom_type_scat_dispersion_real
_atom_type_scat_dispersion_imag
_atom_type_scat_source
C C 0.0181 0.0091 'International Tables Vol C Tables 4.2.6.8 and 6.1.1.4'
H H 0.0000 0.0000 'International Tables Vol C Tables 4.2.6.8 and 6.1.1.4'
N N 0.0311 0.0180 'International Tables Vol C Tables 4.2.6.8 and 6.1.1.4'
O O 0.0492 0.0322 'International Tables Vol C Tables 4.2.6.8 and 6.1.1.4'
Cd Cd 0.1185 4.6533 'International Tables Vol C Tables 4.2.6.8 and 6.1.1.4'
Cl Cl 0.3639 0.7018 'International Tables Vol C Tables 4.2.6.8 and 6.1.1.4'
loop_
_geom_angle_atom_site_label_1
_geom_angle_atom_site_label_2
_geom_angle_atom_site_label_3
_geom_angle
_geom_angle_site_symmetry_1
_geom_angle_site_symmetry_3
_geom_angle_publ_flag
O1 Cd1 O9 149.4(3) . 1_565 ?
O1 Cd1 O13 93.6(4) . . ?
O9 Cd1 O13 91.3(3) 1_565 . ?
O1 Cd1 O3 75.5(3) . 1_655 ?
O9 Cd1 O3 129.3(3) 1_565 1_655 ?
O13 Cd1 O3 113.7(4) . 1_655 ?
O1 Cd1 O10 105.6(3) . 1_565 ?
O9 Cd1 O10 55.3(2) 1_565 1_565 ?
O13 Cd1 O10 140.4(2) . 1_565 ?
O3 Cd1 O10 104.6(4) 1_655 1_565 ?
O1 Cd1 O2 54.1(9) . . ?
O9 Cd1 O2 96.4(9) 1_565 . ?
O13 Cd1 O2 85.8(8) . . ?
O3 Cd1 O2 127.4(10) 1_655 . ?
O10 Cd1 O2 78.6(8) 1_565 . ?
O1 Cd1 O4' 119.5(6) . 1_655 ?
O9 Cd1 O4' 90.9(6) 1_565 1_655 ?
O13 Cd1 O4' 86.2(6) . 1_655 ?
O3 Cd1 O4' 50.7(5) 1_655 1_655 ?
O10 Cd1 O4' 112.1(7) 1_565 1_655 ?
O1 Cd1 O4 125.5(3) . 1_655 ?
O9 Cd1 O4 79.3(3) 1_565 1_655 ?
O13 Cd1 O4 113.3(4) . 1_655 ?
O3 Cd1 O4 50.7(3) 1_655 1_655 ?
O10 Cd1 O4 83.3(3) 1_565 1_655 ?
O2 Cd1 O4 160.3(8) . 1_655 ?
O1 Cd1 O2' 53.0(6) . . ?
O9 Cd1 O2' 99.1(6) 1_565 . ?
O13 Cd1 O2' 77.3(6) . . ?
O3 Cd1 O2' 128.3(6) 1_655 . ?
O10 Cd1 O2' 87.0(6) 1_565 . ?
O4' Cd1 O2' 160.8(9) 1_655 . ?
O1 Cd1 C32 130.7(3) . 1_565 ?
O9 Cd1 C32 28.1(2) 1_565 1_565 ?
O13 Cd1 C32 118.0(3) . 1_565 ?
O3 Cd1 C32 117.6(4) 1_655 1_565 ?
O10 Cd1 C32 27.4(2) 1_565 1_565 ?
O2 Cd1 C32 89.4(9) . 1_565 ?
O4' Cd1 C32 100.6(7) 1_655 1_565 ?
O4 Cd1 C32 77.7(3) 1_655 1_565 ?
O2' Cd1 C32 95.7(6) . 1_565 ?
O1 Cd1 C8 101.0(3) . 1_655 ?
O9 Cd1 C8 105.5(3) 1_565 1_655 ?
O13 Cd1 C8 110.2(3) . 1_655 ?
O3 Cd1 C8 25.7(3) 1_655 1_655 ?
O10 Cd1 C8 99.9(3) 1_565 1_655 ?
O2 Cd1 C8 152.3(9) . 1_655 ?
O4' Cd1 C8 28.8(4) 1_655 1_655 ?
O4 Cd1 C8 26.3(3) 1_655 1_655 ?
O2' Cd1 C8 154.0(6) . 1_655 ?
C32 Cd1 C8 101.9(3) 1_565 1_655 ?
O1 Cd1 C1 26.4(3) . . ?
O9 Cd1 C1 123.9(3) 1_565 . ?
O13 Cd1 C1 88.5(3) . . ?
O3 Cd1 C1 101.2(3) 1_655 . ?
O10 Cd1 C1 93.7(3) 1_565 . ?
O2 Cd1 C1 27.7(9) . . ?
O4' Cd1 C1 144.9(6) 1_655 . ?
O4 Cd1 C1 148.9(3) 1_655 . ?
O2' Cd1 C1 27.1(6) . . ?
C32 Cd1 C1 112.4(3) 1_565 . ?
C8 Cd1 C1 126.9(3) 1_655 . ?
O5 Cd2 O8 117.9(6) . 1_655 ?
O5 Cd2 O11 90.5(6) . 1_565 ?
O8 Cd2 O11 92.4(4) 1_655 1_565 ?
O8 Cd2 Cl1' 100.9(7) 1_655 . ?
O11 Cd2 Cl1' 120.0(7) 1_565 . ?
O8 Cd2 O5' 119.8(15) 1_655 . ?
O11 Cd2 O5' 103.2(16) 1_565 . ?
Cl1' Cd2 O5' 118.5(12) . . ?
O5 Cd2 Cl1 118.5(4) . . ?
O8 Cd2 Cl1 97.5(3) 1_655 . ?
O11 Cd2 Cl1 139.1(3) 1_565 . ?
O5 Cd2 O12 140.1(7) . 1_565 ?
O8 Cd2 O12 81.0(5) 1_655 1_565 ?
O11 Cd2 O12 51.9(3) 1_565 1_565 ?
Cl1' Cd2 O12 72.7(6) . 1_565 ?
O5' Cd2 O12 150.4(18) . 1_565 ?
Cl1 Cd2 O12 90.7(3) . 1_565 ?
O5 Cd2 O6 52.1(4) . . ?
O8 Cd2 O6 167.4(4) 1_655 . ?
O11 Cd2 O6 95.2(3) 1_565 . ?
Cl1' Cd2 O6 84.0(6) . . ?
O5' Cd2 O6 48.4(14) . . ?
Cl1 Cd2 O6 83.3(2) . . ?
O12 Cd2 O6 111.6(4) 1_565 . ?
C1 O1 Cd1 97.8(6) . . ?
C8 O3 Cd1 95.4(8) . 1_455 ?
C1 O2 Cd1 92(2) . . ?
C8 O4 Cd1 86.2(7) . 1_455 ?
C47 O5 Cd2 102.6(10) . . ?
C1 O2' Cd1 80.4(13) . . ?
C8 O4' Cd1 90.1(12) . 1_455 ?
C47 O5' Cd2 97(3) . . ?
C47 O6 Cd2 83.6(5) . . ?
C46 O8 Cd2 108.9(9) . 1_455 ?
C32 O9 Cd1 92.0(5) . 1_545 ?
C32 O10 Cd1 90.3(5) . 1_545 ?
C33 O11 Cd2 97.7(7) . 1_545 ?
C33 O12 Cd2 89.9(7) . 1_545 ?
Cd1 O13 H13C 119(2) . . ?
Cd1 O13 H13B 122(4) . . ?
H13C O13 H13B 107(3) . . ?
C10 N1 C14 120.3(8) . . ?
C10 N1 C9 120.8(9) . . ?
C14 N1 C9 118.8(8) . . ?
C17 N2 C18 118.4(8) . . ?
C22 N3 C23 120.8(9) . . ?
C22 N3 C25 121.3(10) . . ?
C23 N3 C25 117.9(9) . . ?
C37 N4 C36 120.1(9) . . ?
C37 N4 C39 120.5(10) . . ?
C36 N4 C39 119.3(10) . . ?
O1 C1 O2' 126.4(15) . . ?
O1 C1 O2 116.4(19) . . ?
O1 C1 C2 118.4(8) . . ?
O2' C1 C2 114.4(14) . . ?
O2 C1 C2 124(2) . . ?
O1 C1 Cd1 55.8(5) . . ?
O2' C1 Cd1 72.5(13) . . ?
O2 C1 Cd1 60.8(18) . . ?
C2 C1 Cd1 171.6(6) . . ?
C7 C2 C3 118.8(8) . . ?
C7 C2 C1 120.5(7) . . ?
C3 C2 C1 120.6(7) . . ?
C4 C3 C2 120.7(8) . . ?
C4 C3 H3A 119.7 . . ?
C2 C3 H3A 119.7 . . ?
C3 C4 C5 120.1(8) . . ?
C3 C4 C9 119.3(8) . . ?
C5 C4 C9 120.6(8) . . ?
C6 C5 C4 119.5(8) . . ?
C6 C5 H5A 120.2 . . ?
C4 C5 H5A 120.2 . . ?
C7 C6 C5 119.3(8) . . ?
C7 C6 C8 118.7(8) . . ?
C5 C6 C8 121.9(8) . . ?
C6 C7 C2 121.5(8) . . ?
C6 C7 H7A 119.2 . . ?
C2 C7 H7A 119.2 . . ?
O3 C8 O4 121.2(11) . . ?
O3 C8 O4' 108.1(14) . . ?
O3 C8 C6 118.1(10) . . ?
O4 C8 C6 118.0(9) . . ?
O4' C8 C6 115.8(13) . . ?
O3 C8 Cd1 58.9(6) . 1_455 ?
O4 C8 Cd1 67.5(7) . 1_455 ?
O4' C8 Cd1 61.1(11) . 1_455 ?
C6 C8 Cd1 172.1(7) . 1_455 ?
N1 C9 C4 110.1(7) . . ?
N1 C9 H9A 109.6 . . ?
C4 C9 H9A 109.6 . . ?
N1 C9 H9B 109.6 . . ?
C4 C9 H9B 109.6 . . ?
H9A C9 H9B 108.1 . . ?
N1 C10 C11 122.8(9) . . ?
N1 C10 H10A 118.6 . . ?
C11 C10 H10A 118.6 . . ?
C12 C11 C10 118.3(9) . . ?
C12 C11 H11A 120.9 . . ?
C10 C11 H11A 120.9 . . ?
C11 C12 C13 117.7(9) . . ?
C11 C12 C15 123.8(8) . . ?
C13 C12 C15 118.4(8) . . ?
C14 C13 C12 120.2(9) . . ?
C14 C13 H13A 119.9 . . ?
C12 C13 H13A 119.9 . . ?
N1 C14 C13 120.7(9) . . ?
N1 C14 H14A 119.7 . . ?
C13 C14 H14A 119.7 . . ?
C19 C15 C16 121.4(8) . . ?
C19 C15 C12 119.1(8) . . ?
C16 C15 C12 119.4(8) . . ?
C15 C16 C17 119.1(8) . . ?
C15 C16 H16A 120.5 . . ?
C17 C16 H16A 120.5 . . ?
N2 C17 C16 119.4(8) . . ?
N2 C17 C20 119.6(8) . . ?
C16 C17 C20 120.9(8) . . ?
C19 C18 N2 122.0(9) . . ?
C19 C18 C34 118.7(8) . . ?
N2 C18 C34 119.3(8) . . ?
C18 C19 C15 119.6(8) . . ?
C18 C19 H19A 120.2 . . ?
C15 C19 H19A 120.2 . . ?
C21 C20 C24 117.9(9) . . ?
C21 C20 C17 121.8(8) . . ?
C24 C20 C17 120.3(9) . . ?
C20 C21 C22 119.7(10) . . ?
C20 C21 H21A 120.2 . . ?
C22 C21 H21A 120.2 . . ?
N3 C22 C21 121.7(10) . . ?
N3 C22 H22A 119.2 . . ?
C21 C22 H22A 119.2 . . ?
N3 C23 C24 121.0(10) . . ?
N3 C23 H23A 119.5 . . ?
C24 C23 H23A 119.5 . . ?
C20 C24 C23 118.9(10) . . ?
C20 C24 H24A 120.5 . . ?
C23 C24 H24A 120.5 . . ?
N3 C25 C26 109.5(8) . . ?
N3 C25 H25A 109.8 . . ?
C26 C25 H25A 109.8 . . ?
N3 C25 H25B 109.8 . . ?
C26 C25 H25B 109.8 . . ?
H25A C25 H25B 108.2 . . ?
C31 C26 C27 118.7(8) . . ?
C31 C26 C25 121.6(9) . . ?
C27 C26 C25 119.7(9) . . ?
C28 C27 C26 120.4(9) . . ?
C28 C27 H27A 119.8 . . ?
C26 C27 H27A 119.8 . . ?
C29 C28 C27 119.2(8) . . ?
C29 C28 C32 121.1(7) . . ?
C27 C28 C32 119.5(8) . . ?
C28 C29 C30 121.1(8) . . ?
C28 C29 H29A 119.5 . . ?
C30 C29 H29A 119.5 . . ?
C31 C30 C29 118.2(9) . . ?
C31 C30 C33 121.8(9) . . ?
C29 C30 C33 119.9(9) . . ?
C26 C31 C30 122.3(8) . . ?
C26 C31 H31A 118.9 . . ?
C30 C31 H31A 118.9 . . ?
O10 C32 O9 121.5(8) . . ?
O10 C32 C28 118.8(7) . . ?
O9 C32 C28 119.6(7) . . ?
O10 C32 Cd1 62.3(5) . 1_545 ?
O9 C32 Cd1 59.9(4) . 1_545 ?
C28 C32 Cd1 171.7(6) . 1_545 ?
O12 C33 O11 119.6(11) . . ?
O12 C33 C30 120.7(11) . . ?
O11 C33 C30 119.7(9) . . ?
C38 C34 C35 117.2(9) . . ?
C38 C34 C18 122.8(8) . . ?
C35 C34 C18 120.0(9) . . ?
C36 C35 C34 120.7(10) . . ?
C36 C35 H35A 119.6 . . ?
C34 C35 H35A 119.6 . . ?
N4 C36 C35 121.0(10) . . ?
N4 C36 H36A 119.5 . . ?
C35 C36 H36A 119.5 . . ?
N4 C37 C38 122.0(9) . . ?
N4 C37 H37A 119.0 . . ?
C38 C37 H37A 119.0 . . ?
C37 C38 C34 118.9(9) . . ?
C37 C38 H38A 120.5 . . ?
C34 C38 H38A 120.5 . . ?
N4 C39 C40 108.7(8) . . ?
N4 C39 H39A 109.9 . . ?
C40 C39 H39A 109.9 . . ?
N4 C39 H39B 109.9 . . ?
C40 C39 H39B 109.9 . . ?
H39A C39 H39B 108.3 . . ?
C41 C40 C45 120.5(9) . . ?
C41 C40 C39 118.9(10) . . ?
C45 C40 C39 120.6(9) . . ?
C40 C41 C42 119.9(9) . . ?
C40 C41 H41A 120.1 . . ?
C42 C41 H41A 120.1 . . ?
C43 C42 C41 119.4(8) . . ?
C43 C42 C47 120.3(7) . . ?
C41 C42 C47 120.3(7) . . ?
C42 C43 C44 120.8(8) . . ?
C42 C43 H43A 119.6 . . ?
C44 C43 H43A 119.6 . . ?
C43 C44 C45 120.2(9) . . ?
C43 C44 C46 120.9(10) . . ?
C45 C44 C46 118.9(10) . . ?
C40 C45 C44 119.0(9) . . ?
C40 C45 H45A 120.5 . . ?
C44 C45 H45A 120.5 . . ?
O8 C46 O7 123.0(13) . . ?
O8 C46 C44 118.7(12) . . ?
O7 C46 C44 118.2(14) . . ?
O5' C47 O6 127(3) . . ?
O6 C47 O5 120.5(10) . . ?
O5' C47 C42 108(2) . . ?
O6 C47 C42 120.6(8) . . ?
O5 C47 C42 118.7(10) . . ?
loop_
_geom_bond_atom_site_label_1
_geom_bond_atom_site_label_2
_geom_bond_distance
_geom_bond_site_symmetry_2
_geom_bond_publ_flag
Cd1 O1 2.284(7) . ?
Cd1 O9 2.330(6) 1_565 ?
Cd1 O13 2.336(7) . ?
Cd1 O3 2.349(10) 1_655 ?
Cd1 O10 2.383(6) 1_565 ?
Cd1 O2 2.39(4) . ?
Cd1 O4' 2.39(2) 1_655 ?
Cd1 O4 2.529(10) 1_655 ?
Cd1 O2' 2.65(3) . ?
Cd1 C32 2.691(8) 1_565 ?
Cd1 C8 2.731(10) 1_655 ?
Cd1 C1 2.736(9) . ?
Cd2 O5 2.194(17) . ?
Cd2 O8 2.269(8) 1_655 ?
Cd2 O11 2.341(7) 1_565 ?
Cd2 Cl1' 2.38(2) . ?
Cd2 O5' 2.40(5) . ?
Cd2 Cl1 2.466(4) . ?
Cd2 O12 2.507(10) 1_565 ?
Cd2 O6 2.643(7) . ?
O1 C1 1.227(11) . ?
O3 C8 1.189(11) . ?
O3 Cd1 2.349(10) 1_455 ?
O2 C1 1.27(4) . ?
O4 C8 1.213(12) . ?
O4 Cd1 2.529(10) 1_455 ?
O5 C47 1.290(18) . ?
O2' C1 1.26(3) . ?
O4' C8 1.316(16) . ?
O4' Cd1 2.39(2) 1_455 ?
O5' C47 1.13(6) . ?
O6 C47 1.200(10) . ?
O7 C46 1.232(18) . ?
O8 C46 1.179(17) . ?
O8 Cd2 2.269(8) 1_455 ?
O9 C32 1.269(10) . ?
O9 Cd1 2.330(6) 1_545 ?
O10 C32 1.237(10) . ?
O10 Cd1 2.383(6) 1_545 ?
O11 C33 1.234(13) . ?
O11 Cd2 2.341(7) 1_545 ?
O12 C33 1.226(13) . ?
O12 Cd2 2.507(10) 1_545 ?
O13 H13C 0.86(2) . ?
O13 H13B 0.87(2) . ?
N1 C10 1.305(12) . ?
N1 C14 1.323(13) . ?
N1 C9 1.493(12) . ?
N2 C17 1.377(12) . ?
N2 C18 1.399(12) . ?
N3 C22 1.308(13) . ?
N3 C23 1.319(14) . ?
N3 C25 1.490(12) . ?
N4 C37 1.315(13) . ?
N4 C36 1.340(14) . ?
N4 C39 1.490(13) . ?
C1 C2 1.496(12) . ?
C2 C7 1.384(11) . ?
C2 C3 1.390(11) . ?
C3 C4 1.372(12) . ?
C3 H3A 0.9300 . ?
C4 C5 1.402(13) . ?
C4 C9 1.515(12) . ?
C5 C6 1.391(13) . ?
C5 H5A 0.9300 . ?
C6 C7 1.378(12) . ?
C6 C8 1.513(13) . ?
C7 H7A 0.9300 . ?
C8 Cd1 2.731(10) 1_455 ?
C9 H9A 0.9700 . ?
C9 H9B 0.9700 . ?
C10 C11 1.390(14) . ?
C10 H10A 0.9300 . ?
C11 C12 1.370(13) . ?
C11 H11A 0.9300 . ?
C12 C13 1.400(13) . ?
C12 C15 1.500(13) . ?
C13 C14 1.367(14) . ?
C13 H13A 0.9300 . ?
C14 H14A 0.9300 . ?
C15 C19 1.341(12) . ?
C15 C16 1.390(12) . ?
C16 C17 1.391(12) . ?
C16 H16A 0.9300 . ?
C17 C20 1.484(12) . ?
C18 C19 1.340(12) . ?
C18 C34 1.482(13) . ?
C19 H19A 0.9300 . ?
C20 C21 1.379(14) . ?
C20 C24 1.387(13) . ?
C21 C22 1.389(15) . ?
C21 H21A 0.9300 . ?
C22 H22A 0.9300 . ?
C23 C24 1.408(15) . ?
C23 H23A 0.9300 . ?
C24 H24A 0.9300 . ?
C25 C26 1.519(13) . ?
C25 H25A 0.9700 . ?
C25 H25B 0.9700 . ?
C26 C31 1.377(13) . ?
C26 C27 1.415(13) . ?
C27 C28 1.402(12) . ?
C27 H27A 0.9300 . ?
C28 C29 1.390(12) . ?
C28 C32 1.486(12) . ?
C29 C30 1.409(12) . ?
C29 H29A 0.9300 . ?
C30 C31 1.394(13) . ?
C30 C33 1.485(14) . ?
C31 H31A 0.9300 . ?
C32 Cd1 2.691(8) 1_545 ?
C34 C38 1.387(13) . ?
C34 C35 1.395(14) . ?
C35 C36 1.351(15) . ?
C35 H35A 0.9300 . ?
C36 H36A 0.9300 . ?
C37 C38 1.384(14) . ?
C37 H37A 0.9300 . ?
C38 H38A 0.9300 . ?
C39 C40 1.516(13) . ?
C39 H39A 0.9700 . ?
C39 H39B 0.9700 . ?
C40 C41 1.381(13) . ?
C40 C45 1.390(15) . ?
C41 C42 1.408(12) . ?
C41 H41A 0.9300 . ?
C42 C43 1.374(12) . ?
C42 C47 1.509(11) . ?
C43 C44 1.375(13) . ?
C43 H43A 0.9300 . ?
C44 C45 1.407(14) . ?
C44 C46 1.504(16) . ?
C45 H45A 0.9300 . ?
