#------------------------------------------------------------------------------
#$Date: 2020-07-06 06:14:17 +0300 (Mon, 06 Jul 2020) $
#$Revision: 253919 $
#$URL: file:///home/coder/svn-repositories/cod/cif/7/70/44/7704451.cif $
#------------------------------------------------------------------------------
#
# This file is available in the Crystallography Open Database (COD),
# http://www.crystallography.net/
#
# All data on this site have been placed in the public domain by the
# contributors.
#
data_7704451
loop_
_publ_author_name
'Liu, Han'
'Fan, Yanru'
'Li, Xiao'
'Gao, Kuan'
'Li, Huijie'
'Yang, Yisen'
'Meng, Xiangru'
'Wu, Jie'
'Hou, Hongwei'
_publ_section_title
;
 Photochromism of metal-organic frameworks based on carbazole-dicarboxylic
 acid and bipyridine: sensing adjustment by controlling strut-to-strut
 energy transfer.
;
_journal_issue                   23
_journal_name_full
'Dalton transactions (Cambridge, England : 2003)'
_journal_page_first              7952
_journal_page_last               7958
_journal_paper_doi               10.1039/d0dt00122h
_journal_volume                  49
_journal_year                    2020
_chemical_formula_moiety         'C30 H20 N3 O4 Zn, 2(O), C3 H7 N O'
_chemical_formula_sum            'C33 H27 N4 O7 Zn'
_chemical_formula_weight         657.00
_space_group_crystal_system      triclinic
_space_group_IT_number           2
_space_group_name_Hall           '-P 1'
_space_group_name_H-M_alt        'P -1'
_symmetry_Int_Tables_number      2
_atom_sites_solution_primary     direct
_audit_creation_date             2019-07-04
_audit_creation_method
;
Olex2 1.2
(compiled 2018.05.29 svn.r3508 for OlexSys, GUI svn.r5506)
;
_audit_update_record
;
2019-10-23 deposited with the CCDC.	2020-05-19 downloaded from the CCDC.
;
_cell_angle_alpha                71.249(2)
_cell_angle_beta                 83.003(2)
_cell_angle_gamma                73.420(2)
_cell_formula_units_Z            2
_cell_length_a                   10.6378(6)
_cell_length_b                   12.1483(6)
_cell_length_c                   13.0565(6)
_cell_measurement_reflns_used    9962
_cell_measurement_temperature    293(2)
_cell_measurement_theta_max      27.53
_cell_measurement_theta_min      2.33
_cell_volume                     1530.48(14)
_computing_cell_refinement       'SAINT v8.37A (Bruker, 2015)'
_computing_data_reduction        'SAINT v8.37A (Bruker, 2015)'
_computing_molecular_graphics    'Olex2 (Dolomanov et al., 2009)'
_computing_publication_material  'Olex2 (Dolomanov et al., 2009)'
_computing_structure_refinement  'olex2.refine (Bourhis et al., 2015)'
_computing_structure_solution    'SIR2004 (Burla et al.,  2007)'
_diffrn_ambient_temperature      293.15
_diffrn_measured_fraction_theta_full 0.9863
_diffrn_measured_fraction_theta_max 0.9795
_diffrn_measurement_device_type  'Bruker APEX-II CCD'
_diffrn_measurement_method       '\f and \w scans'
_diffrn_radiation_type           'Mo K\a'
_diffrn_radiation_wavelength     0.71073
_diffrn_reflns_av_R_equivalents  0.0306
_diffrn_reflns_av_unetI/netI     0.0449
_diffrn_reflns_limit_h_max       12
_diffrn_reflns_limit_h_min       -13
_diffrn_reflns_limit_k_max       14
_diffrn_reflns_limit_k_min       -15
_diffrn_reflns_limit_l_max       14
_diffrn_reflns_limit_l_min       -17
_diffrn_reflns_number            16214
_diffrn_reflns_theta_full        27.6377
_diffrn_reflns_theta_max         27.64
_diffrn_reflns_theta_min         2.33
_diffrn_standards_number         0
_exptl_absorpt_coefficient_mu    0.858
_exptl_absorpt_correction_T_max  0.7455
_exptl_absorpt_correction_T_min  0.6691
_exptl_absorpt_correction_type   multi-scan
_exptl_absorpt_process_details
;
SADABS-2016/2 (Bruker,2016/2) was used for absorption correction.
wR2(int) was 0.1039 before and 0.0511 after correction.
The Ratio of minimum to maximum transmission is 0.8975.
The \l/2 correction factor is Not present.
;
_exptl_crystal_colour            'metallic light colourless'
_exptl_crystal_colour_lustre     metallic
_exptl_crystal_colour_modifier   light
_exptl_crystal_colour_primary    colourless
_exptl_crystal_density_diffrn    1.4255
_exptl_crystal_density_method    'not measured'
_exptl_crystal_description       block
_exptl_crystal_F_000             678.9385
_refine_diff_density_max         0.6137
_refine_diff_density_min         -0.5445
_refine_diff_density_rms         0.0838
_refine_ls_d_res_high            0.7661
_refine_ls_d_res_low             8.7326
_refine_ls_goodness_of_fit_ref   1.0472
_refine_ls_hydrogen_treatment    constr
_refine_ls_matrix_type           full
_refine_ls_number_constraints    49
_refine_ls_number_parameters     408
_refine_ls_number_reflns         6969
_refine_ls_number_restraints     0
_refine_ls_restrained_S_all      1.0472
_refine_ls_R_factor_all          0.0540
_refine_ls_R_factor_gt           0.0416
_refine_ls_shift/su_max          0.0012
_refine_ls_shift/su_mean         0.0000
_refine_ls_structure_factor_coef Fsqd
_refine_ls_weighting_details
'w=1/[\s^2^(Fo^2^)+(0.0531P)^2^+0.8027P] where P=(Fo^2^+2Fc^2^)/3'
_refine_ls_weighting_scheme      calc
_refine_ls_wR_factor_gt          0.1041
_refine_ls_wR_factor_ref         0.1102
_reflns_Friedel_coverage         0.0
_reflns_limit_h_max              13
_reflns_limit_h_min              -13
_reflns_limit_k_max              15
_reflns_limit_k_min              -14
_reflns_limit_l_max              17
_reflns_limit_l_min              0
_reflns_number_gt                5811
_reflns_number_total             6969
_reflns_threshold_expression     I>=2u(I)
_iucr_refine_instructions_details
;
TITL mo_190105d_0m_a.res in P-1
REM Old TITL mo_190105d_0m in P1
REM SHELXT solution in P-1
REM R1 0.122, Rweak 0.011, Alpha 0.045, Orientation as input
REM Formula found by SHELXT: C31 N5 O6 Zn
CELL 0.71073 10.6378 12.1483 13.0565 71.249 83.003 73.42
ZERR 2 0.0006 0.0006 0.0006 0.002 0.002 0.002
LATT 1
SFAC C H N O Zn
UNIT 66 54 8 14 2

L.S. 10
PLAN  20
TEMP 20
BOND $H
LIST 4
HTAB 
fmap 2
acta 
OMIT -1 0 1
OMIT 1 0 1
WGHT 0.053111 0.802704
FVAR 0.742115
REM <olex2.extras>
REM <HklSrc "%.\\a.hkl">
REM </olex2.extras>

Zn1   5     1.41320  0.43421 -0.09063  11.00000  0.02416  0.02816  0.02250 =
 -0.01235  0.00252 -0.00340 
O7    4     1.59272  0.34086 -0.59100  11.00000  0.08933  0.12698  0.09235 =
 -0.01176 -0.02773 -0.03171 
O1    4     1.55421  0.51925 -0.16220  11.00000  0.03347  0.04599  0.03696 =
 -0.01953  0.01151 -0.01730 

O6    4     1.40010  0.63912 -0.61536  11.00000  0.10939  0.23248  0.13383 =
 -0.08971  0.02330 -0.06312 

N4    3     1.52983  0.00319 -0.34488  11.00000  0.09788  0.06449  0.10894 =
 -0.01726 -0.00422 -0.02502 

O2    4     1.61758  0.62118 -0.07193  11.00000  0.04216  0.03936  0.02460 =
 -0.01374  0.00508 -0.00793 
O4    4     1.63681  0.55954 -0.75391  11.00000  0.04403  0.05455  0.03678 =
 -0.02073 -0.00565 -0.01673 

O5    4     1.42466 -0.13259 -0.35187  11.00000  0.14137  0.14401  0.18402 =
 0.00354 -0.02597 -0.09222 

O3    4     1.75593  0.64709 -0.88806  11.00000  0.05519  0.05194  0.02502 =
 -0.01629 -0.00475 -0.00946 

C32   1     1.52520 -0.10187 -0.34764  11.00000  0.11263  0.06738  0.14573 =
 0.00551 -0.02223 -0.02785 
AFIX 43
H32   2     1.60490 -0.15938 -0.34633  11.00000 -1.20000 
AFIX 0

N2    3     1.26265  0.59753 -0.09406  11.00000  0.02837  0.02776  0.03021 =
 -0.01018  0.00210 -0.00238 

C33   1     1.65141  0.02624 -0.34108  11.00000  0.15527  0.21604  0.24841 =
 -0.08161 -0.02710 -0.09989 
AFIX 137
H33a  2     1.71947 -0.02741 -0.37059  11.00000 -1.50000 
H33b  2     1.64811  0.10803 -0.38271  11.00000 -1.50000 
H33c  2     1.66949  0.01378 -0.26734  11.00000 -1.50000 
AFIX 0

N3    3     0.55789  1.26297 -0.07158  11.00000  0.03377  0.03090  0.03374 =
 -0.01167  0.00327  0.00217 

C31   1     1.41218  0.09161 -0.34857  11.00000  0.17375  0.13105  0.20610 =
 -0.06037  0.01044  0.04191 
AFIX 137
H31a  2     1.39650  0.14151 -0.42198  11.00000 -1.50000 
H31b  2     1.34164  0.05415 -0.32159  11.00000 -1.50000 
H31c  2     1.41724  0.14015 -0.30470  11.00000 -1.50000 
AFIX 0

N1    3     2.00010  0.68771 -0.48377  11.00000  0.03278  0.04446  0.02888 =
 -0.01290  0.00396 -0.02115 
C4    1     1.81869  0.62009 -0.41598  11.00000  0.02810  0.03091  0.02433 =
 -0.01018  0.00024 -0.01016 
C13   1     1.76915  0.60057 -0.59972  11.00000  0.02897  0.03455  0.02876 =
 -0.01410  0.00215 -0.01066 
AFIX 43
H13   2     1.69678  0.56966 -0.57480  11.00000 -1.20000 
AFIX 0
C23   1     1.14554  0.59135 -0.04293  11.00000  0.03167  0.02846  0.03204 =
 -0.00937  0.00419 -0.00555 
AFIX 43
H23   2     1.13271  0.51547 -0.00742  11.00000 -1.20000 
AFIX 0
C3    1     1.72560  0.58856 -0.33579  11.00000  0.02648  0.03192  0.02677 =
 -0.01195  0.00045 -0.01133 
AFIX 43
H3    2     1.66180  0.55616 -0.34850  11.00000 -1.20000 
AFIX 0
C2    1     1.72927  0.60620 -0.23609  11.00000  0.02799  0.03303  0.02465 =
 -0.00981  0.00162 -0.00875 
C1    1     1.62563  0.57954 -0.15013  11.00000  0.02365  0.02527  0.02248 =
 -0.00707 -0.00062 -0.00055 
C22   1     1.04449  0.68986 -0.04013  11.00000  0.02632  0.03557  0.03088 =
 -0.01296  0.00355 -0.00424 
AFIX 43
H22   2     0.96588  0.68044 -0.00329  11.00000 -1.20000 
AFIX 0
C7    1     1.82798  0.65213 -0.21638  11.00000  0.04092  0.04409  0.02387 =
 -0.01424 -0.00125 -0.01494 
AFIX 43
H7    2     1.82778  0.66485 -0.14982  11.00000 -1.20000 
AFIX 0
C21   1     1.06127  0.80538 -0.09370  11.00000  0.03095  0.03210  0.03882 =
 -0.01406 -0.00051 -0.00118 
C5    1     1.91865  0.66306 -0.39306  11.00000  0.02857  0.03474  0.02777 =
 -0.01088  0.00126 -0.01345 
C8    1     1.83834  0.62366 -0.52867  11.00000  0.02764  0.03128  0.02498 =
 -0.01150  0.00250 -0.00940 
C14   1     1.73036  0.60963 -0.78855  11.00000  0.03684  0.03574  0.03078 =
 -0.01709 -0.00651  0.00033 
C6    1     1.92550  0.67901 -0.29297  11.00000  0.03685  0.05020  0.03138 =
 -0.01522 -0.00172 -0.02310 
AFIX 43
H6    2     1.99251  0.70644 -0.27840  11.00000 -1.20000 
AFIX 0
C9    1     1.95028  0.66700 -0.56740  11.00000  0.03071  0.03468  0.02677 =
 -0.01127  0.00167 -0.01259 
C12   1     1.80910  0.62412 -0.70877  11.00000  0.03671  0.03578  0.02562 =
 -0.01344 -0.00134 -0.00747 
C19   1     1.27871  0.70718 -0.14467  11.00000  0.02791  0.03397  0.04702 =
 -0.01004  0.00812 -0.00478 
AFIX 43
H19   2     1.35864  0.71382 -0.18034  11.00000 -1.20000 
AFIX 0
C25   1     0.84401  0.92699 -0.04509  11.00000  0.04332  0.03049  0.04782 =
 -0.01020  0.00487  0.00214 
AFIX 43
H25   2     0.82315  0.85714 -0.00074  11.00000 -1.20000 
AFIX 0
C24   1     0.95972  0.91603 -0.09651  11.00000  0.03935  0.02933  0.06233 =
 -0.01332  0.00544 -0.00202 
AFIX 43
H24   2     0.97858  0.98732 -0.13955  11.00000 -1.20000 
AFIX 0
C11   1     1.92279  0.66419 -0.74381  11.00000  0.04781  0.05203  0.02381 =
 -0.01410  0.00840 -0.01875 
AFIX 43
H11   2     1.95029  0.67719 -0.81611  11.00000 -1.20000 
AFIX 0
C16   1     2.04974  0.87836 -0.49694  11.00000  0.03797  0.04833  0.03562 =
 -0.00996  0.00254 -0.02680 
C26   1     0.74622  1.04247 -0.05353  11.00000  0.03694  0.03455  0.04353 =
 -0.01092  0.00506  0.00056 
C28   1     0.54614  1.16153  0.00247  11.00000  0.03772  0.03773  0.05693 =
 -0.01493  0.01720 -0.00783 
AFIX 43
H28   2     0.47318  1.16480  0.04963  11.00000 -1.20000 
AFIX 0
C20   1     1.18198  0.81114 -0.14643  11.00000  0.03866  0.02911  0.05584 =
 -0.00676  0.00701 -0.00851 
AFIX 43
H20   2     1.19758  0.88569 -0.18316  11.00000 -1.20000 
AFIX 0
C15   1     2.10323  0.74711 -0.49241  11.00000  0.03285  0.05481  0.04027 =
 -0.01580  0.00297 -0.02386 
AFIX 23
H15a  2     2.15897  0.70524 -0.43067  11.00000 -1.20000 
H15b  2     2.15687  0.74205 -0.55721  11.00000 -1.20000 
AFIX 0
C10   1     1.99509  0.68493 -0.67450  11.00000  0.03768  0.05601  0.03299 =
 -0.01602  0.01077 -0.02547 
AFIX 43
H10   2     2.07120  0.71005 -0.69858  11.00000 -1.20000 
AFIX 0
C27   1     0.63603  1.05155  0.01340  11.00000  0.04165  0.03016  0.05792 =
 -0.00699  0.01093 -0.00434 
AFIX 43
H27   2     0.62203  0.98324  0.06629  11.00000 -1.20000 
AFIX 0
C18   1     1.94377  0.95245 -0.55864  11.00000  0.06313  0.05851  0.06947 =
 -0.02528 -0.02862 -0.02074 
AFIX 43
H18   2     1.90420  0.92136 -0.59871  11.00000 -1.20000 
AFIX 0
C17   1     2.10498  0.92746 -0.43792  11.00000  0.05640  0.05588  0.06416 =
 -0.01640 -0.02852 -0.01630 
AFIX 43
H17   2     2.17600  0.87946 -0.39513  11.00000 -1.20000 
AFIX 0
C29   1     0.66334  1.25444 -0.13626  11.00000  0.07166  0.03484  0.06303 =
 0.00070  0.03862  0.00868 
AFIX 43
H29   2     0.67396  1.32388 -0.18941  11.00000 -1.20000 
AFIX 0
C30   1     0.75806  1.14890 -0.12946  11.00000  0.07071  0.03934  0.08409 =
 0.00301  0.05190  0.01421 
AFIX 43
H30   2     0.83113  1.14892 -0.17648  11.00000 -1.20000 
AFIX 0
HKLF 4

END
Q1 1 1.472222 0.525 -0.555556 11 0.05 0.61
Q2 1 1.361111 -0.05 -0.311111 11 0.05 0.54
Q3 1 1.444444 -0.15 -0.355556 11 0.05 0.43
Q4 1 1.388889 0.65 -0.622222 11 0.05 0.42
Q5 1 0.722222 1.075 -0.111111 11 0.05 0.36
Q6 1 1.055556 0.75 -0.066667 11 0.05 0.34
Q7 1 1.555556 0.15 -0.422222 11 0.05 0.34
Q8 1 1.361111 0.5 -0.133333 11 0.05 0.34
Q9 1 1.416667 0.1 -0.355556 11 0.05 0.32
Q10 1 0.694444 1.2 -0.155556 11 0.05 0.3
Q11 1 1.611111 0.25 -0.622222 11 0.05 0.29
Q12 1 1.583333 0.425 -0.688889 11 0.05 0.29
Q13 1 1.527778 0.075 -0.355556 11 0.05 0.29
Q14 1 1.972222 0.7 -0.533333 11 0.05 0.29
Q15 1 1.25 0.65 -0.111111 11 0.05 0.28
Q16 1 1.638889 -0.05 -0.355556 11 0.05 0.28
Q17 1 1.666667 0.6 -0.2 11 0.05 0.28
Q18 1 1 0.85 -0.066667 11 0.05 0.27
Q19 1 1.472222 0.6 -0.666667 11 0.05 0.27
Q20 1 1.805556 0.575 -0.666667 11 0.05 0.27

  REM The information below was added by Olex2.
  REM
  REM R1 = 0.0416 for 5811 Fo > 4sig(Fo) and 0.0540 for all 6969 data
  REM 408 parameters refined using 0 restraints
  REM Highest difference peak 0.6137, deepest hole -0.5445
  REM Mean Shift 0.0000, Max Shift 0.0012.

  REM +++ Tabular Listing of Refinement Information +++
  REM R1_all = 0.0540
  REM R1_gt = 0.0416
  REM wR_ref = 0.1102
  REM GOOF = 1.0472
  REM Shift_max = 0.0012
  REM Shift_mean = 0.0000
  REM Reflections_all = 6969
  REM Reflections_gt = 5811
  REM Parameters = 408
  REM Hole = -0.5445
  REM Peak = 0.6137
  REM Flack = n/a

  
;
_cod_data_source_file            d0dt00122h2.cif
_cod_data_source_block           a
_cod_depositor_comments
'Adding full bibliography for 7704450--7704451.cif.'
_cod_database_code               7704451
_olex2_refinement_description
;
1. Fixed Uiso
 At 1.2 times of:
  All C(H) groups, All C(H,H) groups
 At 1.5 times of:
  All C(H,H,H) groups
2.a Secondary CH2 refined with riding coordinates:
 C15(H15a,H15b)
2.b Aromatic/amide H refined with riding coordinates:
 C32(H32), C13(H13), C23(H23), C3(H3), C22(H22), C7(H7), C6(H6), C19(H19),
 C25(H25), C24(H24), C11(H11), C28(H28), C20(H20), C10(H10), C27(H27), C18(H18),
  C17(H17), C29(H29), C30(H30)
2.c Idealised Me refined as rotating group:
 C33(H33a,H33b,H33c), C31(H31a,H31b,H31c)
;
_iucr_refine_fcf_details
;
data_a_CCDC1
_computing_structure_refinement   'olex2.refine (Bourhis et al., 2015)'
_shelx_refln_list_code            4
loop_
  _space_group_symop_id
  _space_group_symop_operation_xyz
  1  x,y,z
  2  -x,-y,-z

_space_group_crystal_system       triclinic
_space_group_IT_number            2
_space_group_name_H-M_alt         'P -1'
_space_group_name_Hall            '-P 1'
_symmetry_space_group_name_H-M    'P -1'
_symmetry_space_group_name_Hall   '-P 1'
_symmetry_Int_Tables_number       2
_cell_length_a                    10.6378(6)
_cell_length_b                    12.1483(6)
_cell_length_c                    13.0565(6)
_cell_angle_alpha                 71.249(2)
_cell_angle_beta                  83.003(2)
_cell_angle_gamma                 73.420(2)
_cell_volume                      1530.48(14)
loop_
  _refln_index_h
  _refln_index_k
  _refln_index_l
  _refln_F_squared_calc
  _refln_F_squared_meas
  _refln_F_squared_sigma
  _refln_F_squared_weight
  _refln_observed_status
-13 -7 1 91.811 121.236 32.130 10.649 o
-13 -6 1 50.051 59.902 12.957 55.651 o
-13 -6 2 32.391 44.110 12.994 60.354 o
-13 -5 1 40.293 42.311 12.908 59.598 o
-13 -5 2 52.305 71.007 20.155 26.298 o
-13 -5 3 4.442 9.813 12.387 76.771 o
-13 -4 1 0.659 0.678 19.429 32.202 o
-13 -4 2 50.166 69.603 13.521 51.288 o
-13 -4 3 27.644 20.045 13.284 61.350 o
-13 -3 1 1.635 11.534 10.651 103.615 o
-13 -3 2 60.468 58.606 16.070 38.476 o
-13 -3 3 100.573 114.919 21.063 21.755 o
-13 -2 1 18.386 9.442 16.523 42.553 o
-13 -2 2 142.178 128.174 22.334 18.373 o
-13 -2 3 199.720 225.862 27.055 11.913 o
-13 -1 1 55.287 60.465 18.521 30.588 o
-13 -1 2 77.644 72.449 20.881 23.718 o
-13 -1 3 119.048 182.102 25.784 14.620 o
-13 0 1 135.452 127.993 21.244 20.023 o
-13 0 2 82.130 75.172 20.700 23.844 o
-12 -9 1 120.541 121.093 17.794 26.773 o
-12 -9 2 113.559 133.440 20.155 22.399 o
-12 -8 1 23.059 37.479 10.543 89.687 o
-12 -8 2 3.883 13.045 11.408 89.612 o
-12 -8 3 58.051 74.576 13.731 48.505 o
-12 -7 1 60.883 83.886 12.565 53.823 o
-12 -7 2 12.085 25.765 10.932 91.076 o
-12 -7 3 14.154 22.310 11.479 83.314 o
-12 -7 4 26.129 47.850 13.094 60.444 o
-12 -6 1 92.353 82.595 11.834 52.027 o
-12 -6 2 11.273 26.571 10.185 103.478 o
-12 -6 3 6.674 15.631 6.595 236.295 o
-12 -6 4 14.910 8.523 7.799 170.139 o
-12 -6 5 13.613 6.525 8.434 151.161 o
-12 -5 1 8.591 11.383 9.276 129.573 o
-12 -5 2 0.656 -4.661 5.211 442.491 o
-12 -5 3 210.617 256.701 14.264 23.014 o
-12 -5 4 37.140 36.110 10.437 85.548 o
-12 -5 5 34.713 29.683 9.415 102.945 o
-12 -4 1 33.326 35.396 10.082 92.062 o
-12 -4 2 164.167 171.121 15.745 26.478 o
-12 -4 3 208.103 253.287 13.940 23.685 o
-12 -4 4 158.273 189.518 30.094 10.856 o
-12 -4 5 2.223 6.015 9.034 144.137 o
-12 -4 6 0.811 -8.966 15.706 49.257 o
-12 -3 1 172.664 169.215 11.928 33.540 o
-12 -3 2 176.113 173.686 13.457 29.798 o
-12 -3 3 153.438 165.294 10.964 38.470 o
-12 -3 4 140.672 141.486 14.038 33.238 o
-12 -3 5 1.543 1.574 19.338 32.442 o
-12 -3 6 30.429 36.407 10.762 84.055 o
-12 -2 1 305.182 282.867 18.610 14.571 o
-12 -2 2 249.874 310.165 17.264 16.898 o
-12 -2 3 270.934 276.938 17.696 16.397 o
-12 -2 4 88.555 89.334 10.715 58.422 o
-12 -2 5 5.816 6.766 9.416 129.934 o
-12 -2 6 110.665 125.176 22.515 19.101 o
-12 -1 1 127.173 130.545 12.435 40.035 o
-12 -1 2 167.099 186.833 27.146 12.662 o
-12 -1 3 210.737 206.237 15.846 22.436 o
-12 -1 4 20.183 33.543 9.435 110.157 o
-12 -1 5 82.645 66.449 11.645 56.762 o
-12 -1 6 115.183 96.685 12.518 43.830 o
-12 0 1 47.176 36.072 7.986 117.031 o
-12 0 2 17.337 13.052 12.523 71.471 o
-12 0 3 31.016 19.066 16.342 41.856 o
-12 0 4 61.595 69.671 17.885 31.770 o
-12 0 5 101.271 93.026 12.694 45.489 o
-12 0 6 109.148 120.723 14.060 37.520 o
-12 1 1 47.191 45.575 17.613 34.405 o
-12 1 2 7.924 8.897 16.160 45.426 o
-12 1 3 15.890 31.594 17.431 37.795 o
-12 1 4 210.820 192.475 17.076 21.202 o
-12 1 5 148.996 145.957 14.809 30.441 o
-12 2 1 79.263 112.559 19.066 26.516 o
-12 2 2 4.418 -1.271 14.345 58.479 o
-12 2 3 80.157 80.983 18.884 27.702 o
-12 2 4 363.732 361.300 35.044 6.437 o
-12 2 5 314.527 337.092 23.163 11.192 o
-12 3 1 9.664 5.266 14.889 53.281 o
-12 3 2 2.451 3.268 16.705 43.278 o
-12 3 3 121.782 104.206 18.702 25.321 o
-11 -11 1 23.083 24.331 15.979 44.145 o
-11 -10 1 78.640 108.564 18.702 27.474 o
-11 -10 2 2.389 5.266 13.981 61.416 o
-11 -10 3 71.041 78.078 17.431 32.207 o
-11 -9 1 227.625 230.038 25.421 12.462 o
-11 -9 2 44.699 24.694 14.708 48.511 o
-11 -9 3 11.226 17.527 10.857 94.309 o
-11 -9 4 8.530 19.490 12.471 73.448 o
-11 -8 1 146.515 172.116 23.605 16.242 o
-11 -8 2 2.173 3.812 6.552 269.709 o
-11 -8 3 0.361 8.643 7.856 189.448 o
-11 -8 4 8.863 8.601 7.714 182.334 o
-11 -8 5 42.397 43.751 9.400 95.147 o
-11 -7 1 2.398 -11.984 11.439 92.113 o
-11 -7 2 0.417 -3.042 5.471 403.632 o
-11 -7 3 74.745 81.412 7.843 86.948 o
-11 -7 4 2.601 -3.512 6.858 251.309 o
-11 -7 5 21.363 20.729 8.108 144.941 o
-11 -7 6 36.852 33.429 9.337 101.909 o
-11 -6 1 29.894 27.599 12.166 70.047 o
-11 -6 2 86.719 82.055 8.865 72.710 o
-11 -6 3 90.668 109.672 9.982 59.653 o
-11 -6 4 93.595 92.328 15.680 35.268 o
-11 -6 5 2.210 3.458 7.656 200.380 o
-11 -6 6 22.570 25.737 8.978 120.340 o
-11 -5 1 118.053 116.798 20.246 22.403 o
-11 -5 2 303.669 332.026 13.919 16.868 o
-11 -5 3 295.212 309.730 14.059 17.578 o
-11 -5 4 329.773 353.298 17.836 13.367 o
-11 -5 5 1.150 5.672 18.521 35.265 o
-11 -5 6 8.496 18.437 8.543 146.916 o
-11 -5 7 1.527 -4.519 16.614 43.968 o
-11 -4 1 281.944 299.251 16.968 16.179 o
-11 -4 2 256.445 247.971 11.672 23.352 o
-11 -4 3 764.369 707.347 20.254 4.726 o
-11 -4 4 325.181 336.855 15.212 15.197 o
-11 -4 5 4.452 -0.327 7.565 204.136 o
-11 -4 6 63.202 82.617 13.800 46.808 o
-11 -4 7 74.788 72.591 13.642 46.634 o
-11 -3 1 84.759 106.651 16.878 31.811 o
-11 -3 2 129.330 142.368 12.292 39.420 o
-11 -3 3 292.276 284.610 11.108 20.537 o
-11 -3 4 6.270 6.269 5.883 306.196 o
-11 -3 5 81.482 70.460 10.035 67.536 o
-11 -3 6 134.542 160.495 20.155 21.023 o
-11 -3 7 344.985 379.639 30.142 7.837 o
-11 -3 8 86.162 83.138 16.177 34.727 o
-11 -2 1 130.271 125.551 8.523 54.665 o
-11 -2 2 177.192 168.130 9.029 39.664 o
-11 -2 3 75.925 90.864 6.981 92.121 o
-11 -2 4 48.869 47.189 8.082 109.975 o
-11 -2 5 161.409 136.877 13.284 33.285 o
-11 -2 6 117.558 108.019 15.071 34.208 o
-11 -2 7 334.050 366.878 22.673 10.803 o
-11 -2 8 9.908 17.794 14.345 56.284 o
-11 -1 1 173.008 177.492 10.867 35.378 o
-11 -1 2 104.509 107.020 7.384 71.439 o
-11 -1 3 14.659 15.603 9.805 111.889 o
-11 -1 4 208.400 165.020 11.873 30.224 o
-11 -1 5 159.666 156.901 11.620 36.497 o
-11 -1 6 280.650 246.914 17.993 16.345 o
-11 -1 7 84.209 75.844 11.735 54.890 o
-11 -1 8 0.946 4.764 13.891 62.506 o
-11 0 1 104.400 91.454 7.947 70.874 o
-11 0 2 99.156 96.938 8.196 70.161 o
-11 0 3 52.446 50.892 7.631 113.215 o
-11 0 4 246.853 267.755 20.184 15.352 o
-11 0 5 290.077 236.334 17.354 16.708 o
-11 0 6 278.131 316.325 21.698 12.909 o
-11 0 7 14.765 13.841 9.551 117.704 o
-11 0 8 21.972 27.776 12.166 72.111 o
-11 1 1 76.539 61.494 7.214 98.263 o
-11 1 2 8.582 0.231 6.266 276.545 o
-11 1 3 154.097 153.077 9.223 44.237 o
-11 1 4 117.731 117.062 11.631 45.326 o
-11 1 5 125.100 128.348 12.221 41.187 o
-11 1 6 29.029 22.323 10.078 97.312 o
-11 1 7 13.533 11.472 11.168 89.841 o
-11 1 8 2.607 3.928 11.621 88.517 o
-11 2 1 43.521 51.714 10.545 78.856 o
-11 2 2 20.726 12.216 8.806 131.147 o
-11 2 3 359.016 355.857 17.533 12.730 o
-11 2 4 92.516 64.987 10.104 64.548 o
-11 2 5 76.527 86.264 11.465 57.034 o
-11 2 6 6.699 10.168 15.071 52.107 o
-11 2 7 71.403 78.788 24.867 17.564 o
-11 3 1 132.216 96.762 17.976 26.424 o
-11 3 2 132.346 137.616 18.158 24.940 o
-11 3 3 315.878 314.090 29.415 8.703 o
-11 3 4 189.173 211.518 23.968 14.468 o
-11 3 5 124.204 125.951 23.151 17.899 o
-11 3 6 4.156 6.053 10.720 102.434 o
-11 3 7 31.069 29.726 11.922 71.875 o
-11 4 1 73.922 81.346 16.705 34.112 o
-11 4 2 226.885 279.227 29.778 9.728 o
-11 4 3 39.714 42.852 15.979 41.584 o
-11 4 4 69.438 30.505 16.523 37.187 o
-11 4 5 56.134 53.367 12.308 59.553 o
-11 4 6 7.134 15.287 11.938 80.768 o
-11 5 1 10.828 44.668 15.797 45.306 o
-11 5 2 71.830 52.839 17.613 32.470 o
-11 5 3 1.727 11.802 15.434 50.225 o
-11 5 4 1.091 15.434 15.797 47.856 o
-10 -12 1 186.191 181.376 26.873 12.595 o
-10 -11 1 179.440 193.908 23.968 14.878 o
-10 -11 2 111.609 117.297 11.615 46.398 o
-10 -11 3 36.190 34.273 10.519 85.272 o
-10 -10 1 75.743 65.761 7.864 90.331 o
-10 -10 2 24.450 45.787 11.712 73.636 o
-10 -10 3 3.615 5.796 8.547 158.944 o
-10 -10 4 2.984 13.025 10.964 97.074 o
-10 -9 1 182.993 159.950 22.334 16.762 o
-10 -9 2 72.071 59.399 8.126 91.190 o
-10 -9 3 0.267 10.348 7.364 212.881 o
-10 -9 4 18.276 31.865 10.072 100.423 o
-10 -9 5 2.091 -4.697 9.876 123.372 o
-10 -8 1 9.250 8.897 10.713 99.503 o
-10 -8 2 26.119 43.370 7.284 149.343 o
-10 -8 3 136.104 141.263 12.736 37.291 o
-10 -8 4 213.402 213.879 16.835 20.862 o
-10 -8 5 45.676 49.626 10.249 81.704 o
-10 -8 6 0.691 13.342 10.470 107.126 o
-10 -7 1 22.411 4.358 9.442 118.103 o
-10 -7 2 91.258 127.630 12.892 43.577 o
-10 -7 3 164.813 144.641 11.904 35.897 o
-10 -7 4 308.930 347.444 18.018 13.912 o
-10 -7 5 12.430 17.688 7.364 183.930 o
-10 -7 6 24.873 28.840 8.379 130.638 o
-10 -7 7 4.113 12.888 8.655 150.829 o
-10 -6 1 56.739 50.566 8.625 96.062 o
-10 -6 2 114.870 146.769 10.558 47.430 o
-10 -6 3 380.717 343.613 13.654 14.075 o
-10 -6 4 58.238 70.687 7.062 109.727 o
-10 -6 5 0.276 -7.938 6.201 315.322 o
-10 -6 6 36.126 50.471 7.995 119.949 o
-10 -6 7 83.818 72.502 9.352 71.692 o
-10 -6 8 86.618 99.045 18.148 28.610 o
-10 -5 1 105.447 118.586 10.753 51.185 o
-10 -5 2 360.015 382.028 18.567 11.931 o
-10 -5 3 687.698 662.584 18.650 5.546 o
-10 -5 4 18.202 23.792 6.258 215.826 o
-10 -5 5 13.751 16.200 6.407 228.214 o
-10 -5 6 110.465 143.791 11.090 46.413 o
-10 -5 7 295.186 351.776 39.947 5.725 o
-10 -5 8 27.256 24.758 12.710 65.893 o
-10 -4 1 424.915 460.250 11.895 11.819 o
-10 -4 2 671.938 625.420 17.139 5.978 o
-10 -4 3 386.029 404.137 13.624 13.034 o
-10 -4 4 1.630 3.200 4.996 455.947 o
-10 -4 5 80.588 77.620 8.414 79.788 o
-10 -4 6 185.813 170.557 16.459 23.956 o
-10 -4 7 361.795 372.872 19.297 11.676 o
-10 -4 8 5.543 4.030 9.071 140.883 o
-10 -4 9 58.884 59.645 11.530 63.973 o
-10 -3 1 1143.540 1170.080 20.549 2.390 o
-10 -3 2 818.295 743.175 14.713 4.632 o
-10 -3 3 247.863 234.636 9.553 26.819 o
-10 -3 4 2.449 8.336 4.488 512.853 o
-10 -3 5 126.558 132.077 9.776 49.657 o
-10 -3 6 436.132 413.732 18.862 9.992 o
-10 -3 7 177.726 192.594 28.780 11.386 o
-10 -3 8 64.471 50.039 10.133 75.788 o
-10 -3 9 1.978 1.507 9.674 128.060 o
-10 -2 1 302.606 292.592 8.373 21.622 o
-10 -2 2 109.399 115.396 6.314 74.090 o
-10 -2 3 69.479 55.886 4.687 141.537 o
-10 -2 4 214.340 223.524 10.112 29.683 o
-10 -2 5 258.382 255.749 12.887 21.744 o
-10 -2 6 214.845 217.825 12.962 25.753 o
-10 -2 7 5.288 3.409 7.932 182.422 o
-10 -2 8 1.145 -11.253 7.979 189.357 o
-10 -2 9 54.057 47.778 10.600 75.282 o
-10 -1 1 83.926 79.424 8.882 74.125 o
-10 -1 2 138.045 131.253 6.590 59.544 o
-10 -1 3 306.606 271.098 9.998 20.927 o
-10 -1 4 110.062 103.558 8.104 65.757 o
-10 -1 5 403.405 421.362 15.869 11.558 o
-10 -1 6 10.819 11.278 6.559 233.339 o
-10 -1 7 1.333 4.349 8.086 180.946 o
-10 -1 8 21.405 13.993 9.987 104.987 o
-10 -1 9 109.128 130.597 15.616 32.432 o
-10 -1 10 236.428 236.527 19.514 16.713 o
-10 0 1 330.377 343.221 16.116 14.418 o
-10 0 2 14.453 6.970 4.180 442.988 o
-10 0 3 299.036 325.740 15.769 15.947 o
-10 0 4 388.704 379.108 12.391 13.798 o
-10 0 5 302.464 285.136 14.002 17.835 o
-10 0 6 149.092 163.316 13.122 33.588 o
-10 0 7 0.424 4.603 7.700 200.325 o
-10 0 8 38.834 66.455 17.068 36.185 o
-10 0 9 232.946 207.790 18.453 18.359 o
-10 0 10 162.029 153.059 14.209 30.362 o
-10 1 1 127.052 146.339 9.526 49.052 o
-10 1 2 141.370 130.057 8.589 51.226 o
-10 1 3 120.617 116.154 7.089 65.475 o
-10 1 4 307.070 305.030 11.681 18.808 o
-10 1 5 84.404 86.859 10.761 59.466 o
-10 1 6 112.482 110.769 10.950 49.671 o
-10 1 7 8.443 9.802 8.281 160.306 o
-10 1 8 82.546 74.446 13.800 44.668 o
-10 1 9 200.193 182.054 16.361 22.974 o
-10 1 10 36.072 22.879 14.617 50.319 o
-10 2 1 106.446 110.673 8.294 64.686 o
-10 2 2 698.756 712.158 19.906 5.167 o
-10 2 3 176.944 160.023 9.207 39.904 o
-10 2 4 190.829 194.432 14.723 25.630 o
-10 2 5 43.087 26.026 8.898 107.585 o
-10 2 6 1.178 5.629 10.531 107.658 o
-10 2 7 89.445 84.251 16.705 32.795 o
-10 2 8 49.795 51.095 11.418 68.457 o
-10 2 9 131.107 138.927 14.060 34.245 o
-10 3 1 102.182 107.299 8.192 67.275 o
-10 3 2 650.550 665.056 23.260 5.342 o
-10 3 3 170.529 150.433 19.156 21.200 o
-10 3 4 48.071 62.325 11.621 65.686 o
-10 3 5 46.470 34.164 6.906 140.301 o
-10 3 6 92.053 76.189 11.033 57.254 o
-10 3 7 72.766 75.463 11.992 55.775 o
-10 3 8 55.704 41.783 10.599 75.757 o
-10 3 9 42.269 35.724 15.888 42.100 o
-10 4 1 115.698 93.448 10.252 54.075 o
-10 4 2 136.215 179.426 11.655 37.952 o
-10 4 3 163.506 146.297 24.694 15.090 o
-10 4 4 37.583 56.652 15.434 43.641 o
-10 4 5 14.007 3.950 16.160 45.079 o
-10 4 6 666.230 679.015 27.860 4.713 o
-10 4 7 132.800 129.584 13.909 34.965 o
-10 4 8 478.698 516.179 26.446 6.861 o
-10 5 1 138.999 151.961 19.792 21.556 o
-10 5 2 88.007 100.212 16.887 31.784 o
-10 5 3 16.736 26.692 14.708 52.120 o
-10 5 4 49.645 35.407 14.889 46.210 o
-10 5 5 75.909 65.787 11.813 57.249 o
-10 5 6 378.778 386.185 23.554 9.579 o
-10 5 7 59.952 49.711 12.294 59.224 o
-10 5 8 103.206 105.700 14.434 37.760 o
-10 6 1 8.200 29.234 16.887 40.845 o
-10 6 2 0.229 -1.271 15.071 53.564 o
-10 6 3 30.074 39.765 17.068 37.899 o
-10 6 4 65.694 42.670 17.068 35.040 o
-10 6 5 34.222 25.421 16.887 38.886 o
-10 6 6 28.784 43.770 13.160 59.811 o
-10 7 1 49.821 35.589 15.616 42.597 o
-10 7 2 0.413 12.892 16.160 45.954 o
-10 7 3 120.636 145.606 20.518 21.302 o
-10 7 4 153.505 155.048 20.700 19.664 o
-9 -13 1 156.228 159.501 39.311 6.990 o
-9 -12 1 11.412 26.075 9.034 127.527 o
-9 -12 2 60.956 65.257 11.597 62.250 o
-9 -12 3 8.298 22.165 10.685 97.362 o
-9 -11 1 39.584 42.690 8.498 111.184 o
-9 -11 2 0.312 -1.267 9.896 124.088 o
-9 -11 3 2.621 7.332 9.642 126.291 o
-9 -11 4 112.165 97.751 12.459 44.440 o
-9 -10 1 4.826 12.433 7.198 210.352 o
-9 -10 2 14.555 21.820 7.750 163.379 o
-9 -10 3 7.137 12.944 8.987 137.881 o
-9 -10 4 73.494 94.455 11.789 54.869 o
-9 -10 5 30.369 32.585 11.577 75.271 o
-9 -9 1 17.826 19.429 7.808 158.807 o
-9 -9 2 6.575 8.692 6.629 243.783 o
-9 -9 3 195.129 194.456 15.052 24.834 o
-9 -9 4 114.131 123.455 12.036 43.825 o
-9 -9 5 14.068 2.754 18.521 34.622 o
-9 -9 6 22.816 20.250 10.877 88.655 o
-9 -9 7 11.193 30.881 13.572 61.060 o
-9 -8 1 150.628 140.471 18.793 22.858 o
-9 -8 2 108.607 105.514 9.758 56.825 o
-9 -8 3 496.247 505.865 20.000 8.090 o
-9 -8 4 211.465 218.132 15.474 22.551 o
-9 -8 5 23.603 22.415 8.899 122.533 o
-9 -8 6 0.953 -6.689 10.078 119.261 o
-9 -8 7 150.102 220.079 21.015 18.285 o
-9 -7 1 149.019 163.037 17.068 25.290 o
-9 -7 2 350.392 363.063 17.340 12.949 o
-9 -7 3 1093.400 1090.740 32.259 2.303 o
-9 -7 4 95.561 99.897 10.010 59.492 o
-9 -7 5 10.891 9.588 8.116 163.236 o
-9 -7 6 95.347 100.503 15.606 34.973 o
-9 -7 7 299.027 339.309 16.616 15.172 o
-9 -7 8 64.743 76.997 11.555 60.225 o
-9 -6 1 245.559 229.494 18.702 17.258 o
-9 -6 2 580.039 590.474 25.148 5.905 o
-9 -6 3 106.021 85.738 8.616 66.993 o
-9 -6 4 12.188 7.052 6.193 258.612 o
-9 -6 5 15.800 1.963 5.518 306.004 o
-9 -6 6 198.224 222.275 13.151 26.550 o
-9 -6 7 226.408 220.671 13.958 23.536 o
-9 -6 8 105.626 103.016 11.051 51.324 o
-9 -6 9 194.408 193.337 16.772 22.405 o
-9 -5 1 841.114 809.557 26.410 3.677 o
-9 -5 2 766.164 752.607 19.437 4.636 o
-9 -5 3 102.465 98.725 7.004 76.459 o
-9 -5 4 4.167 6.001 4.623 481.578 o
-9 -5 5 53.999 48.717 6.268 136.902 o
-9 -5 6 230.779 255.926 13.303 22.954 o
-9 -5 7 66.120 72.789 7.795 94.514 o
-9 -5 8 72.481 85.586 13.064 48.881 o
-9 -5 9 23.013 38.792 27.055 16.082 o
-9 -5 10 17.967 4.358 19.247 31.887 o
-9 -4 1 506.480 508.269 12.034 9.531 o
-9 -4 2 607.782 631.562 19.494 6.263 o
-9 -4 3 4.921 1.231 3.745 714.826 o
-9 -4 4 51.271 38.635 5.635 160.640 o
-9 -4 5 281.158 319.480 12.986 18.777 o
-9 -4 6 205.286 206.393 12.238 28.037 o
-9 -4 7 6.872 8.306 14.708 54.741 o
-9 -4 8 14.351 14.181 7.722 169.835 o
-9 -4 9 112.475 116.696 11.951 44.947 o
-9 -4 10 130.487 149.299 16.251 28.532 o
-9 -3 1 50.099 43.385 3.380 216.191 o
-9 -3 2 288.288 292.167 8.997 22.134 o
-9 -3 3 197.706 184.168 6.948 39.441 o
-9 -3 4 215.411 220.441 8.978 31.388 o
-9 -3 5 836.275 874.145 19.610 3.928 o
-9 -3 6 171.498 168.532 12.846 31.707 o
-9 -3 7 108.431 128.656 10.673 49.932 o
-9 -3 8 0.457 15.043 7.632 194.463 o
-9 -3 9 58.816 55.678 9.568 82.620 o
-9 -3 10 173.420 133.510 12.117 35.012 o
-9 -2 1 11.162 7.823 2.745 766.319 o
-9 -2 2 35.812 37.971 4.632 223.155 o
-9 -2 3 144.470 154.927 6.727 53.918 o
-9 -2 4 571.297 543.241 19.467 7.074 o
-9 -2 5 699.495 684.344 18.964 5.345 o
-9 -2 6 553.811 470.653 15.905 8.360 o
-9 -2 7 128.713 120.170 9.276 52.521 o
-9 -2 8 0.734 1.327 13.164 69.938 o
-9 -2 9 228.193 226.693 16.826 19.886 o
-9 -2 10 145.647 155.868 14.371 31.305 o
-9 -2 11 166.083 158.122 15.831 26.627 o
-9 -1 1 6.482 8.713 2.767 894.761 o
-9 -1 2 695.636 713.101 14.012 5.669 o
-9 -1 3 63.004 63.575 4.348 150.466 o
-9 -1 4 480.793 514.062 13.170 9.732 o
-9 -1 5 7.442 10.771 5.277 348.612 o
-9 -1 6 128.626 109.701 8.066 59.250 o
-9 -1 7 72.294 62.307 7.063 102.586 o
-9 -1 8 60.387 52.357 11.076 68.232 o
-9 -1 9 351.977 413.164 21.789 10.450 o
-9 -1 10 79.052 50.225 9.486 76.403 o
-9 -1 11 154.916 182.654 16.142 25.991 o
-9 0 1 14.233 23.092 3.869 411.304 o
-9 0 2 587.873 501.480 12.290 8.216 o
-9 0 3 409.994 402.323 11.558 13.104 o
-9 0 4 376.687 387.010 11.502 14.405 o
-9 0 5 8.081 4.581 4.219 518.225 o
-9 0 6 9.954 13.899 5.698 290.703 o
-9 0 7 20.232 39.605 7.590 150.193 o
-9 0 8 125.209 155.090 26.510 14.108 o
-9 0 9 186.343 184.655 14.270 27.043 o
-9 0 10 69.146 70.287 10.576 67.145 o
-9 0 11 51.085 69.293 10.695 71.826 o
-9 1 1 16.632 18.827 4.240 371.465 o
-9 1 2 113.246 124.268 6.826 67.999 o
-9 1 3 32.708 30.954 4.559 245.995 o
-9 1 4 1.492 0.732 4.021 709.093 o
-9 1 5 2.657 -0.231 4.379 590.813 o
-9 1 6 111.777 108.442 8.235 63.668 o
-9 1 7 16.740 13.365 7.125 190.235 o
-9 1 8 274.676 277.350 16.673 17.063 o
-9 1 9 339.141 354.944 24.150 10.193 o
-9 1 10 71.071 58.166 10.144 71.994 o
-9 1 11 21.357 45.891 11.081 81.720 o
-9 2 1 199.827 205.381 9.309 33.507 o
-9 2 2 187.611 174.252 9.355 36.980 o
-9 2 3 305.528 328.438 10.806 18.878 o
-9 2 4 9.268 12.804 4.484 422.637 o
-9 2 5 3.742 8.080 4.672 466.999 o
-9 2 6 610.217 561.668 21.799 6.251 o
-9 2 7 29.570 30.283 7.940 136.041 o
-9 2 8 529.459 532.359 22.722 7.013 o
-9 2 9 196.397 176.329 16.277 23.466 o
-9 2 10 22.226 33.876 12.892 64.377 o
-9 2 11 245.820 278.377 20.015 15.360 o
-9 3 1 770.991 719.016 20.597 4.626 o
-9 3 2 713.484 729.036 19.404 5.050 o
-9 3 3 297.767 320.538 17.035 15.248 o
-9 3 4 33.466 44.413 5.413 193.281 o
-9 3 5 141.067 117.321 8.089 54.752 o
-9 3 6 531.741 535.181 17.709 7.892 o
-9 3 7 62.585 62.874 9.619 79.080 o
-9 3 8 118.898 125.507 13.858 36.817 o
-9 3 9 3.358 -2.738 8.937 149.028 o
-9 3 10 53.665 46.657 12.801 57.282 o
-9 3 11 272.853 307.617 37.940 6.420 o
-9 4 1 269.528 246.693 15.888 18.551 o
-9 4 2 315.370 329.673 13.772 16.545 o
-9 4 3 37.336 42.447 8.443 113.841 o
-9 4 4 96.042 105.506 7.822 72.210 o
-9 4 5 565.095 501.271 21.700 6.989 o
-9 4 6 118.777 134.783 9.650 51.534 o
-9 4 7 306.349 261.088 33.228 7.718 o
-9 4 8 45.543 42.307 15.979 41.042 o
-9 4 9 26.130 32.134 17.431 37.037 o
-9 4 10 176.362 145.613 15.323 27.294 o
-9 5 1 199.076 173.815 9.241 35.700 o
-9 5 2 11.681 31.957 12.347 72.364 o
-9 5 3 92.766 95.873 16.151 33.721 o
-9 5 4 337.856 342.943 30.777 7.879 o
-9 5 5 332.219 308.337 14.181 16.059 o
-9 5 6 66.066 70.543 7.793 95.218 o
-9 5 7 374.318 380.019 21.400 10.501 o
-9 5 8 48.611 70.672 11.737 63.559 o
-9 5 9 114.001 89.125 12.341 45.306 o
-9 5 10 147.948 149.801 15.177 29.554 o
-9 6 1 69.489 108.564 16.705 33.396 o
-9 6 2 12.282 20.155 12.347 73.753 o
-9 6 3 201.167 187.731 24.513 14.026 o
-9 6 4 259.555 254.733 26.692 10.994 o
-9 6 5 181.096 182.317 16.142 24.386 o
-9 6 6 3.712 14.218 10.082 113.138 o
-9 6 7 74.925 84.813 16.333 35.099 o
-9 6 8 88.743 79.601 15.425 37.176 o
-9 6 9 195.614 177.747 15.709 24.322 o
-9 7 1 6.909 -17.613 14.163 59.569 o
-9 7 2 95.847 76.080 17.068 31.581 o
-9 7 3 60.593 67.728 15.434 40.583 o
-9 7 4 55.063 28.326 15.252 44.153 o
-9 7 5 5.899 13.618 15.434 49.641 o
-9 7 6 44.421 55.392 13.800 51.678 o
-9 7 7 20.892 30.536 11.810 75.856 o
-9 7 8 197.607 182.680 35.770 7.910 o
-9 8 1 1.444 -7.263 13.255 68.978 o
-9 8 2 295.981 293.935 29.415 9.028 o
-9 8 3 188.559 238.209 28.871 10.899 o
-9 8 4 183.320 244.383 29.597 10.525 o
-9 8 5 12.281 23.605 16.160 44.301 o
-9 8 6 3.909 -21.971 15.434 50.652 o
-8 -13 1 41.078 55.997 10.803 76.246 o
-8 -13 2 77.459 72.911 12.047 54.741 o
-8 -12 1 188.562 205.955 16.748 22.415 o
-8 -12 2 38.336 27.909 9.990 92.765 o
-8 -12 3 5.604 10.503 10.202 110.626 o
-8 -12 4 41.039 34.761 11.813 69.517 o
-8 -11 1 19.272 6.709 7.237 186.928 o
-8 -11 2 29.309 13.079 8.246 137.101 o
-8 -11 3 97.277 87.730 10.883 55.598 o
-8 -11 4 12.445 10.046 9.942 112.121 o
-8 -11 5 18.289 31.270 12.324 70.989 o
-8 -10 1 75.985 50.115 9.442 78.019 o
-8 -10 2 77.788 73.998 9.048 76.165 o
-8 -10 3 297.122 331.458 18.269 14.320 o
-8 -10 4 42.340 45.591 9.606 91.897 o
-8 -10 5 18.417 23.000 10.209 100.311 o
-8 -10 6 11.981 12.277 11.904 80.182 o
-8 -9 1 137.872 148.063 10.987 41.916 o
-8 -9 2 105.580 86.356 8.401 68.412 o
-8 -9 3 327.796 371.032 48.753 4.082 o
-8 -9 4 115.426 125.280 11.621 45.069 o
-8 -9 5 28.339 30.842 8.676 120.412 o
-8 -9 6 0.026 1.766 9.551 132.729 o
-8 -9 7 53.356 47.664 13.353 53.606 o
-8 -8 1 1031.670 1026.190 29.077 2.610 o
-8 -8 2 860.400 837.536 25.656 3.586 o
-8 -8 3 246.080 253.448 14.112 21.248 o
-8 -8 4 22.923 21.567 8.012 145.508 o
-8 -8 5 2.381 -2.168 7.782 196.856 o
-8 -8 6 237.451 254.923 14.981 20.749 o
-8 -8 7 111.702 133.139 16.070 30.936 o
-8 -8 8 164.136 149.022 17.337 24.360 o
-8 -7 1 1535.430 1448.520 51.749 1.183 o
-8 -7 2 2752.210 2723.270 68.453 0.433 o
-8 -7 3 1082.420 1099.060 32.178 2.320 o
-8 -7 4 616.116 553.820 20.926 6.354 o
-8 -7 5 5.044 6.811 12.801 72.249 o
-8 -7 6 72.938 60.795 9.846 73.490 o
-8 -7 7 153.347 158.668 14.393 30.467 o
-8 -7 8 128.652 155.405 11.827 40.082 o
-8 -7 9 5.010 -8.548 9.514 130.576 o
-8 -6 1 286.440 290.816 10.501 21.164 o
-8 -6 2 917.907 933.597 22.040 3.353 o
-8 -6 3 1.073 -8.703 4.730 530.477 o
-8 -6 4 22.491 5.737 6.061 238.147 o
-8 -6 5 339.076 344.947 19.973 12.164 o
-8 -6 6 344.020 395.436 26.510 8.946 o
-8 -6 7 191.465 170.693 13.574 28.411 o
-8 -6 8 129.620 141.103 12.736 38.092 o
-8 -6 9 9.788 20.182 9.807 113.429 o
-8 -6 10 52.169 58.939 10.464 75.350 o
-8 -5 1 50.553 61.343 6.287 133.371 o
-8 -5 2 683.245 715.243 17.588 5.472 o
-8 -5 3 15.771 13.286 3.823 446.876 o
-8 -5 4 117.054 123.694 11.244 46.409 o
-8 -5 5 147.304 138.106 9.505 45.966 o
-8 -5 6 124.730 127.532 8.728 54.933 o
-8 -5 7 50.247 48.882 6.818 130.259 o
-8 -5 8 26.693 27.360 8.126 135.721 o
-8 -5 9 9.693 12.882 9.001 135.273 o
-8 -5 10 26.328 25.807 8.989 117.361 o
-8 -4 1 143.228 133.648 7.627 53.888 o
-8 -4 2 5.164 -0.577 3.034 1014.420 o
-8 -4 3 1.540 0.481 2.901 1298.830 o
-8 -4 4 383.725 347.909 13.550 13.960 o
-8 -4 5 66.824 72.049 9.022 81.317 o
-8 -4 6 237.770 253.235 11.878 24.222 o
-8 -4 7 3.823 2.202 6.127 302.770 o
-8 -4 8 29.229 20.892 7.459 154.392 o
-8 -4 9 118.179 139.553 11.386 44.341 o
-8 -4 10 124.463 127.502 11.095 45.380 o
-8 -4 11 164.089 156.863 25.239 14.482 o
-8 -3 1 4.099 1.716 2.255 1566.960 o
-8 -3 2 687.488 647.130 12.408 6.159 o
-8 -3 3 50.835 52.017 3.755 194.377 o
-8 -3 4 529.046 556.259 17.308 7.862 o
-8 -3 5 71.823 81.641 7.126 95.872 o
-8 -3 6 472.870 466.954 15.307 9.834 o
-8 -3 7 31.267 32.944 7.006 157.095 o
-8 -3 8 11.795 12.214 7.085 202.270 o
-8 -3 9 370.115 426.126 18.807 11.145 o
-8 -3 10 64.041 66.739 18.966 28.728 o
-8 -3 11 172.683 162.685 46.393 5.138 o
-8 -2 1 18.369 27.179 2.845 459.710 o
-8 -2 2 1087.390 1091.680 21.153 2.609 o
-8 -2 3 573.058 603.149 12.225 7.721 o
-8 -2 4 440.783 430.543 10.222 12.232 o
-8 -2 5 316.613 324.453 9.149 19.401 o
-8 -2 6 4.625 7.588 5.424 357.852 o
-8 -2 7 20.846 11.678 5.425 272.894 o
-8 -2 8 289.182 288.760 15.660 17.075 o
-8 -2 9 397.283 389.234 18.153 11.214 o
-8 -2 10 361.734 368.199 22.152 10.527 o
-8 -2 11 76.190 80.300 9.316 73.325 o
-8 -2 12 0.548 2.724 20.155 29.890 o
-8 -1 1 2.277 2.973 2.415 1547.660 o
-8 -1 2 939.332 970.440 18.770 3.327 o
-8 -1 3 1982.980 1939.250 31.646 0.901 o
-8 -1 4 201.872 204.837 7.853 35.740 o
-8 -1 5 1056.130 1058.720 21.637 2.724 o
-8 -1 6 87.597 118.570 7.548 74.852 o
-8 -1 7 110.574 107.412 7.847 66.399 o
-8 -1 8 431.057 409.389 25.239 8.203 o
-8 -1 9 721.585 764.821 25.936 4.361 o
-8 -1 10 448.030 400.157 22.697 8.766 o
-8 -1 11 3.865 -1.842 9.079 144.034 o
-8 -1 12 1.356 9.805 19.247 32.560 o
-8 0 1 299.668 309.657 7.706 21.676 o
-8 0 2 751.856 743.729 14.045 5.111 o
-8 0 3 932.133 1036.520 20.617 3.171 o
-8 0 4 74.181 85.245 5.762 107.906 o
-8 0 5 13.567 11.795 3.849 473.547 o
-8 0 6 459.622 379.180 11.355 12.115 o
-8 0 7 3.990 -4.147 5.201 416.742 o
-8 0 8 338.471 424.301 24.876 9.410 o
-8 0 9 212.741 183.801 14.037 25.551 o
-8 0 10 3.911 0.908 8.716 155.417 o
-8 0 11 160.039 155.634 14.223 30.394 o
-8 0 12 64.776 63.953 9.614 78.061 o
-8 1 1 590.778 596.463 13.217 7.417 o
-8 1 2 1256.240 1325.750 25.256 1.938 o
-8 1 3 610.448 598.317 14.218 7.052 o
-8 1 4 99.531 100.942 8.961 64.483 o
-8 1 5 73.907 77.414 5.562 113.654 o
-8 1 6 118.155 118.108 7.536 63.732 o
-8 1 7 148.226 158.028 10.681 40.519 o
-8 1 8 230.327 254.884 14.790 21.331 o
-8 1 9 10.626 14.725 6.886 211.895 o
-8 1 10 57.530 62.038 10.622 71.584 o
-8 1 11 364.882 410.303 20.140 10.888 o
-8 1 12 159.180 182.456 15.517 26.849 o
-8 2 1 53.540 41.483 3.906 196.573 o
-8 2 2 62.693 75.396 5.377 127.770 o
-8 2 3 523.271 499.639 12.513 9.225 o
-8 2 4 138.135 150.312 7.606 53.150 o
-8 2 5 630.753 654.553 15.599 6.384 o
-8 2 6 8.869 20.062 4.587 385.197 o
-8 2 7 738.233 745.981 24.788 4.415 o
-8 2 8 226.643 250.443 14.790 21.650 o
-8 2 9 0.805 0.913 7.354 222.308 o
-8 2 10 132.213 136.982 12.652 38.281 o
-8 2 11 313.885 344.528 27.872 9.130 o
-8 2 12 405.242 439.293 21.805 9.368 o
-8 3 1 881.166 868.185 20.734 3.686 o
-8 3 2 329.219 327.437 11.007 17.652 o
-8 3 3 104.238 89.021 8.197 69.745 o
-8 3 4 438.389 470.990 11.338 11.500 o
-8 3 5 551.335 531.391 12.509 8.509 o
-8 3 6 35.182 36.658 4.925 215.504 o
-8 3 7 802.204 829.120 27.681 3.719 o
-8 3 8 31.500 34.242 7.809 135.299 o
-8 3 9 175.717 159.405 18.884 21.167 o
-8 3 10 137.299 130.931 11.756 40.812 o
-8 3 11 244.599 252.671 18.430 17.128 o
-8 3 12 223.034 225.248 36.034 7.517 o
-8 4 1 770.604 743.711 30.118 3.858 o
-8 4 2 11.849 16.910 4.228 416.046 o
-8 4 3 239.330 213.088 8.707 29.626 o
-8 4 4 1500.180 1506.390 29.456 1.442 o
-8 4 5 679.713 663.010 18.204 5.650 o
-8 4 6 346.753 359.944 13.329 15.077 o
-8 4 7 234.835 217.345 15.037 21.820 o
-8 4 8 96.418 112.063 15.888 33.520 o
-8 4 9 236.550 230.222 16.793 19.469 o
-8 4 10 130.056 147.251 13.738 34.804 o
-8 4 11 27.942 22.090 9.737 103.519 o
-8 4 12 65.562 91.292 11.686 57.533 o
-8 5 1 98.680 74.690 17.967 29.065 o
-8 5 2 201.676 191.430 17.613 20.979 o
-8 5 3 496.875 495.241 17.271 8.747 o
-8 5 4 597.545 656.658 31.040 4.804 o
-8 5 5 283.386 277.639 13.488 19.281 o
-8 5 6 107.071 130.752 10.537 50.596 o
-8 5 7 3.619 7.853 6.510 261.855 o
-8 5 8 263.842 292.627 18.226 15.962 o
-8 5 9 50.257 44.782 9.771 86.348 o
-8 5 10 73.982 83.118 11.142 60.050 o
-8 5 11 5.786 6.245 9.836 119.801 o
-8 6 2 475.963 476.401 19.973 8.569 o
-8 6 3 217.213 217.147 13.800 24.451 o
-8 6 4 251.873 255.096 16.342 18.710 o
-8 6 5 6.737 7.899 6.571 248.223 o
-8 6 6 15.965 46.302 9.987 99.300 o
-8 6 7 329.871 319.264 20.607 12.333 o
-8 6 8 349.353 342.034 22.243 10.940 o
-8 6 9 208.693 202.266 33.410 8.680 o
-8 6 10 177.271 195.698 17.394 22.348 o
-8 6 11 25.258 24.320 11.036 84.781 o
-8 7 1 42.008 44.849 13.981 51.762 o
-8 7 2 209.317 211.863 14.256 24.516 o
-8 7 3 310.391 299.202 39.402 5.898 o
-8 7 4 97.220 80.677 8.152 74.315 o
-8 7 5 21.101 27.739 7.312 165.133 o
-8 7 6 21.211 29.986 11.005 85.644 o
-8 7 7 480.719 453.522 27.046 7.006 o
-8 7 8 165.286 161.338 14.598 28.943 o
-8 7 9 143.036 124.561 13.611 34.979 o
-8 7 10 8.575 12.684 11.349 88.806 o
-8 8 1 61.669 42.489 14.708 45.200 o
-8 8 2 8.813 11.621 13.618 62.891 o
-8 8 3 87.657 72.345 7.275 87.943 o
-8 8 4 3.857 -3.995 11.984 83.546 o
-8 8 5 0.375 6.537 12.710 74.441 o
-8 8 6 91.395 58.467 15.616 37.266 o
-8 8 7 253.241 220.526 18.513 17.318 o
-8 8 8 10.579 -2.832 11.062 94.970 o
-8 8 9 15.697 14.391 11.465 84.326 o
-8 9 1 117.693 120.003 17.976 26.588 o
-8 9 2 11.416 29.052 14.889 51.488 o
-8 9 3 138.324 138.161 18.158 24.610 o
-8 9 4 35.380 58.104 15.434 43.803 o
-8 9 5 3.259 -13.991 7.614 203.776 o
-8 9 6 144.122 156.319 21.426 19.021 o
-8 9 7 360.308 358.394 33.410 6.878 o
-7 -14 1 119.659 120.911 19.247 23.985 o
-7 -13 1 65.937 75.717 15.797 38.206 o
-7 -13 2 3.289 9.079 14.708 55.184 o
-7 -13 3 66.513 60.806 12.583 54.841 o
-7 -12 1 135.205 101.220 13.064 38.840 o
-7 -12 2 23.944 11.720 8.369 139.738 o
-7 -12 3 100.436 117.896 17.431 28.914 o
-7 -12 4 28.910 35.770 11.299 78.307 o
-7 -11 2 136.582 141.468 13.009 36.439 o
-7 -11 3 115.969 121.922 11.451 45.925 o
-7 -11 4 228.633 232.313 18.455 18.056 o
-7 -11 5 50.794 62.346 12.386 59.180 o
-7 -11 6 0.975 11.348 17.976 37.253 o
-7 -10 1 291.751 288.898 14.290 18.002 o
-7 -10 2 363.429 413.268 17.650 11.887 o
-7 -10 3 135.188 178.834 19.973 20.902 o
-7 -10 4 53.679 52.535 8.937 93.160 o
-7 -10 5 2.097 9.896 9.244 136.326 o
-7 -10 6 56.669 82.394 12.975 52.306 o
-7 -10 7 35.141 40.976 13.993 53.050 o
-7 -9 1 473.033 480.384 20.427 8.473 o
-7 -9 2 749.546 751.599 24.241 4.383 o
-7 -9 3 102.885 107.117 7.434 71.742 o
-7 -9 4 49.313 40.388 6.366 145.289 o
-7 -9 5 98.420 100.238 9.499 61.672 o
-7 -9 6 150.440 168.996 12.717 34.131 o
-7 -9 7 138.116 149.298 15.343 29.981 o
-7 -9 8 161.712 168.546 17.295 24.028 o
-7 -8 1 39.768 49.679 7.717 122.511 o
-7 -8 2 992.156 1015.600 29.441 2.711 o
-7 -8 3 2.673 -1.615 5.401 397.606 o
-7 -8 4 5.218 -5.255 6.276 288.386 o
-7 -8 5 112.239 98.837 7.692 68.220 o
-7 -8 6 80.949 81.986 7.936 82.873 o
-7 -8 7 189.429 193.300 16.021 23.758 o
-7 -8 8 108.003 112.377 21.244 21.244 o
-7 -8 9 48.146 49.752 20.337 26.500 o
-7 -7 1 270.669 242.627 9.701 24.517 o
-7 -7 2 557.901 566.994 18.681 7.216 o
-7 -7 3 202.757 227.185 12.487 27.010 o
-7 -7 4 248.188 266.184 27.500 10.654 o
-7 -7 5 190.633 234.015 14.764 24.285 o
-7 -7 6 395.316 355.723 32.593 6.835 o
-7 -7 7 83.270 97.941 13.541 44.094 o
-7 -7 8 75.132 74.278 8.215 84.907 o
-7 -7 9 7.988 21.414 15.071 51.237 o
-7 -7 10 1.560 -8.352 20.155 29.904 o
-7 -6 1 445.201 427.534 12.016 11.688 o
-7 -6 2 708.723 743.525 18.197 5.130 o
-7 -6 3 680.336 563.251 15.301 6.376 o
-7 -6 4 45.354 42.259 6.287 150.931 o
-7 -6 5 265.733 278.275 26.683 10.733 o
-7 -6 6 1117.920 1165.580 39.756 1.990 o
-7 -6 7 274.002 229.715 17.424 17.358 o
-7 -6 8 67.228 65.242 9.873 74.491 o
-7 -6 9 25.429 41.519 8.159 129.549 o
-7 -6 10 62.394 68.872 9.624 77.937 o
-7 -6 11 148.704 120.367 24.694 15.680 o
-7 -5 1 3.179 4.485 3.750 715.953 o
-7 -5 2 668.643 677.441 16.526 5.840 o
-7 -5 3 44.543 39.761 4.923 190.460 o
-7 -5 4 316.446 319.063 15.424 15.674 o
-7 -5 5 179.811 157.858 11.834 33.585 o
-7 -5 6 288.037 261.240 16.242 17.203 o
-7 -5 7 30.550 22.184 7.668 146.198 o
-7 -5 8 10.933 14.188 6.132 255.457 o
-7 -5 9 186.326 208.514 22.425 15.928 o
-7 -5 10 185.270 195.127 13.770 27.587 o
-7 -5 11 186.031 187.187 26.873 12.551 o
-7 -4 1 10.941 14.241 2.969 644.449 o
-7 -4 2 330.930 286.663 9.202 19.619 o
-7 -4 3 424.339 477.504 13.101 11.295 o
-7 -4 4 66.080 49.469 4.806 148.387 o
-7 -4 5 85.250 81.970 5.527 103.086 o
-7 -4 6 57.068 39.595 5.260 159.724 o
-7 -4 7 60.477 41.587 6.233 134.323 o
-7 -4 8 106.192 83.338 9.714 60.590 o
-7 -4 9 299.678 310.356 15.205 16.584 o
-7 -4 10 333.817 377.097 20.518 11.675 o
-7 -4 11 108.808 116.707 13.981 38.044 o
-7 -4 12 38.136 21.426 21.608 24.541 o
-7 -3 1 0.393 2.263 2.412 1833.870 o
-7 -3 2 451.417 404.228 8.552 12.702 o
-7 -3 3 1810.520 1845.380 33.359 1.019 o
-7 -3 4 49.719 54.700 4.154 184.599 o
-7 -3 5 527.185 516.996 12.554 9.004 o
-7 -3 6 130.520 119.093 6.901 62.544 o
-7 -3 7 385.522 330.306 14.261 13.861 o
-7 -3 8 362.442 381.516 15.741 13.125 o
-7 -3 9 286.077 317.250 15.063 17.077 o
-7 -3 10 400.565 397.826 17.536 11.283 o
-7 -3 11 11.421 26.501 15.343 48.812 o
-7 -3 12 15.697 23.242 19.973 29.368 o
-7 -2 1 27.068 22.962 2.382 432.170 o
-7 -2 2 382.317 386.652 8.266 15.373 o
-7 -2 3 837.721 870.287 15.630 4.117 o
-7 -2 4 439.961 429.678 9.670 12.403 o
-7 -2 5 0.452 -0.536 2.675 1644.900 o
-7 -2 6 1.824 2.514 3.390 925.456 o
-7 -2 7 8.173 4.637 4.352 492.976 o
-7 -2 8 308.730 378.681 15.568 14.846 o
-7 -2 9 527.332 507.054 19.003 7.887 o
-7 -2 10 11.360 3.943 6.083 274.376 o
-7 -2 11 55.854 62.540 8.020 101.054 o
-7 -2 12 60.657 56.470 19.973 26.670 o
-7 -1 1 16.240 21.121 2.657 545.816 o
-7 -1 2 2631.330 2884.080 44.701 0.487 o
-7 -1 3 342.226 354.494 9.293 17.323 o
-7 -1 4 129.444 142.140 5.633 64.257 o
-7 -1 5 110.699 97.653 5.960 79.668 o
-7 -1 6 8.240 15.884 3.672 541.715 o
-7 -1 7 777.281 724.099 19.237 4.669 o
-7 -1 8 618.686 626.809 18.048 6.361 o
-7 -1 9 219.046 263.252 13.444 23.294 o
-7 -1 10 0.517 -4.071 8.352 173.791 o
-7 -1 11 114.665 121.474 11.407 46.363 o
-7 -1 12 129.561 123.436 11.210 44.442 o
-7 -1 13 97.111 94.946 22.697 19.673 o
-7 0 1 1783.430 1911.060 33.857 1.013 o
-7 0 2 1331.060 1397.270 23.087 1.794 o
-7 0 3 222.242 251.883 7.651 30.672 o
-7 0 4 46.203 54.700 4.036 194.977 o
-7 0 5 389.210 413.973 10.919 13.771 o
-7 0 6 69.848 54.975 4.600 142.989 o
-7 0 7 2146.110 2057.060 38.160 0.771 o
-7 0 8 863.583 869.919 22.579 3.668 o
-7 0 9 55.726 37.323 6.708 132.691 o
-7 0 10 2.793 4.873 5.901 323.242 o
-7 0 11 124.442 111.139 10.742 48.237 o
-7 0 12 330.166 379.728 21.608 11.227 o
-7 0 13 281.136 322.624 40.491 5.737 o
-7 1 1 2744.540 2823.220 57.052 0.449 o
-7 1 2 1242.410 1303.720 24.452 1.992 o
-7 1 3 13.284 17.812 2.964 572.110 o
-7 1 4 966.608 943.185 22.221 3.156 o
-7 1 5 738.653 715.559 15.851 5.191 o
-7 1 6 331.216 341.733 10.298 17.622 o
-7 1 7 1320.840 1354.120 26.855 1.792 o
-7 1 8 0.819 0.122 4.677 544.639 o
-7 1 9 215.180 152.166 11.618 30.647 o
-7 1 10 272.770 300.546 15.229 17.831 o
-7 1 11 194.214 162.954 17.885 21.632 o
-7 1 12 330.088 335.277 16.807 14.164 o
-7 1 13 148.984 190.092 27.236 12.853 o
-7 2 1 2904.940 3251.170 58.282 0.386 o
-7 2 2 16.031 14.478 3.881 431.762 o
-7 2 3 23.518 31.017 4.246 298.209 o
-7 2 4 937.962 884.254 16.383 3.586 o
-7 2 5 743.930 806.433 15.467 4.863 o
-7 2 6 999.996 959.117 20.294 3.083 o
-7 2 7 532.619 537.656 13.991 8.513 o
-7 2 8 1.530 -1.083 5.625 374.946 o
-7 2 9 89.091 102.032 9.244 65.784 o
-7 2 10 137.377 162.910 12.544 36.391 o
-7 2 11 89.170 97.028 9.433 65.295 o
-7 2 12 148.603 180.012 13.326 32.319 o
-7 2 13 73.769 104.206 21.426 22.282 o
-7 3 1 78.500 67.723 4.543 126.011 o
-7 3 2 466.336 504.501 12.511 10.243 o
-7 3 3 78.750 66.367 4.331 128.995 o
-7 3 4 11.744 16.905 3.307 547.021 o
-7 3 5 44.767 55.153 4.165 194.374 o
-7 3 6 2.082 2.708 3.228 991.816 o
-7 3 7 74.066 64.738 4.986 126.770 o
-7 3 8 228.527 223.427 13.436 23.974 o
-7 3 9 37.849 49.391 7.678 125.061 o
-7 3 10 211.707 194.086 16.887 21.360 o
-7 3 11 68.293 68.961 9.039 81.183 o
-7 3 12 106.257 86.996 10.371 56.402 o
-7 3 13 7.547 -2.552 12.892 71.472 o
-7 4 1 86.502 93.413 9.770 64.408 o
-7 4 2 229.587 235.564 11.142 26.387 o
-7 4 3 898.758 884.088 16.671 3.746 o
-7 4 4 326.367 309.555 8.756 19.496 o
-7 4 5 372.792 362.843 9.722 15.683 o
-7 4 6 83.065 91.969 5.680 99.612 o
-7 4 7 435.140 459.076 12.624 11.388 o
-7 4 8 254.318 255.348 11.597 23.326 o
-7 4 9 319.267 312.861 12.723 17.387 o
-7 4 10 151.501 154.771 11.987 36.682 o
-7 4 11 34.935 28.783 7.825 134.232 o
-7 4 12 0.022 -4.454 7.890 195.518 o
-7 4 13 1.241 -7.737 8.412 170.423 o
-7 5 1 20.992 30.665 3.700 349.980 o
-7 5 2 409.484 391.214 12.058 13.114 o
-7 5 3 908.849 843.934 18.288 3.726 o
-7 5 4 994.335 1055.350 21.917 2.899 o
-7 5 5 300.163 281.383 13.210 18.610 o
-7 5 6 0.769 3.241 4.548 554.137 o
-7 5 7 743.624 719.784 19.855 4.847 o
-7 5 8 307.406 316.580 17.046 14.997 o
-7 5 9 469.318 439.304 23.060 8.139 o
-7 5 10 13.906 19.990 8.369 145.685 o
-7 5 11 17.495 15.595 8.563 138.869 o
-7 5 12 133.683 131.060 11.958 40.663 o
-7 6 1 607.495 606.044 14.062 7.059 o
-7 6 2 110.426 98.391 7.085 72.646 o
-7 6 3 1062.700 1050.090 29.368 2.498 o
-7 6 4 147.357 167.529 9.312 43.888 o
-7 6 5 10.950 11.043 4.972 359.287 o
-7 6 6 309.562 290.480 15.230 16.569 o
-7 6 7 716.420 739.594 20.717 4.889 o
-7 6 8 308.869 306.533 18.360 14.284 o
-7 6 9 290.815 264.925 17.140 16.341 o
-7 6 10 22.108 17.830 8.682 130.630 o
-7 6 11 45.001 56.494 10.449 78.484 o
-7 6 12 121.286 107.656 12.279 43.023 o
-7 7 1 339.911 349.497 25.421 9.709 o
-7 7 2 145.023 137.601 6.754 56.002 o
-7 7 3 253.331 259.428 12.959 21.859 o
-7 7 4 129.271 143.720 10.338 45.898 o
-7 7 5 19.969 25.769 9.540 110.704 o
-7 7 6 237.134 249.622 14.550 21.369 o
-7 7 7 514.193 531.763 18.477 7.999 o
-7 7 8 313.957 314.630 27.146 9.603 o
-7 7 9 110.337 113.648 18.339 26.416 o
-7 7 10 9.047 21.291 10.335 103.299 o
-7 7 11 90.055 88.948 12.974 46.284 o
-7 8 1 113.636 115.282 15.616 32.697 o
-7 8 2 54.116 49.109 4.984 162.959 o
-7 8 3 39.774 42.323 5.515 179.870 o
-7 8 4 11.713 12.682 7.354 189.755 o
-7 8 5 55.124 84.346 18.512 29.936 o
-7 8 6 126.041 118.198 15.343 32.249 o
-7 8 7 350.687 375.934 15.570 13.609 o
-7 8 8 290.381 261.698 29.043 9.426 o
-7 8 9 4.960 7.029 10.133 113.434 o
-7 8 10 13.917 24.222 10.543 96.652 o
-7 9 1 55.086 51.204 12.710 57.177 o
-7 9 2 42.809 51.568 14.345 49.010 o
-7 9 3 1.397 1.217 5.007 465.552 o
-7 9 4 6.914 4.514 10.078 114.223 o
-7 9 5 15.111 8.607 7.521 180.522 o
-7 9 6 8.473 2.542 13.981 60.617 o
-7 9 7 5.078 8.598 15.797 47.796 o
-7 9 8 86.008 49.836 10.992 62.228 o
-7 9 9 40.666 24.150 10.913 80.712 o
-7 10 1 15.116 6.355 14.163 57.745 o
-7 10 2 22.443 36.497 14.889 49.575 o
-7 10 3 40.188 22.334 14.889 48.212 o
-7 10 4 119.048 124.516 12.357 41.840 o
-7 10 5 88.391 91.339 9.564 65.536 o
-7 10 6 110.289 140.680 13.800 37.112 o
-7 10 7 9.507 21.688 9.586 117.826 o
-6 -14 1 18.907 12.892 14.889 51.565 o
-6 -13 1 7.409 0.363 12.166 80.011 o
-6 -13 2 21.155 19.792 14.345 54.441 o
-6 -13 3 10.413 34.318 15.979 44.913 o
-6 -12 1 123.649 100.342 11.975 44.378 o
-6 -12 2 274.194 234.941 24.513 12.139 o
-6 -12 3 44.803 51.204 14.708 46.781 o
-6 -12 4 80.069 73.615 11.553 57.108 o
-6 -12 5 5.002 2.220 11.872 84.382 o
-6 -11 1 221.663 228.586 20.518 16.399 o
-6 -11 2 737.188 830.256 39.220 3.187 o
-6 -11 4 157.566 155.928 14.397 30.215 o
-6 -11 5 2.645 14.622 10.207 111.035 o
-6 -11 6 26.196 14.353 11.963 74.967 o
-6 -10 1 22.432 13.618 8.716 131.336 o
-6 -10 2 1581.630 1606.420 62.281 0.991 o
-6 -10 3 326.976 344.231 24.694 10.236 o
-6 -10 4 9.025 4.614 7.542 192.889 o
-6 -10 5 0.633 -4.238 8.520 166.905 o
-6 -10 6 109.096 112.857 13.417 40.182 o
-6 -10 7 133.986 146.039 16.241 28.422 o
-6 -10 8 87.504 83.219 16.110 34.826 o
-6 -9 1 179.957 193.185 9.181 37.094 o
-6 -9 2 390.255 391.901 15.938 12.190 o
-6 -9 3 615.823 629.335 17.588 6.431 o
-6 -9 4 3.662 7.255 5.780 325.723 o
-6 -9 5 34.835 40.376 6.795 153.290 o
-6 -9 6 230.359 235.901 14.023 22.747 o
-6 -9 7 41.405 39.686 8.092 118.231 o
-6 -9 8 54.486 51.946 13.288 53.447 o
-6 -9 9 0.107 26.147 20.700 27.935 o
-6 -8 1 70.427 78.387 14.699 42.007 o
-6 -8 2 10.795 14.503 3.753 504.081 o
-6 -8 3 378.717 372.124 10.481 14.991 o
-6 -8 4 36.108 40.789 6.447 160.580 o
-6 -8 5 14.890 10.265 5.104 326.583 o
-6 -8 6 305.332 320.229 16.870 15.116 o
-6 -8 7 16.051 15.497 7.676 168.215 o
-6 -8 8 6.127 10.525 12.684 72.827 o
-6 -8 9 41.739 19.792 18.339 33.141 o
-6 -8 10 53.393 64.641 22.515 21.659 o
-6 -7 1 41.037 41.980 4.057 223.439 o
-6 -7 2 427.003 421.627 12.376 12.118 o
-6 -7 3 41.037 37.162 4.564 212.842 o
-6 -7 4 3.208 -4.282 4.854 481.312 o
-6 -7 5 186.650 194.522 10.060 34.367 o
-6 -7 6 22.185 23.689 7.299 166.901 o
-6 -7 7 168.614 165.479 11.403 35.413 o
-6 -7 8 1.041 -8.647 6.357 297.120 o
-6 -7 9 7.017 6.718 16.342 44.630 o
-6 -7 10 90.694 85.897 9.482 66.222 o
-6 -6 1 224.049 216.461 7.910 32.134 o
-6 -6 2 439.952 397.800 11.488 12.351 o
-6 -6 3 890.190 889.759 21.093 3.587 o
-6 -6 4 124.290 116.604 7.605 61.681 o
-6 -6 5 533.234 517.229 32.392 5.388 o
-6 -6 6 26.537 24.971 7.717 147.827 o
-6 -6 7 235.808 211.822 10.948 27.103 o
-6 -6 8 159.669 144.477 11.312 38.101 o
-6 -6 9 431.815 413.277 29.708 7.015 o
-6 -6 10 382.290 379.176 17.619 11.859 o
-6 -6 11 88.552 81.528 22.334 20.668 o
-6 -5 1 66.894 69.598 6.308 113.577 o
-6 -5 2 73.199 68.741 5.246 122.225 o
-6 -5 3 2494.930 2504.830 51.048 0.548 o
-6 -5 4 1318.280 1311.250 29.133 1.793 o
-6 -5 5 1784.870 1656.060 36.148 1.081 o
-6 -5 6 809.472 811.910 26.640 3.790 o
-6 -5 7 1051.770 991.985 31.777 2.514 o
-6 -5 8 84.181 102.102 9.095 68.377 o
-6 -5 9 556.490 553.244 15.315 7.851 o
-6 -5 10 474.158 463.762 19.081 8.906 o
-6 -5 11 13.894 27.055 18.702 33.313 o
-6 -5 12 29.145 -0.908 21.426 25.587 o
-6 -4 1 55.938 41.845 4.988 165.802 o
-6 -4 2 1024.200 1037.050 27.976 2.651 o
-6 -4 3 586.294 660.220 16.132 6.750 o
-6 -4 4 724.447 679.656 17.130 5.332 o
-6 -4 5 81.825 75.227 7.519 87.988 o
-6 -4 6 17.499 14.408 4.189 385.994 o
-6 -4 7 109.982 125.078 7.924 63.260 o
-6 -4 8 568.667 582.573 19.795 6.842 o
-6 -4 9 611.630 624.924 21.396 6.017 o
-6 -4 10 181.340 168.132 8.312 40.653 o
-6 -4 11 5.891 -8.716 15.252 51.615 o
-6 -4 12 0.426 -1.997 17.794 38.415 o
-6 -3 1 190.148 164.374 10.169 35.580 o
-6 -3 2 2764.900 3001.400 63.311 0.418 o
-6 -3 3 965.427 937.577 21.698 3.189 o
-6 -3 4 758.439 765.976 18.499 4.706 o
-6 -3 5 138.870 144.969 7.338 54.596 o
-6 -3 6 695.398 684.018 15.240 5.697 o
-6 -3 7 1062.370 1109.440 31.413 2.373 o
-6 -3 8 89.111 101.679 8.489 70.972 o
-6 -3 9 77.355 78.785 8.262 82.345 o
-6 -3 10 5.130 3.995 5.596 345.932 o
-6 -3 11 0.130 5.810 7.825 193.610 o
-6 -3 12 41.072 49.752 18.884 30.635 o
-6 -3 13 47.177 16.523 21.971 23.580 o
-6 -2 1 713.696 682.242 26.567 4.567 o
-6 -2 2 350.324 307.015 6.784 19.203 o
-6 -2 3 28.443 15.372 2.278 465.363 o
-6 -2 4 132.209 167.381 5.450 59.764 o
-6 -2 5 2.628 1.781 2.361 1629.400 o
-6 -2 6 3.135 5.299 2.935 1035.640 o
-6 -2 7 973.980 1016.830 20.797 3.058 o
-6 -2 8 439.109 441.554 16.239 10.469 o
-6 -2 9 25.032 17.965 4.945 275.995 o
-6 -2 10 0.865 -0.877 5.145 451.859 o
-6 -2 11 107.828 97.775 9.618 58.761 o
-6 -2 12 190.539 253.825 33.228 8.693 o
-6 -2 13 243.374 265.083 38.131 6.643 o
-6 -1 1 2184.400 2401.270 37.076 0.694 o
-6 -1 2 431.587 384.586 7.883 13.770 o
-6 -1 3 50.828 42.375 3.004 225.146 o
-6 -1 4 975.382 969.678 17.139 3.247 o
-6 -1 5 37.126 39.324 5.114 200.907 o
-6 -1 6 423.686 456.156 11.320 12.058 o
-6 -1 7 1444.010 1479.370 28.292 1.532 o
-6 -1 8 25.249 29.760 4.668 268.818 o
-6 -1 9 3.069 1.482 4.278 597.936 o
-6 -1 10 156.388 181.871 11.028 36.812 o
-6 -1 11 127.501 127.143 9.675 50.378 o
-6 -1 12 320.647 371.105 36.134 6.414 o
-6 -1 13 114.776 119.822 23.423 17.891 o
-6 0 1 2492.200 2932.230 44.879 0.512 o
-6 0 2 69.988 71.281 4.550 133.451 o
-6 0 3 43.287 36.928 2.763 267.783 o
-6 0 4 1250.220 1202.850 23.228 2.088 o
-6 0 5 593.769 643.070 13.967 7.015 o
-6 0 6 1920.860 1970.660 35.928 0.906 o
-6 0 7 341.061 336.529 10.069 17.410 o
-6 0 8 0.908 0.764 3.800 804.311 o
-6 0 9 45.281 43.559 5.419 171.710 o
-6 0 10 556.867 584.801 19.813 6.951 o
-6 0 11 296.732 252.151 13.268 19.433 o
-6 0 12 487.869 497.077 18.250 8.651 o
-6 0 13 170.518 228.586 28.507 11.411 o
-6 0 14 0.017 5.992 19.429 32.109 o
-6 1 1 1815.640 1864.580 32.854 1.013 o
-6 1 2 128.676 139.462 7.758 56.431 o
-6 1 3 629.897 593.902 11.255 7.162 o
-6 1 4 1616.390 1676.980 39.729 1.165 o
-6 1 5 1453.390 1522.010 34.356 1.430 o
-6 1 6 2442.080 2483.860 44.481 0.581 o
-6 1 7 49.831 43.976 4.195 194.778 o
-6 1 8 2.101 13.585 4.508 483.439 o
-6 1 9 103.699 97.512 8.887 64.168 o
-6 1 10 514.853 522.003 18.609 8.029 o
-6 1 11 433.811 423.247 22.243 8.935 o
-6 1 12 343.395 338.157 15.292 14.537 o
-6 1 13 208.415 201.894 25.784 12.809 o
-6 1 14 15.864 -1.089 19.610 30.945 o
-6 2 1 671.175 775.785 13.997 5.613 o
-6 2 2 179.176 202.147 8.341 38.277 o
-6 2 3 2291.780 2425.470 42.746 0.637 o
-6 2 4 1129.810 1046.650 20.626 2.570 o
-6 2 5 2430.390 2603.160 53.581 0.545 o
-6 2 6 515.689 509.304 12.549 9.266 o
-6 2 7 192.452 180.621 7.867 38.835 o
-6 2 8 167.565 142.840 7.737 46.933 o
-6 2 9 560.713 576.484 20.518 6.843 o
-6 2 10 235.584 239.003 12.700 23.897 o
-6 2 11 32.292 26.429 6.729 168.521 o
-6 2 12 1.537 8.798 6.395 275.914 o
-6 2 13 0.463 3.327 6.446 285.112 o
-6 2 14 1.631 1.089 19.066 33.380 o
-6 3 1 0.657 2.614 2.184 2089.610 o
-6 3 2 21.236 29.090 3.127 398.710 o
-6 3 3 1916.140 1854.520 33.395 0.953 o
-6 3 4 1216.360 1316.530 22.414 2.059 o
-6 3 5 1021.520 1071.220 19.355 2.866 o
-6 3 6 182.338 169.402 6.543 44.245 o
-6 3 7 76.621 67.679 4.441 129.317 o
-6 3 8 6.499 12.805 3.397 652.644 o
-6 3 9 478.100 475.068 17.928 9.041 o
-6 3 10 13.116 11.649 5.933 265.863 o
-6 3 11 5.391 8.278 6.287 272.109 o
-6 3 12 33.743 34.944 6.586 164.349 o
-6 3 13 6.881 14.133 7.138 207.521 o
-6 3 14 36.738 56.288 20.881 25.571 o
-6 4 1 1.274 5.055 2.411 1548.020 o
-6 4 2 117.599 102.827 4.773 81.673 o
-6 4 3 13.156 17.425 2.848 596.290 o
-6 4 4 216.781 215.517 6.980 34.343 o
-6 4 5 288.059 269.712 7.986 23.668 o
-6 4 6 606.603 629.852 13.259 7.022 o
-6 4 7 273.715 261.406 8.342 24.789 o
-6 4 8 28.743 24.433 4.208 291.676 o
-6 4 9 30.163 42.347 5.519 198.768 o
-6 4 10 1.392 1.130 4.924 481.119 o
-6 4 11 66.951 59.431 8.383 91.033 o
-6 4 12 67.433 66.390 8.760 84.959 o
-6 4 13 93.418 100.602 9.319 64.182 o
-6 4 14 139.842 137.253 23.423 17.032 o
-6 5 1 604.434 647.023 13.988 6.870 o
-6 5 2 152.479 157.087 6.521 52.228 o
-6 5 3 1052.360 1038.500 18.978 2.832 o
-6 5 4 756.469 820.656 15.853 4.713 o
-6 5 5 28.055 26.585 3.774 316.043 o
-6 5 6 159.899 142.073 6.697 51.734 o
-6 5 7 652.617 601.864 14.573 6.535 o
-6 5 8 705.259 724.863 16.847 5.329 o
-6 5 9 76.480 83.155 6.850 95.413 o
-6 5 10 0.317 3.685 7.172 231.406 o
-6 5 11 196.679 183.188 14.165 26.514 o
-6 5 12 242.260 236.490 15.578 20.337 o
-6 5 13 289.715 276.918 16.298 16.799 o
-6 6 1 12.641 30.421 2.700 525.452 o
-6 6 2 258.159 246.883 9.067 25.956 o
-6 6 3 18.323 33.382 5.120 261.824 o
-6 6 4 102.364 120.685 7.131 71.136 o
-6 6 5 157.200 184.821 11.270 35.940 o
-6 6 6 416.665 350.715 10.981 13.883 o
-6 6 7 1564.620 1600.680 31.234 1.316 o
-6 6 8 1663.480 1758.740 39.208 1.106 o
-6 6 9 92.538 77.312 9.470 67.076 o
-6 6 10 2.649 -0.884 14.980 53.902 o
-6 6 11 204.303 208.791 15.283 23.489 o
-6 6 12 317.427 334.813 17.762 13.997 o
-6 6 13 263.482 223.601 16.445 18.790 o
-6 7 1 1067.700 957.269 26.046 2.703 o
-6 7 2 656.933 601.303 14.618 6.490 o
-6 7 3 16.748 23.060 8.716 132.171 o
-6 7 4 78.220 70.442 9.289 74.617 o
-6 7 5 170.564 169.875 10.909 36.060 o
-6 7 6 535.431 500.572 15.937 8.404 o
-6 7 7 407.823 431.142 15.117 11.600 o
-6 7 8 892.782 934.043 48.572 2.252 o
-6 7 9 12.669 5.573 7.412 191.672 o
-6 7 10 71.571 63.893 9.265 78.699 o
-6 7 11 128.461 131.984 11.482 42.967 o
-6 7 12 160.196 151.891 13.771 31.541 o
-6 7 13 208.259 189.206 15.619 23.363 o
-6 8 1 279.507 249.830 21.971 13.463 o
-6 8 2 197.802 171.829 10.553 33.431 o
-6 8 3 15.530 21.824 5.333 280.044 o
-6 8 4 240.112 258.993 12.957 22.670 o
-6 8 5 123.939 139.331 9.412 50.892 o
-6 8 6 260.898 270.356 15.221 19.011 o
-6 8 7 10.484 24.993 6.601 215.298 o
-6 8 8 221.854 235.901 24.059 13.444 o
-6 8 9 4.364 8.988 8.731 150.159 o
-6 8 10 323.190 291.030 29.960 8.549 o
-6 8 11 242.083 234.028 20.670 15.584 o
-6 8 12 261.964 236.817 19.156 16.189 o
-6 9 1 62.200 72.449 13.800 47.689 o
-6 9 2 11.166 11.384 4.320 434.098 o
-6 9 3 96.304 132.665 9.540 57.636 o
-6 9 4 253.986 289.494 11.199 22.621 o
-6 9 5 161.518 158.818 11.266 37.041 o
-6 9 6 84.805 100.140 8.623 71.882 o
-6 9 7 3.076 14.404 11.569 87.269 o
-6 9 8 1.472 -3.571 16.160 46.470 o
-6 9 9 1.800 -0.699 8.807 155.009 o
-6 9 10 369.677 361.622 21.361 10.765 o
-6 9 11 99.594 84.944 11.938 49.918 o
-6 10 1 2.626 -4.903 10.713 104.772 o
-6 10 2 8.855 10.168 12.710 71.918 o
-6 10 3 168.362 175.291 22.061 17.245 o
-6 10 4 152.969 176.176 12.015 35.158 o
-6 10 5 84.365 69.572 8.754 76.944 o
-6 10 6 1.804 -7.656 7.579 208.370 o
-6 10 7 28.236 33.080 7.542 146.030 o
-6 10 8 125.405 122.901 13.364 37.760 o
-6 10 9 10.521 8.777 10.379 104.958 o
-6 10 10 66.856 65.385 11.910 58.650 o
-6 11 1 5.716 1.816 14.345 58.141 o
-6 11 2 72.066 72.812 15.616 38.443 o
-6 11 3 252.980 236.575 27.055 11.031 o
-6 11 4 107.039 108.167 10.614 52.596 o
-6 11 5 115.214 113.043 11.820 45.320 o
-6 11 6 5.942 4.894 8.331 164.536 o
-6 11 7 2.505 -7.242 9.442 134.505 o
-5 -14 1 0.232 6.718 12.892 72.396 o
-5 -14 2 67.232 84.796 17.794 31.182 o
-5 -13 1 12.861 7.808 11.802 81.903 o
-5 -13 2 331.577 370.197 28.689 8.487 o
-5 -13 3 96.913 92.222 16.887 31.426 o
-5 -13 4 8.715 31.231 16.160 44.277 o
-5 -12 1 1.850 1.866 7.315 221.282 o
-5 -12 2 370.023 381.999 26.873 8.590 o
-5 -12 3 209.438 261.814 27.236 11.385 o
-5 -12 4 1.874 15.797 13.255 67.235 o
-5 -12 5 2.802 31.231 15.797 46.848 o
-5 -11 1 141.716 141.248 16.887 26.735 o
-5 -11 2 190.175 217.691 19.973 18.140 o
-5 -11 3 268.629 289.577 23.060 12.584 o
-5 -11 4 12.695 13.981 11.802 80.979 o
-5 -11 5 77.954 82.980 15.797 36.736 o
-5 -11 6 222.134 291.904 29.134 10.014 o
-5 -11 7 84.243 81.391 15.625 36.825 o
-5 -10 1 398.835 358.678 12.367 13.810 o
-5 -10 2 305.293 305.695 14.701 16.803 o
-5 -10 3 699.465 672.289 26.964 4.636 o
-5 -10 4 37.269 28.240 7.546 138.717 o
-5 -10 5 32.965 33.032 8.275 124.186 o
-5 -10 6 131.911 133.355 10.316 46.438 o
-5 -10 7 184.315 181.137 16.211 24.122 o
-5 -10 8 90.312 90.459 15.728 35.496 o
-5 -9 1 345.712 361.888 17.237 13.136 o
-5 -9 2 1.013 -0.760 3.992 738.666 o
-5 -9 3 2.669 1.620 4.329 590.400 o
-5 -9 4 7.984 3.472 6.347 266.937 o
-5 -9 5 369.184 358.236 14.014 14.045 o
-5 -9 6 42.729 56.294 7.854 114.939 o
-5 -9 7 556.252 518.897 25.805 6.286 o
-5 -9 8 30.650 34.003 12.771 63.584 o
-5 -9 9 0.224 2.179 18.884 34.068 o
-5 -8 1 126.203 126.174 8.259 56.767 o
-5 -8 2 11.552 14.408 3.901 473.689 o
-5 -8 3 254.074 243.498 9.585 25.896 o
-5 -8 4 2.237 5.482 3.678 750.227 o
-5 -8 5 161.524 167.651 9.902 39.934 o
-5 -8 6 4.579 6.041 5.467 357.715 o
-5 -8 7 569.189 563.651 18.381 7.155 o
-5 -8 8 17.763 21.546 7.593 164.614 o
-5 -8 9 70.318 44.486 19.973 26.508 o
-5 -8 10 109.156 140.703 26.147 14.842 o
-5 -7 1 445.510 541.481 17.140 9.220 o
-5 -7 2 186.896 217.280 10.287 32.592 o
-5 -7 3 175.730 194.706 8.439 39.160 o
-5 -7 4 234.225 242.756 11.112 25.772 o
-5 -7 5 6.193 1.613 3.985 618.260 o
-5 -7 6 132.714 115.399 11.037 45.222 o
-5 -7 7 69.779 80.455 7.351 95.041 o
-5 -7 8 35.835 38.575 7.780 129.721 o
-5 -7 9 304.874 304.956 22.635 11.942 o
-5 -7 10 95.379 86.067 21.426 21.848 o
-5 -7 11 7.391 3.995 21.063 27.124 o
-5 -6 1 27.705 16.053 3.487 370.182 o
-5 -6 2 1274.570 1323.340 28.338 1.861 o
-5 -6 3 446.341 406.275 11.683 12.018 o
-5 -6 4 180.630 186.317 8.230 39.492 o
-5 -6 5 108.906 105.802 9.223 59.532 o
-5 -6 6 49.163 42.012 4.218 197.875 o
-5 -6 7 178.998 179.818 9.685 37.070 o
-5 -6 8 160.274 168.703 11.579 35.802 o
-5 -6 9 173.190 194.514 25.058 14.084 o
-5 -6 10 117.711 123.806 22.869 18.455 o
-5 -6 11 41.046 35.952 19.429 29.443 o
-5 -6 12 22.103 6.355 20.337 28.447 o
-5 -5 1 266.849 226.367 7.907 27.235 o
-5 -5 2 2605.010 2801.910 55.969 0.479 o
-5 -5 3 1706.140 1661.830 34.871 1.144 o
-5 -5 4 535.924 517.166 13.944 8.627 o
-5 -5 5 112.162 89.845 8.401 65.593 o
-5 -5 6 314.733 322.503 11.726 18.000 o
-5 -5 7 1319.330 1313.210 25.712 1.841 o
-5 -5 8 424.887 438.765 16.150 10.811 o
-5 -5 9 295.840 304.777 10.483 20.233 o
-5 -5 10 110.926 97.716 7.131 72.298 o
-5 -5 11 13.284 6.355 17.250 39.689 o
-5 -5 12 64.009 60.828 23.060 20.511 o
-5 -4 1 3848.880 4124.370 80.516 0.228 o
-5 -4 2 1570.390 1571.310 32.426 1.313 o
-5 -4 3 1572.740 1532.520 70.611 0.929 o
-5 -4 4 776.193 726.833 22.568 4.431 o
-5 -4 5 850.433 799.474 19.438 4.049 o
-5 -4 6 50.377 35.282 4.742 188.178 o
-5 -4 7 1616.390 1634.270 44.344 1.138 o
-5 -4 8 1278.700 1273.990 35.199 1.773 o
-5 -4 9 724.235 739.316 17.793 5.067 o
-5 -4 10 413.569 343.588 13.674 13.091 o
-5 -4 11 26.463 10.713 14.526 53.085 o
-5 -4 12 74.477 103.298 21.244 22.594 o
-5 -4 13 193.996 170.845 26.692 12.682 o
-5 -3 1 5944.710 6441.140 195.057 0.082 o
-5 -3 2 478.903 493.263 13.102 9.979 o
-5 -3 3 1007.020 1182.880 25.399 2.588 o
-5 -3 4 549.471 558.029 18.769 7.350 o
-5 -3 5 8.623 6.351 3.277 706.559 o
-5 -3 6 1084.700 966.027 19.342 2.835 o
-5 -3 7 777.426 839.356 19.977 4.292 o
-5 -3 8 177.669 148.641 13.665 30.342 o
-5 -3 9 1.204 -0.461 6.718 265.883 o
-5 -3 10 47.295 39.007 8.716 103.771 o
-5 -3 12 230.347 243.293 33.047 8.478 o
-5 -3 13 147.395 152.324 25.602 14.530 o
-5 -2 1 6541.840 6667.740 110.774 0.087 o
-5 -2 2 843.809 832.347 15.748 4.179 o
-5 -2 3 31.985 41.174 2.509 321.221 o
-5 -2 4 47.959 47.398 3.143 222.679 o
-5 -2 5 1263.170 1283.090 21.544 2.018 o
-5 -2 6 762.830 783.776 16.168 4.772 o
-5 -2 7 206.838 226.498 13.374 25.433 o
-5 -2 8 26.750 28.841 4.741 261.048 o
-5 -2 9 20.956 23.699 4.710 296.263 o
-5 -2 10 436.381 423.035 30.142 6.833 o
-5 -2 11 116.686 113.285 17.613 27.625 o
-5 -2 12 246.797 259.454 32.139 8.620 o
-5 -2 13 85.104 77.170 20.881 23.346 o
-5 -2 14 25.605 25.965 20.700 26.991 o
-5 -1 1 10.380 8.419 1.438 1200.080 o
-5 -1 2 660.886 766.815 14.729 5.680 o
-5 -1 3 1058.950 1112.540 18.395 2.721 o
-5 -1 4 750.153 767.434 13.722 5.057 o
-5 -1 5 734.717 710.641 14.908 5.304 o
-5 -1 6 1472.110 1370.480 25.741 1.591 o
-5 -1 7 32.861 33.169 3.548 289.039 o
-5 -1 8 29.540 24.325 4.141 292.302 o
-5 -1 9 208.104 203.149 9.991 31.553 o
-5 -1 10 164.190 171.787 9.728 39.667 o
-5 -1 11 262.489 294.480 28.689 9.716 o
-5 -1 12 98.137 81.164 19.066 26.356 o
-5 -1 13 78.796 67.365 20.518 24.490 o
-5 -1 14 1.470 -2.724 19.429 32.180 o
-5 0 1 466.700 543.273 25.516 7.038 o
-5 0 2 41.096 46.138 3.379 239.068 o
-5 0 3 1494.930 1629.430 25.997 1.415 o
-5 0 4 907.712 814.313 19.546 3.742 o
-5 0 5 1117.960 1068.840 22.906 2.519 o
-5 0 6 510.839 502.183 11.553 9.592 o
-5 0 7 16.655 18.080 2.964 521.025 o
-5 0 8 16.202 17.796 3.373 475.542 o
-5 0 9 461.406 466.970 14.139 10.341 o
-5 0 10 213.200 223.798 10.651 28.987 o
-5 0 11 137.143 119.822 17.068 27.326 o
-5 0 12 24.515 32.321 15.979 43.604 o
-5 0 13 34.944 33.047 16.523 40.056 o
-5 0 14 7.181 -6.174 18.521 35.087 o
-5 1 1 6.052 5.200 1.446 1786.100 o
-5 1 2 150.540 176.753 6.601 50.096 o
-5 1 3 2907.540 2994.150 51.577 0.415 o
-5 1 4 2363.490 2548.440 39.651 0.605 o
-5 1 5 677.989 764.736 15.708 5.474 o
-5 1 6 228.835 242.873 8.452 29.495 o
-5 1 7 32.274 30.056 4.927 232.323 o
-5 1 8 187.920 205.371 7.765 37.840 o
-5 1 9 591.950 568.884 13.879 7.493 o
-5 1 10 287.456 316.747 13.167 18.412 o
-5 1 11 40.347 30.729 4.865 212.176 o
-5 1 12 15.781 19.247 14.708 52.759 o
-5 1 13 1.357 -1.271 13.981 62.039 o
-5 1 14 31.834 64.641 20.155 27.310 o
-5 2 1 66.670 98.915 3.644 131.841 o
-5 2 2 75.392 70.078 3.443 141.149 o
-5 2 3 1891.980 1886.180 29.974 0.974 o
-5 2 4 2111.310 2161.190 34.158 0.778 o
-5 2 5 263.685 289.961 7.057 25.473 o
-5 2 6 6.784 7.430 2.299 1102.440 o
-5 2 7 503.375 511.276 10.826 9.772 o
-5 2 8 620.906 606.750 14.483 6.856 o
-5 2 9 643.979 621.899 14.889 6.489 o
-5 2 10 428.770 444.680 16.055 10.700 o
-5 2 11 20.013 17.052 5.018 293.519 o
-5 2 12 1.068 8.332 4.785 473.037 o
-5 2 13 9.519 2.724 13.981 60.425 o
-5 2 14 149.790 149.056 23.423 16.634 o
-5 3 1 67.910 51.645 2.974 173.842 o
-5 3 2 291.061 307.074 6.955 22.790 o
-5 3 3 1451.120 1385.260 22.883 1.638 o
-5 3 4 1589.940 1693.370 35.860 1.213 o
-5 3 5 222.580 217.743 6.341 34.259 o
-5 3 6 167.565 170.925 5.950 48.482 o
-5 3 7 1093.180 1084.550 19.329 2.645 o
-5 3 8 2043.210 2065.360 33.909 0.830 o
-5 3 9 156.442 179.598 6.811 47.890 o
-5 3 10 66.633 68.765 6.844 107.068 o
-5 3 11 139.550 110.098 17.159 27.290 o
-5 3 12 159.751 160.843 10.705 38.590 o
-5 3 13 315.996 304.481 18.702 13.908 o
-5 3 14 178.659 170.118 23.605 15.496 o
-5 4 1 213.891 200.392 6.068 37.047 o
-5 4 2 1164.300 1231.890 20.763 2.272 o
-5 4 3 203.605 192.295 6.328 38.879 o
-5 4 4 89.644 121.320 5.085 90.428 o
-5 4 5 61.495 76.193 4.226 145.619 o
-5 4 6 257.120 280.649 8.564 25.147 o
-5 4 7 1460.860 1418.620 24.414 1.589 o
-5 4 8 1978.450 1980.050 32.860 0.888 o
-5 4 9 415.606 439.096 11.549 12.433 o
-5 4 10 49.270 37.713 4.736 188.130 o
-5 4 11 1.031 -8.556 5.018 473.023 o
-5 4 12 83.795 81.984 7.528 85.143 o
-5 4 13 310.806 334.595 15.379 15.627 o
-5 4 14 141.379 131.443 21.971 18.805 o
-5 5 1 670.293 630.886 13.370 6.325 o
-5 5 2 680.087 721.325 15.062 5.684 o
-5 5 3 17.182 16.718 2.733 554.387 o
-5 5 4 47.151 50.946 3.745 204.587 o
-5 5 5 42.840 48.098 5.921 159.189 o
-5 5 6 28.201 33.002 3.669 305.142 o
-5 5 7 95.241 96.050 5.473 91.970 o
-5 5 8 231.385 226.897 8.664 29.785 o
-5 5 9 41.233 43.016 4.725 200.104 o
-5 5 10 344.362 334.255 15.447 14.485 o
-5 5 11 58.616 50.978 6.611 124.738 o
-5 5 12 198.565 195.586 11.387 30.557 o
-5 5 13 323.508 338.169 16.135 14.699 o
-5 5 14 44.035 35.183 6.898 142.668 o
-5 6 1 986.386 1098.650 18.684 2.949 o
-5 6 2 416.980 370.431 9.754 13.959 o
-5 6 3 169.621 153.180 10.163 39.135 o
-5 6 4 92.269 72.249 6.631 91.289 o
-5 6 5 74.397 99.947 11.686 54.704 o
-5 6 6 668.588 621.975 15.043 6.231 o
-5 6 7 372.875 352.122 12.171 14.851 o
-5 6 8 861.088 909.564 22.536 3.598 o
-5 6 9 114.947 100.994 8.611 61.789 o
-5 6 10 529.519 518.496 17.640 8.044 o
-5 6 11 361.027 358.267 19.058 11.957 o
-5 6 12 471.761 468.304 15.696 9.747 o
-5 6 13 224.551 238.888 15.135 21.679 o
-5 6 14 2.544 5.255 10.531 107.048 o
-5 7 1 102.671 103.701 4.492 91.662 o
-5 7 2 173.732 175.357 6.409 45.653 o
-5 7 3 173.562 151.361 12.082 34.074 o
-5 7 4 126.929 112.833 7.181 63.458 o
-5 7 5 522.461 486.219 14.775 8.932 o
-5 7 6 319.949 316.819 11.952 17.752 o
-5 7 7 150.526 147.769 9.455 44.651 o
-5 7 8 49.643 52.859 9.591 86.971 o
-5 7 9 20.529 25.639 6.003 220.198 o
-5 7 10 723.139 667.831 23.854 4.801 o
-5 7 11 471.108 457.186 19.649 8.857 o
-5 7 12 521.727 517.406 21.352 7.435 o
-5 7 13 4.055 3.185 7.522 204.106 o
-5 7 14 44.584 33.592 17.068 37.011 o
-5 8 1 249.517 228.437 9.279 27.255 o
-5 8 2 17.029 10.350 9.260 123.888 o
-5 8 3 712.327 611.445 51.831 2.687 o
-5 8 4 912.722 881.097 38.676 2.695 o
-5 8 5 1051.930 1083.600 32.713 2.383 o
-5 8 6 16.030 23.137 9.170 121.963 o
-5 8 7 18.598 34.786 7.624 154.073 o
-5 8 8 372.775 357.130 18.991 11.741 o
-5 8 9 159.970 171.864 17.431 23.809 o
-5 8 10 309.441 295.488 16.334 15.737 o
-5 8 11 422.233 434.554 21.598 9.212 o
-5 8 12 161.579 160.101 13.932 30.691 o
-5 8 13 10.242 6.754 8.464 153.767 o
-5 9 1 17.004 17.431 10.531 96.990 o
-5 9 2 193.158 188.786 12.892 28.727 o
-5 9 3 820.489 768.091 23.193 4.056 o
-5 9 4 578.300 545.978 18.816 7.085 o
-5 9 5 261.321 248.817 18.975 16.166 o
-5 9 6 1.645 8.534 9.079 142.149 o
-5 9 7 7.878 14.972 7.458 189.763 o
-5 9 8 431.421 448.126 20.734 9.226 o
-5 9 9 464.064 445.856 24.735 7.747 o
-5 9 10 29.197 41.218 17.068 37.911 o
-5 9 11 218.137 213.562 25.602 12.657 o
-5 9 12 3.321 3.765 10.713 103.520 o
-5 10 1 2.290 9.260 10.895 99.405 o
-5 10 2 305.183 314.626 12.145 18.355 o
-5 10 3 367.045 374.179 15.071 13.397 o
-5 10 4 192.620 217.493 12.147 28.798 o
-5 10 5 6.905 7.485 5.811 307.319 o
-5 10 6 14.746 8.706 6.916 208.066 o
-5 10 7 43.585 51.746 12.454 61.382 o
-5 10 8 431.025 427.535 21.456 9.175 o
-5 10 9 467.583 444.353 21.995 8.399 o
-5 10 10 9.177 13.456 9.095 132.957 o
-5 10 11 30.091 38.895 10.462 87.550 o
-5 11 1 10.485 9.079 11.984 80.114 o
-5 11 2 355.803 387.652 14.014 14.004 o
-5 11 3 145.286 110.991 8.767 51.834 o
-5 11 4 50.128 57.892 6.858 125.255 o
-5 11 5 14.480 14.191 7.254 187.988 o
-5 11 6 1.203 -4.672 7.067 240.618 o
-5 11 7 56.507 60.125 9.278 85.840 o
-5 11 8 118.198 113.793 10.296 51.112 o
-5 11 9 124.408 118.466 13.361 38.149 o
-5 11 10 1.184 13.214 10.693 102.655 o
-5 12 1 175.887 222.049 25.784 13.209 o
-5 12 2 150.275 116.735 17.068 26.604 o
-5 12 3 45.766 63.370 14.708 45.885 o
-5 12 4 0.219 5.001 5.893 336.331 o
-5 12 5 33.115 39.320 8.325 120.478 o
-5 12 6 11.976 9.023 7.423 189.418 o
-5 12 7 114.486 122.564 11.649 45.339 o
-4 -14 1 0.381 -0.908 12.529 77.447 o
-4 -14 2 67.266 54.291 15.071 42.145 o
-4 -13 1 39.543 36.134 12.166 66.520 o
-4 -13 2 125.236 96.399 25.058 16.050 o
-4 -13 3 219.254 239.662 26.510 11.837 o
-4 -13 4 8.083 20.518 14.345 56.354 o
-4 -12 1 137.734 155.048 18.158 24.201 o
-4 -12 2 64.372 70.633 12.892 52.466 o
-4 -12 3 302.649 341.689 25.239 10.391 o
-4 -12 4 22.990 1.634 13.618 61.198 o
-4 -12 5 88.379 103.298 18.339 27.929 o
-4 -12 6 26.008 26.692 17.613 36.531 o
-4 -11 1 166.676 204.050 13.088 30.010 o
-4 -11 2 3.139 6.900 8.352 165.964 o
-4 -11 3 15.186 22.879 10.350 99.566 o
-4 -11 4 37.027 58.104 12.710 60.145 o
-4 -11 5 93.244 98.759 15.071 37.004 o
-4 -11 6 5.609 26.510 15.979 45.786 o
-4 -11 7 318.156 360.651 26.290 9.589 o
-4 -10 1 336.599 327.436 11.662 16.964 o
-4 -10 2 45.436 45.749 5.587 165.355 o
-4 -10 3 55.841 43.731 5.542 152.410 o
-4 -10 4 14.212 21.680 7.282 181.090 o
-4 -10 5 7.962 17.807 12.620 72.183 o
-4 -10 6 31.914 22.628 13.073 61.981 o
-4 -10 7 282.134 322.650 25.406 10.778 o
-4 -10 8 1.947 -20.337 18.339 36.081 o
-4 -9 1 554.605 533.976 14.500 8.136 o
-4 -9 2 11.769 12.315 4.019 465.450 o
-4 -9 3 74.039 95.859 8.171 80.778 o
-4 -9 4 185.279 174.871 9.275 37.430 o
-4 -9 5 19.669 14.189 6.732 201.049 o
-4 -9 6 690.427 695.227 41.036 3.390 o
-4 -9 7 87.617 71.697 8.582 76.640 o
-4 -9 8 26.159 14.345 17.250 38.426 o
-4 -9 9 127.343 161.040 24.694 15.702 o
-4 -8 1 13.935 16.033 3.351 516.215 o
-4 -8 2 539.643 557.379 14.534 8.177 o
-4 -8 3 287.563 285.548 9.968 21.666 o
-4 -8 4 582.238 586.979 15.595 7.275 o
-4 -8 5 15.164 11.435 4.309 401.928 o
-4 -8 6 664.008 668.696 18.887 5.687 o
-4 -8 7 96.461 95.011 7.939 73.303 o
-4 -8 8 52.449 51.159 10.449 76.769 o
-4 -8 9 155.247 184.100 24.331 15.196 o
-4 -8 10 207.763 230.583 30.323 9.951 o
-4 -7 1 572.316 591.065 17.517 7.096 o
-4 -7 2 603.271 618.749 15.019 6.923 o
-4 -7 3 882.839 887.962 20.255 3.658 o
-4 -7 4 126.066 134.900 7.130 60.456 o
-4 -7 5 608.949 594.031 13.748 7.149 o
-4 -7 6 185.327 177.511 7.890 40.160 o
-4 -7 7 319.190 332.872 12.713 16.973 o
-4 -7 8 200.464 240.616 14.368 24.005 o
-4 -7 9 116.415 112.416 10.489 50.773 o
-4 -7 10 184.396 154.321 22.697 16.430 o
-4 -7 11 34.146 42.852 21.063 25.506 o
-4 -6 1 999.033 1256.650 32.548 2.318 o
-4 -6 2 1173.630 1115.260 38.585 1.972 o
-4 -6 3 826.711 842.706 19.273 4.068 o
-4 -6 4 157.089 141.829 5.758 55.244 o
-4 -6 5 541.923 547.570 12.529 8.526 o
-4 -6 6 7.020 5.959 3.316 739.006 o
-4 -6 7 363.192 350.087 10.327 16.062 o
-4 -6 8 170.330 183.976 11.514 33.886 o
-4 -6 9 100.457 89.818 8.249 70.632 o
-4 -6 10 11.882 12.634 5.813 277.026 o
-4 -6 11 6.348 7.445 17.794 37.784 o
-4 -6 12 81.639 117.643 24.331 17.593 o
-4 -5 1 2684.350 2936.070 71.053 0.421 o
-4 -5 2 1213.420 1222.560 31.647 1.979 o
-4 -5 3 1523.000 1563.810 34.462 1.340 o
-4 -5 4 10.503 9.205 2.831 742.841 o
-4 -5 5 40.474 32.136 3.127 276.368 o
-4 -5 6 728.229 695.656 18.050 5.173 o
-4 -5 7 126.645 127.108 6.563 63.994 o
-4 -5 8 51.374 49.039 4.680 174.552 o
-4 -5 9 1.283 5.308 4.646 513.374 o
-4 -5 10 39.694 34.618 3.789 248.764 o
-4 -5 11 15.328 18.702 15.797 46.192 o
-4 -5 12 57.529 54.110 20.337 26.020 o
-4 -5 13 64.977 70.088 22.515 21.243 o
-4 -4 1 2303.720 2493.600 50.518 0.601 o
-4 -4 2 306.435 287.837 8.535 21.427 o
-4 -4 3 71.915 75.228 4.702 127.115 o
-4 -4 4 75.488 102.731 5.710 100.880 o
-4 -4 5 535.828 559.124 14.579 8.211 o
-4 -4 6 1410.540 1430.120 31.554 1.561 o
-4 -4 7 212.021 228.012 8.372 32.219 o
-4 -4 8 188.329 161.725 7.381 42.065 o
-4 -4 9 3.599 7.530 6.174 288.987 o
-4 -4 10 325.519 357.487 30.142 8.130 o
-4 -4 11 247.647 227.678 31.049 9.212 o
-4 -4 12 377.372 386.539 37.223 5.799 o
-4 -4 13 174.332 173.205 26.692 12.985 o
-4 -3 1 1182.370 1126.360 34.411 2.050 o
-4 -3 2 131.390 142.839 6.416 60.482 o
-4 -3 3 696.334 684.323 15.686 5.652 o
-4 -3 4 3.508 17.099 3.217 716.722 o
-4 -3 5 2776.870 2776.650 56.210 0.449 o
-4 -3 6 1776.800 1641.350 38.705 1.073 o
-4 -3 7 1330.880 1386.310 29.886 1.711 o
-4 -3 8 1015.740 951.789 18.663 3.093 o
-4 -3 9 29.584 30.086 3.250 329.526 o
-4 -3 10 11.255 23.242 11.984 77.773 o
-4 -3 11 345.015 362.207 31.957 7.378 o
-4 -3 12 281.047 243.293 31.231 8.731 o
-4 -3 13 313.545 323.713 38.494 6.027 o
-4 -3 14 45.592 16.342 18.884 31.292 o
-4 -2 1 5004.340 4966.590 82.698 0.150 o
-4 -2 2 110.164 116.430 3.851 86.650 o
-4 -2 3 1527.270 1665.020 32.915 1.305 o
-4 -2 4 2043.580 2172.310 38.171 0.790 o
-4 -2 5 1739.560 1787.230 31.952 1.094 o
-4 -2 6 1011.330 1025.920 22.584 2.872 o
-4 -2 7 24.611 17.512 3.212 411.653 o
-4 -2 8 30.747 38.043 4.615 238.501 o
-4 -2 9 1320.850 1251.740 27.734 1.855 o
-4 -2 10 321.847 323.713 25.965 9.926 o
-4 -2 11 325.760 304.830 28.326 9.051 o
-4 -2 12 86.284 73.357 18.158 29.370 o
-4 -2 13 134.054 106.567 20.881 20.977 o
-4 -2 14 0.493 20.518 20.337 29.019 o
-4 -1 1 1467.510 1508.320 23.353 1.537 o
-4 -1 2 624.344 777.773 13.077 6.085 o
-4 -1 3 4860.270 4902.070 78.361 0.158 o
-4 -1 4 2292.320 2570.400 39.734 0.623 o
-4 -1 5 3568.600 3526.570 60.307 0.289 o
-4 -1 6 369.612 416.300 11.356 14.210 o
-4 -1 7 375.074 383.431 9.584 15.255 o
-4 -1 8 94.700 92.001 7.172 80.324 o
-4 -1 9 253.547 257.122 8.774 26.205 o
-4 -1 10 144.544 144.698 19.066 22.603 o
-4 -1 11 3.919 2.360 9.987 118.762 o
-4 -1 12 22.443 4.539 15.434 48.266 o
-4 -1 13 6.812 -2.542 16.523 43.988 o
-4 -1 14 3.998 -9.260 17.794 38.182 o
-4 0 1 8.599 5.067 1.082 1671.440 o
-4 0 2 223.203 210.763 7.291 33.409 o
-4 0 3 145.387 101.898 3.455 73.626 o
-4 0 4 1331.170 1201.970 22.000 1.964 o
-4 0 5 220.993 288.714 7.426 29.121 o
-4 0 6 52.025 45.687 5.032 168.100 o
-4 0 7 289.272 314.249 8.575 21.650 o
-4 0 8 262.184 268.543 8.219 25.532 o
-4 0 9 48.777 42.480 5.658 160.961 o
-4 0 10 222.832 205.186 8.338 32.337 o
-4 0 11 1.542 2.179 10.168 116.139 o
-4 0 12 20.058 29.052 21.971 24.213 o
-4 0 13 3.271 6.355 14.526 56.746 o
-4 0 14 60.255 63.551 20.881 24.547 o
-4 0 15 84.126 111.288 25.602 16.128 o
-4 1 1 8.408 24.087 3.695 484.497 o
-4 1 2 239.401 263.430 5.525 30.296 o
-4 1 3 104.176 79.088 3.294 107.098 o
-4 1 4 2219.640 2207.860 43.604 0.694 o
-4 1 5 201.992 207.118 5.307 39.429 o
-4 1 6 37.041 30.593 2.922 304.472 o
-4 1 7 344.485 319.942 8.666 18.330 o
-4 1 8 1180.770 1156.800 22.747 2.280 o
-4 1 9 11.255 13.830 3.331 573.354 o
-4 1 10 92.485 96.094 9.425 64.476 o
-4 1 11 4.250 6.716 4.267 544.599 o
-4 1 12 11.094 5.447 12.347 76.037 o
-4 1 13 102.820 85.341 17.431 29.817 o
-4 1 14 130.341 127.630 21.244 20.204 o
-4 1 15 35.066 42.126 19.066 30.625 o
-4 2 1 599.950 578.649 11.323 7.629 o
-4 2 2 2017.190 1965.860 34.264 0.866 o
-4 2 3 171.910 162.528 6.711 46.661 o
-4 2 4 406.476 362.593 8.835 14.742 o
-4 2 5 598.299 752.565 15.255 6.258 o
-4 2 6 153.919 173.624 7.323 47.716 o
-4 2 7 770.519 731.274 13.598 5.048 o
-4 2 8 2570.480 2635.350 41.691 0.535 o
-4 2 9 94.408 88.171 5.416 95.478 o
-4 2 10 5.099 15.225 3.702 587.667 o
-4 2 11 16.613 32.716 4.669 298.278 o
-4 2 12 158.102 151.470 8.080 47.003 o
-4 2 13 658.505 624.022 39.765 3.709 o
-4 2 14 259.610 272.346 33.228 8.049 o
-4 2 15 79.245 76.988 21.608 22.242 o
-4 3 1 1136.070 962.692 17.898 2.726 o
-4 3 2 1231.570 1290.470 26.667 1.985 o
-4 3 3 306.028 303.535 6.744 22.004 o
-4 3 4 111.677 125.757 7.679 63.872 o
-4 3 5 1.213 1.983 1.762 2837.600 o
-4 3 6 754.479 825.448 15.253 4.745 o
-4 3 7 1193.550 1164.620 20.117 2.293 o
-4 3 8 3250.090 3281.730 51.364 0.345 o
-4 3 9 720.450 707.077 13.882 5.499 o
-4 3 10 238.227 234.055 8.275 29.204 o
-4 3 11 73.237 87.457 10.613 63.273 o
-4 3 12 765.630 740.995 25.784 4.210 o
-4 3 13 906.072 862.394 47.391 2.339 o
-4 3 14 339.381 300.109 33.773 7.148 o
-4 3 15 32.363 40.310 18.884 31.359 o
-4 4 1 243.653 219.183 6.541 31.352 o
-4 4 2 1048.450 1058.900 20.243 2.782 o
-4 4 3 141.221 134.135 5.380 62.489 o
-4 4 4 318.889 296.506 14.184 16.795 o
-4 4 5 72.761 67.317 5.065 125.752 o
-4 4 6 2055.350 2201.750 39.467 0.774 o
-4 4 7 1509.580 1502.280 28.277 1.446 o
-4 4 8 1985.990 2008.870 36.796 0.859 o
-4 4 9 800.984 866.383 18.304 4.190 o
-4 4 10 663.433 686.656 17.135 5.788 o
-4 4 11 638.959 701.218 18.392 5.809 o
-4 4 12 1082.250 1088.440 39.765 2.110 o
-4 4 13 448.370 460.052 16.992 9.907 o
-4 4 14 28.981 20.700 16.523 41.122 o
-4 4 15 28.590 11.621 17.976 35.486 o
-4 5 1 1985.860 1843.770 47.055 0.847 o
-4 5 2 569.379 727.782 24.931 5.501 o
-4 5 3 44.439 38.279 4.141 216.448 o
-4 5 4 305.782 359.961 9.741 18.708 o
-4 5 5 1723.460 1656.180 31.009 1.161 o
-4 5 6 421.362 417.166 11.002 12.737 o
-4 5 7 1310.970 1383.050 26.726 1.787 o
-4 5 8 328.745 333.403 9.880 18.155 o
-4 5 9 662.150 697.054 18.108 5.663 o
-4 5 10 167.753 170.691 10.304 37.812 o
-4 5 11 502.130 510.642 18.440 8.311 o
-4 5 12 717.532 668.966 21.282 5.065 o
-4 5 13 142.702 159.175 10.283 42.466 o
-4 5 14 4.649 2.542 14.526 56.823 o
-4 5 15 45.723 23.423 17.431 35.937 o
-4 6 1 790.659 872.730 18.765 4.203 o
-4 6 2 258.466 273.556 10.809 23.221 o
-4 6 3 286.790 316.441 10.116 20.675 o
-4 6 4 326.529 268.320 8.699 20.692 o
-4 6 5 167.301 218.333 7.998 39.555 o
-4 6 6 163.405 165.724 7.405 46.344 o
-4 6 7 2.214 0.784 3.332 973.134 o
-4 6 8 397.196 368.112 12.013 13.850 o
-4 6 9 25.799 23.950 4.883 265.491 o
-4 6 10 14.787 13.946 4.384 386.955 o
-4 6 11 164.543 155.570 9.282 42.054 o
-4 6 12 16.641 25.563 5.132 281.998 o
-4 6 13 56.437 49.593 5.802 142.516 o
-4 6 14 77.493 80.065 8.163 82.897 o
-4 6 15 192.856 207.705 26.328 12.649 o
-4 7 1 613.706 579.823 20.226 6.352 o
-4 7 2 186.672 188.184 16.013 24.081 o
-4 7 3 741.752 780.639 19.782 4.675 o
-4 7 4 727.200 726.506 20.522 4.878 o
-4 7 5 492.107 511.824 13.123 9.555 o
-4 7 6 328.345 318.585 14.284 15.951 o
-4 7 7 197.332 223.107 13.816 25.583 o
-4 7 8 122.972 130.228 8.506 56.003 o
-4 7 9 570.330 580.663 16.661 7.303 o
-4 7 10 10.812 9.871 4.769 386.611 o
-4 7 11 465.822 464.776 16.388 9.712 o
-4 7 12 17.261 21.361 5.676 252.802 o
-4 7 13 48.848 47.943 7.045 127.804 o
-4 7 14 344.446 351.896 17.635 13.103 o
-4 8 1 51.782 42.276 4.629 181.355 o
-4 8 2 503.068 636.081 18.945 7.406 o
-4 8 3 364.195 393.305 18.521 11.733 o
-4 8 4 271.975 264.995 14.227 19.509 o
-4 8 5 17.718 10.259 4.352 382.543 o
-4 8 6 4.721 7.419 4.506 488.791 o
-4 8 7 196.198 183.052 10.109 33.817 o
-4 8 8 800.033 773.790 21.348 4.260 o
-4 8 9 1373.840 1437.360 40.766 1.472 o
-4 8 10 169.092 151.403 12.211 34.267 o
-4 8 11 128.125 159.606 12.518 37.784 o
-4 8 12 16.297 8.488 6.751 213.201 o
-4 8 13 102.529 126.440 10.955 50.059 o
-4 8 14 184.014 174.819 13.786 28.462 o
-4 9 1 231.188 213.103 9.250 29.739 o
-4 9 2 1720.160 1641.720 42.478 1.081 o
-4 9 3 1810.290 1630.960 42.672 1.026 o
-4 9 4 552.330 477.668 55.099 2.868 o
-4 9 5 13.558 14.739 5.142 318.758 o
-4 9 6 21.535 18.920 6.696 194.372 o
-4 9 7 622.598 563.640 30.232 5.023 o
-4 9 8 1090.300 991.495 85.513 1.076 o
-4 9 9 634.816 631.378 23.536 5.545 o
-4 9 10 201.754 210.640 15.159 23.759 o
-4 9 11 33.947 19.576 7.725 142.398 o
-4 9 12 62.001 73.977 11.984 58.277 o
-4 9 13 118.944 130.637 12.055 42.487 o
-4 10 1 501.515 527.872 28.689 6.188 o
-4 10 2 612.192 569.209 25.148 5.740 o
-4 10 3 297.643 274.247 12.537 19.420 o
-4 10 4 109.984 105.152 13.255 41.149 o
-4 10 5 16.332 25.974 9.079 122.717 o
-4 10 6 49.770 49.425 7.849 112.269 o
-4 10 7 490.260 463.162 20.072 8.439 o
-4 10 8 395.452 420.856 30.142 7.190 o
-4 10 9 207.948 173.340 15.131 24.570 o
-4 10 10 44.416 47.852 9.336 93.936 o
-4 10 11 104.124 98.959 26.773 14.691 o
-4 10 12 88.370 82.930 10.951 57.819 o
-4 11 1 256.690 200.874 10.471 26.424 o
-4 11 2 67.734 78.230 9.978 71.166 o
-4 11 3 22.546 20.174 4.983 279.009 o
-4 11 4 4.429 -2.183 5.901 327.052 o
-4 11 5 9.389 15.039 7.263 195.831 o
-4 11 6 77.527 103.524 10.507 60.698 o
-4 11 7 190.310 205.536 14.658 25.392 o
-4 11 8 94.636 83.037 8.672 71.057 o
-4 11 9 13.739 7.196 7.072 204.025 o
-4 11 10 0.156 7.550 9.249 138.848 o
-4 11 11 78.450 76.856 11.061 60.255 o
-4 12 1 119.865 112.922 16.705 29.517 o
-4 12 2 2.258 -2.616 4.984 467.216 o
-4 12 3 21.131 16.969 6.002 229.806 o
-4 12 4 2.468 5.309 6.102 304.236 o
-4 12 5 20.617 40.245 7.423 154.120 o
-4 12 6 89.674 103.487 10.110 59.973 o
-4 12 7 58.629 81.316 10.075 72.896 o
-4 12 8 2.940 -0.126 8.272 173.878 o
-4 12 9 1.739 10.052 8.047 177.865 o
-4 12 10 31.873 28.689 16.160 42.183 o
-4 13 2 0.528 -4.721 13.618 65.536 o
-4 13 3 36.369 33.410 14.526 50.105 o
-4 13 4 59.360 63.605 8.579 91.665 o
-4 13 5 33.631 22.501 7.824 138.710 o
-4 13 6 142.095 139.258 12.903 36.229 o
-3 -14 1 69.415 75.172 22.879 20.457 o
-3 -14 2 42.993 25.058 14.345 50.859 o
-3 -13 1 230.383 215.512 19.792 17.001 o
-3 -13 2 26.898 25.784 11.076 83.397 o
-3 -13 3 8.912 18.884 11.802 81.399 o
-3 -12 1 288.004 314.453 21.244 12.976 o
-3 -12 2 85.327 92.585 12.892 47.116 o
-3 -12 3 10.629 26.147 10.350 101.011 o
-3 -12 4 2.783 7.626 10.713 102.850 o
-3 -12 5 5.547 21.971 12.529 73.258 o
-3 -12 6 90.351 103.298 19.429 25.426 o
-3 -11 1 367.343 389.901 13.638 13.781 o
-3 -11 2 0.930 -5.090 5.575 385.439 o
-3 -11 3 1.272 -8.271 6.030 328.555 o
-3 -11 4 13.784 19.792 9.987 107.618 o
-3 -11 5 2.040 -5.810 9.987 120.723 o
-3 -11 6 348.346 433.930 30.323 7.502 o
-3 -10 1 0.809 1.144 4.164 673.270 o
-3 -10 2 58.839 55.044 5.647 139.183 o
-3 -10 3 97.106 97.429 7.019 79.063 o
-3 -10 4 32.572 31.553 5.570 203.453 o
-3 -10 5 4.452 9.150 7.412 203.316 o
-3 -10 6 169.592 214.725 16.370 23.759 o
-3 -10 7 51.467 34.100 11.250 71.974 o
-3 -10 8 6.658 28.144 19.610 30.724 o
-3 -9 1 143.030 160.056 11.666 38.298 o
-3 -9 2 210.951 176.923 14.873 24.649 o
-3 -9 3 608.215 604.815 16.064 6.820 o
-3 -9 4 53.171 63.258 5.630 141.392 o
-3 -9 5 405.525 376.860 12.733 13.199 o
-3 -9 6 4.163 9.728 5.136 388.743 o
-3 -9 7 165.140 198.432 35.861 8.034 o
-3 -9 8 155.533 174.295 23.786 15.819 o
-3 -9 9 72.895 87.520 21.971 21.652 o
-3 -9 10 183.691 191.181 28.689 11.373 o
-3 -8 1 1065.030 1088.950 29.338 2.449 o
-3 -8 2 352.436 351.177 10.476 16.409 o
-3 -8 3 1458.520 1473.640 31.552 1.482 o
-3 -8 4 558.499 527.248 14.333 8.155 o
-3 -8 5 800.753 777.699 19.163 4.382 o
-3 -8 6 7.824 3.568 4.434 488.509 o
-3 -8 7 80.719 85.816 7.155 89.169 o
-3 -8 8 213.146 198.444 22.334 15.442 o
-3 -8 9 276.398 278.864 35.407 7.190 o
-3 -8 10 85.012 82.254 22.697 20.200 o
-3 -8 11 71.453 102.391 25.239 16.871 o
-3 -7 1 565.652 589.625 14.152 7.661 o
-3 -7 2 1181.670 1184.360 25.404 2.197 o
-3 -7 3 734.993 736.529 21.235 4.741 o
-3 -7 4 680.954 730.507 17.385 5.448 o
-3 -7 5 6.540 2.949 3.264 810.253 o
-3 -7 6 264.149 236.697 12.725 22.131 o
-3 -7 7 310.987 288.410 17.400 15.101 o
-3 -7 8 509.390 548.734 28.417 6.095 o
-3 -7 9 275.398 251.731 15.277 18.727 o
-3 -7 10 33.794 25.058 18.339 33.459 o
-3 -7 11 2.187 2.360 18.702 34.621 o
-3 -6 1 494.885 488.787 12.445 9.851 o
-3 -6 2 156.306 89.955 7.588 56.330 o
-3 -6 3 57.176 47.749 3.716 186.077 o
-3 -6 4 260.665 234.729 8.499 26.830 o
-3 -6 5 121.415 138.480 11.009 45.284 o
-3 -6 6 621.321 676.383 14.874 6.444 o
-3 -6 7 94.308 97.242 7.307 78.287 o
-3 -6 8 521.934 483.720 39.340 4.529 o
-3 -6 9 30.802 47.936 6.625 158.160 o
-3 -6 10 0.004 -0.434 9.533 133.948 o
-3 -6 11 43.832 73.175 20.337 26.194 o
-3 -6 12 41.466 60.828 20.881 25.308 o
-3 -5 1 1009.600 1068.220 27.604 2.660 o
-3 -5 2 3082.190 3265.430 63.831 0.353 o
-3 -5 3 1.142 2.247 1.903 2514.520 o
-3 -5 4 9.516 13.859 2.634 757.007 o
-3 -5 5 289.580 308.539 9.349 21.284 o
-3 -5 6 568.022 578.265 12.826 7.882 o
-3 -5 7 168.822 163.632 7.517 45.188 o
-3 -5 8 67.832 71.315 5.572 121.906 o
-3 -5 9 37.063 34.071 5.028 210.225 o
-3 -5 10 23.588 24.150 15.071 49.121 o
-3 -5 11 40.937 43.215 19.247 29.775 o
-3 -5 12 25.680 54.110 20.518 26.889 o
-3 -5 13 35.655 19.247 19.792 29.085 o
-3 -4 1 2733.980 2793.550 67.073 0.433 o
-3 -4 2 1049.860 1067.560 39.039 2.207 o
-3 -4 3 738.630 848.860 22.721 4.294 o
-3 -4 4 892.530 845.056 24.112 3.525 o
-3 -4 5 589.020 611.991 12.678 7.404 o
-3 -4 6 666.921 678.474 14.075 6.069 o
-3 -4 7 2.556 4.325 3.159 971.107 o
-3 -4 8 58.942 60.030 5.495 138.766 o
-3 -4 9 581.796 531.597 12.580 8.048 o
-3 -4 10 164.842 192.271 24.150 15.060 o
-3 -4 11 50.222 55.199 25.239 17.738 o
-3 -4 12 14.394 34.863 17.068 39.314 o
-3 -4 13 58.278 86.067 23.060 20.326 o
-3 -3 1 1256.200 1363.900 27.396 1.874 o
-3 -3 2 2.109 0.636 1.798 2683.050 o
-3 -3 3 1797.070 1867.830 46.349 0.939 o
-3 -3 4 3481.950 3643.290 71.725 0.281 o
-3 -3 5 577.028 552.282 13.972 7.781 o
-3 -3 6 800.693 886.977 25.724 3.725 o
-3 -3 7 187.107 193.145 6.778 40.761 o
-3 -3 8 101.697 122.273 4.412 87.044 o
-3 -3 9 164.890 161.097 16.342 25.685 o
-3 -3 10 608.584 667.400 36.860 4.090 o
-3 -3 11 97.740 98.033 18.521 27.137 o
-3 -3 12 195.667 149.237 21.244 17.704 o
-3 -3 13 15.064 14.708 15.616 47.462 o
-3 -3 14 32.683 -0.363 20.155 28.638 o
-3 -2 1 478.274 424.622 17.831 9.470 o
-3 -2 2 4.840 -1.180 1.669 2251.990 o
-3 -2 3 2736.950 2525.210 49.933 0.493 o
-3 -2 4 1294.410 1496.900 31.024 1.670 o
-3 -2 5 2682.020 2684.490 56.613 0.474 o
-3 -2 6 317.412 275.251 8.042 21.439 o
-3 -2 7 95.213 92.847 4.733 98.684 o
-3 -2 8 317.090 323.936 7.420 20.317 o
-3 -2 9 156.300 149.556 11.250 38.378 o
-3 -2 10 1194.710 1184.110 52.839 1.571 o
-3 -2 11 758.852 815.203 43.397 2.889 o
-3 -2 12 699.155 579.354 40.128 3.617 o
-3 -2 13 129.541 87.701 18.521 25.708 o
-3 -2 14 2.018 5.084 17.794 38.145 o
-3 -1 1 3616.780 3551.050 59.207 0.284 o
-3 -1 2 4486.320 4036.630 67.469 0.199 o
-3 -1 3 45.159 63.259 3.239 206.399 o
-3 -1 4 5552.400 5515.700 131.232 0.112 o
-3 -1 5 3203.770 3275.080 55.852 0.347 o
-3 -1 6 76.758 69.791 3.828 135.199 o
-3 -1 7 343.430 321.325 9.190 18.093 o
-3 -1 8 1246.350 1262.910 29.872 1.927 o
-3 -1 9 289.714 310.196 31.413 8.265 o
-3 -1 10 59.498 50.660 11.984 61.468 o
-3 -1 11 133.588 112.559 16.160 29.838 o
-3 -1 12 0.223 -11.984 11.258 95.956 o
-3 -1 13 99.183 77.896 18.884 26.786 o
-3 -1 14 103.472 100.393 21.244 21.615 o
-3 -1 15 56.656 74.809 21.244 23.740 o
-3 0 1 74.880 41.671 2.962 170.301 o
-3 0 2 41.932 60.624 5.346 164.967 o
-3 0 3 1334.330 1257.380 22.279 1.909 o
-3 0 4 576.753 594.473 11.749 7.786 o
-3 0 5 5164.060 5189.280 99.083 0.136 o
-3 0 6 0.908 2.245 1.791 2830.760 o
-3 0 7 38.217 31.082 2.870 299.602 o
-3 0 8 1975.440 2041.190 36.699 0.857 o
-3 0 9 254.473 270.486 11.091 23.320 o
-3 0 10 12.304 14.657 7.717 172.561 o
-3 0 11 96.215 79.712 14.345 40.334 o
-3 0 12 54.045 69.543 15.252 41.967 o
-3 0 13 299.691 306.645 32.139 7.942 o
-3 0 14 92.295 77.170 19.973 24.819 o
-3 0 15 24.753 41.944 20.881 26.284 o
-3 1 1 1113.470 842.679 26.227 2.728 o
-3 1 2 17.923 22.604 1.570 634.845 o
-3 1 3 1003.360 1040.690 16.768 3.038 o
-3 1 4 15.927 3.067 1.252 1077.950 o
-3 1 5 102.059 105.175 3.657 96.523 o
-3 1 6 94.546 96.933 4.998 95.736 o
-3 1 7 83.861 53.657 3.831 136.354 o
-3 1 8 1473.000 1449.100 30.888 1.487 o
-3 1 9 407.724 386.536 10.379 13.799 o
-3 1 10 293.516 251.304 28.366 9.744 o
-3 1 11 3.317 15.797 10.531 103.977 o
-3 1 12 269.698 273.235 26.692 10.707 o
-3 1 13 423.275 401.428 33.410 6.280 o
-3 1 14 98.206 120.003 21.426 21.166 o
-3 1 15 1.435 -8.534 16.887 42.572 o
-3 2 1 1746.400 1721.990 26.646 1.145 o
-3 2 2 2577.570 2562.490 39.040 0.547 o
-3 2 3 55.554 55.718 4.403 167.330 o
-3 2 4 226.004 205.439 9.147 30.813 o
-3 2 5 449.652 381.277 8.551 13.093 o
-3 2 6 10.227 5.663 1.783 1172.520 o
-3 2 7 1528.650 1523.070 31.435 1.385 o
-3 2 8 1118.130 1071.950 18.465 2.614 o
-3 2 9 1048.210 1084.920 21.748 2.707 o
-3 2 10 281.163 270.452 9.416 23.017 o
-3 2 11 414.483 466.729 14.693 11.181 o
-3 2 12 978.040 909.059 45.757 2.240 o
-3 2 13 251.834 220.233 28.144 10.585 o
-3 2 14 118.009 116.917 20.700 21.661 o
-3 2 15 19.169 36.134 17.794 35.981 o
-3 3 1 11810.200 11344.300 187.708 0.028 o
-3 3 2 3477.940 4111.950 106.712 0.231 o
-3 3 3 290.631 332.679 8.754 20.881 o
-3 3 4 25.902 46.389 4.088 264.556 o
-3 3 5 2517.020 2467.290 42.945 0.566 o
-3 3 6 338.143 298.964 8.449 19.308 o
-3 3 7 2673.790 2884.640 50.296 0.469 o
-3 3 8 890.679 968.927 19.009 3.510 o
-3 3 9 346.033 315.822 8.469 18.449 o
-3 3 10 20.599 16.525 6.185 222.350 o
-3 3 11 1619.060 1719.970 45.045 1.101 o
-3 3 12 944.529 897.075 44.668 2.353 o
-3 3 13 270.461 263.448 28.507 9.891 o
-3 3 14 17.104 26.873 14.708 52.058 o
-3 3 15 40.245 70.088 20.881 25.180 o
-3 3 16 41.569 41.581 19.792 28.311 o
-3 4 1 1584.690 1710.190 40.847 1.166 o
-3 4 2 1951.220 1967.400 34.656 0.897 o
-3 4 3 251.822 271.631 8.649 25.864 o
-3 4 4 731.834 612.286 16.535 5.585 o
-3 4 5 872.356 798.610 19.502 3.942 o
-3 4 6 791.465 847.941 17.154 4.352 o
-3 4 7 2380.500 2367.650 41.947 0.621 o
-3 4 8 1.176 5.040 2.503 1473.660 o
-3 4 9 58.877 53.015 3.906 173.681 o
-3 4 10 40.538 46.460 3.998 220.502 o
-3 4 11 2195.870 2221.020 56.865 0.651 o
-3 4 12 662.217 648.374 15.965 6.079 o
-3 4 13 150.645 167.213 20.881 19.316 o
-3 4 14 2.589 -3.450 13.800 63.456 o
-3 4 15 167.739 184.463 24.694 14.601 o
-3 4 16 124.102 103.662 23.060 18.312 o
-3 5 1 1851.370 1815.690 33.177 1.004 o
-3 5 2 373.907 310.066 13.314 15.008 o
-3 5 3 185.809 181.048 6.095 43.356 o
-3 5 4 1832.830 1949.730 34.965 0.965 o
-3 5 5 79.453 59.904 4.327 131.912 o
-3 5 6 1284.410 1351.590 25.449 1.869 o
-3 5 7 230.386 279.825 8.273 27.759 o
-3 5 8 121.281 122.257 5.987 69.492 o
-3 5 9 1036.090 1028.010 20.858 2.846 o
-3 5 10 186.613 197.661 8.107 37.965 o
-3 5 11 1010.200 998.605 23.020 2.902 o
-3 5 12 104.793 105.660 6.579 76.663 o
-3 5 13 7.060 9.455 5.745 308.270 o
-3 5 14 185.842 208.976 29.052 11.015 o
-3 5 15 416.359 466.777 39.765 4.952 o
-3 6 1 395.666 425.037 24.948 8.623 o
-3 6 2 1458.720 1541.870 36.030 1.395 o
-3 6 3 1618.630 1674.150 30.793 1.239 o
-3 6 4 1524.190 1364.910 25.861 1.530 o
-3 6 5 23.224 41.354 3.759 304.020 o
-3 6 6 93.641 116.880 5.909 83.776 o
-3 6 7 184.227 205.124 10.787 32.640 o
-3 6 8 1146.150 1070.480 21.684 2.477 o
-3 6 9 1183.670 1200.400 26.952 2.147 o
-3 6 10 387.345 412.554 12.456 13.309 o
-3 6 11 173.091 165.519 8.330 42.211 o
-3 6 12 64.662 73.901 7.445 99.171 o
-3 6 13 30.725 35.173 4.758 236.722 o
-3 6 14 35.453 37.768 16.160 41.413 o
-3 6 15 206.994 194.631 24.694 13.696 o
-3 7 1 426.003 451.762 19.435 9.666 o
-3 7 2 2009.870 1897.030 39.219 0.864 o
-3 7 3 2389.370 2491.100 44.154 0.595 o
-3 7 4 493.988 492.723 15.099 9.283 o
-3 7 5 43.519 50.499 4.394 196.219 o
-3 7 6 20.630 26.155 3.825 356.999 o
-3 7 7 419.895 412.127 11.327 12.753 o
-3 7 8 381.581 354.206 11.680 14.724 o
-3 7 9 20.347 26.573 4.546 303.677 o
-3 7 10 10.533 9.431 4.334 446.986 o
-3 7 11 684.359 723.353 19.064 5.304 o
-3 7 12 73.837 73.861 6.488 104.265 o
-3 7 13 174.023 166.039 9.952 38.108 o
-3 7 14 41.517 46.483 16.523 38.898 o
-3 7 15 91.621 106.385 20.155 23.867 o
-3 8 1 1073.420 1032.350 23.513 2.663 o
-3 8 2 1009.830 1047.430 20.793 2.897 o
-3 8 3 463.367 459.247 11.466 11.022 o
-3 8 4 208.552 206.783 8.066 34.387 o
-3 8 5 68.517 85.138 5.707 113.247 o
-3 8 6 49.599 52.825 6.226 140.424 o
-3 8 7 433.711 410.996 13.219 11.829 o
-3 8 8 753.846 724.535 19.002 4.830 o
-3 8 9 679.831 737.810 19.423 5.253 o
-3 8 10 238.657 204.595 21.661 15.265 o
-3 8 11 5.114 3.335 5.323 380.175 o
-3 8 12 70.868 86.317 6.963 96.760 o
-3 8 13 182.679 203.620 11.319 31.880 o
-3 8 14 285.994 301.743 33.410 7.659 o
-3 8 15 15.663 17.068 17.068 39.910 o
-3 9 1 638.595 595.260 17.753 6.356 o
-3 9 2 290.577 302.966 11.540 19.802 o
-3 9 3 185.538 217.069 10.209 32.899 o
-3 9 4 90.588 67.928 9.079 72.230 o
-3 9 5 2.354 -2.783 3.667 827.287 o
-3 9 6 85.378 108.080 7.896 75.458 o
-3 9 7 524.851 574.554 20.466 7.244 o
-3 9 8 182.278 177.448 12.211 31.519 o
-3 9 9 120.097 142.441 11.997 41.658 o
-3 9 10 0.118 -5.842 6.491 288.484 o
-3 9 11 62.146 53.183 7.974 100.650 o
-3 9 12 154.110 154.779 12.521 34.994 o
-3 9 13 250.585 238.755 15.865 19.593 o
-3 9 14 297.752 276.504 31.594 8.282 o
-3 10 1 546.145 536.296 16.966 7.829 o
-3 10 2 245.933 211.914 24.422 12.950 o
-3 10 3 72.746 45.082 9.170 83.115 o
-3 10 4 14.662 26.157 6.991 188.198 o
-3 10 5 54.002 73.395 16.977 35.071 o
-3 10 6 1002.400 933.049 34.072 2.617 o
-3 10 7 586.394 555.543 17.064 7.203 o
-3 10 8 298.312 302.014 17.480 15.232 o
-3 10 9 8.501 11.406 6.849 222.257 o
-3 10 10 85.342 85.468 9.947 64.731 o
-3 10 11 207.585 182.522 15.197 24.207 o
-3 10 12 188.866 184.682 13.951 27.401 o
-3 10 13 188.719 174.246 14.865 26.235 o
-3 11 1 51.073 57.686 12.983 55.501 o
-3 11 2 17.144 22.334 4.762 313.486 o
-3 11 3 5.527 11.614 7.172 211.081 o
-3 11 4 54.970 59.820 8.534 95.632 o
-3 11 5 79.896 98.730 11.612 54.112 o
-3 11 6 419.308 428.698 17.741 10.519 o
-3 11 7 262.756 243.983 19.118 16.081 o
-3 11 8 37.354 41.942 7.961 123.137 o
-3 11 9 25.139 29.459 7.037 167.086 o
-3 11 10 66.053 67.262 8.652 86.542 o
-3 11 11 208.969 217.148 17.035 20.754 o
-3 11 12 75.559 80.048 11.081 60.440 o
-3 12 1 3.972 -1.831 5.629 359.821 o
-3 12 2 0.418 1.824 5.810 353.082 o
-3 12 3 5.139 7.325 5.512 345.889 o
-3 12 4 98.820 89.720 9.234 64.737 o
-3 12 5 42.073 60.372 7.548 119.128 o
-3 12 6 139.278 137.819 11.229 41.709 o
-3 12 7 45.229 33.555 10.350 83.879 o
-3 12 8 5.622 11.593 9.714 120.949 o
-3 12 9 147.039 171.101 13.721 31.987 o
-3 12 10 83.955 73.984 9.987 66.587 o
-3 12 11 166.996 167.526 18.691 21.645 o
-3 13 1 0.280 -8.897 12.892 73.174 o
-3 13 2 0.946 1.787 8.897 151.874 o
-3 13 3 40.773 70.244 7.849 111.229 o
-3 13 4 150.613 168.402 11.954 36.048 o
-3 13 5 96.303 82.071 8.666 70.670 o
-3 13 6 25.264 26.770 7.936 142.307 o
-3 13 7 18.647 17.826 8.013 152.341 o
-3 13 8 45.461 45.906 9.884 86.843 o
-3 13 9 128.648 141.494 15.162 31.501 o
-2 -14 1 225.915 210.610 21.244 15.889 o
-2 -14 2 86.426 111.288 15.071 37.059 o
-2 -13 1 22.478 21.244 10.350 96.450 o
-2 -13 2 3.001 3.087 10.168 114.997 o
-2 -13 3 29.060 25.239 11.621 76.304 o
-2 -13 4 11.091 36.315 12.710 68.279 o
-2 -12 1 60.101 70.584 11.167 65.039 o
-2 -12 2 1.290 2.153 6.537 276.634 o
-2 -12 3 5.042 -5.589 8.806 151.620 o
-2 -12 4 1.650 12.892 10.531 105.550 o
-2 -12 5 42.217 57.741 13.800 51.840 o
-2 -12 6 72.801 83.888 16.523 34.686 o
-2 -11 1 139.930 105.927 10.104 48.311 o
-2 -11 2 9.731 10.082 5.920 281.628 o
-2 -11 3 239.834 219.648 13.208 23.644 o
-2 -11 4 31.835 27.705 12.256 68.661 o
-2 -11 5 367.582 389.786 29.506 7.762 o
-2 -11 6 44.707 70.088 14.345 47.472 o
-2 -10 1 8.778 7.607 3.905 548.874 o
-2 -10 2 27.474 29.429 4.967 246.022 o
-2 -10 3 204.177 201.386 9.935 32.171 o
-2 -10 4 224.699 224.993 10.782 27.712 o
-2 -10 5 297.880 320.244 19.896 13.466 o
-2 -10 6 2.639 1.625 5.593 367.246 o
-2 -10 7 0.175 15.797 13.981 60.899 o
-2 -10 9 54.311 60.283 22.879 21.076 o
-2 -9 1 305.049 347.148 11.164 18.224 o
-2 -9 2 621.838 552.604 14.620 7.137 o
-2 -9 3 531.277 537.490 14.552 8.440 o
-2 -9 4 368.323 400.707 12.578 14.024 o
-2 -9 5 17.704 18.252 4.802 317.683 o
-2 -9 6 95.320 80.881 6.733 86.275 o
-2 -9 7 163.862 172.444 11.435 35.488 o
-2 -9 9 104.767 109.109 23.060 18.760 o
-2 -9 10 9.184 34.681 21.971 24.453 o
-2 -8 1 1085.810 1032.190 22.775 2.650 o
-2 -8 2 1640.610 1673.650 34.905 1.189 o
-2 -8 3 635.168 680.356 17.685 6.004 o
-2 -8 4 906.894 902.050 20.892 3.503 o
-2 -8 5 8.381 11.024 3.901 531.649 o
-2 -8 6 249.246 250.442 13.979 21.296 o
-2 -8 7 86.273 86.815 6.623 90.609 o
-2 -8 8 366.624 334.790 22.334 10.658 o
-2 -8 9 2.697 -7.808 17.250 40.710 o
-2 -8 10 4.943 17.976 20.337 28.895 o
-2 -8 11 50.816 20.518 21.063 25.307 o
-2 -7 1 1760.130 1853.880 37.704 1.022 o
-2 -7 2 1508.820 1615.910 33.302 1.341 o
-2 -7 3 366.710 364.734 10.610 15.519 o
-2 -7 4 119.194 133.167 9.822 50.899 o
-2 -7 5 30.795 40.598 4.210 251.824 o
-2 -7 6 394.459 363.463 11.239 14.306 o
-2 -7 7 544.724 517.488 23.151 6.857 o
-2 -7 8 370.003 357.834 23.671 9.882 o
-2 -7 9 40.943 32.139 7.292 138.711 o
-2 -7 10 13.767 -8.171 15.434 49.520 o
-2 -7 11 12.459 29.960 19.247 31.529 o
-2 -7 12 44.527 51.386 23.786 19.970 o
-2 -6 1 718.234 638.452 14.466 5.759 o
-2 -6 2 756.252 664.121 14.991 5.311 o
-2 -6 3 303.430 285.720 8.161 21.927 o
-2 -6 4 23.822 26.135 3.095 392.308 o
-2 -6 5 261.466 264.934 9.703 24.369 o
-2 -6 6 486.212 439.124 12.008 10.618 o
-2 -6 7 253.135 237.312 12.128 23.438 o
-2 -6 8 31.819 38.416 5.973 183.732 o
-2 -6 9 34.248 29.988 8.810 113.758 o
-2 -6 10 146.216 130.538 19.519 22.122 o
-2 -6 11 44.617 59.557 19.973 27.312 o
-2 -6 12 168.374 182.102 27.418 12.485 o
-2 -5 1 229.403 246.078 6.662 31.315 o
-2 -5 2 38.646 65.031 3.570 212.910 o
-2 -5 3 1015.380 1144.280 23.794 2.661 o
-2 -5 4 1993.000 1973.620 39.725 0.851 o
-2 -5 5 38.077 23.183 2.969 316.282 o
-2 -5 6 452.041 450.278 12.654 11.092 o
-2 -5 7 41.433 35.411 4.366 220.931 o
-2 -5 8 27.898 23.547 3.908 316.355 o
-2 -5 9 27.378 23.682 4.940 257.239 o
-2 -5 10 285.477 293.390 29.052 9.296 o
-2 -5 11 79.927 67.183 17.250 32.507 o
-2 -5 12 170.143 155.048 23.060 16.423 o
-2 -5 13 52.237 44.849 21.426 24.056 o
-2 -4 1 1961.360 2045.070 47.072 0.813 o
-2 -4 2 15.523 9.061 1.509 900.858 o
-2 -4 3 201.551 216.624 9.378 32.535 o
-2 -4 4 2716.860 2764.610 54.354 0.464 o
-2 -4 5 1951.070 2088.460 41.944 0.833 o
-2 -4 6 360.538 323.616 8.157 17.689 o
-2 -4 7 23.513 26.403 3.174 387.486 o
-2 -4 8 280.103 280.702 8.852 23.187 o
-2 -4 9 1.875 -2.849 5.389 405.067 o
-2 -4 10 299.867 309.690 15.921 16.100 o
-2 -4 12 119.472 95.854 19.792 23.571 o
-2 -4 13 0.514 -1.634 18.702 34.773 o
-2 -4 14 3.622 -6.355 18.884 33.949 o
-2 -3 1 112.817 136.345 6.900 65.610 o
-2 -3 2 150.218 189.942 6.673 48.476 o
-2 -3 3 685.459 653.563 17.604 5.698 o
-2 -3 4 3655.140 3560.370 65.796 0.275 o
-2 -3 5 3897.350 3949.100 66.860 0.239 o
-2 -3 6 312.671 292.730 17.173 15.126 o
-2 -3 7 1.989 0.293 1.991 2380.570 o
-2 -3 8 550.882 576.253 23.242 6.504 o
-2 -3 9 66.154 54.702 6.500 117.897 o
-2 -3 10 3.361 0.427 7.445 212.246 o
-2 -3 11 211.643 209.702 25.784 12.683 o
-2 -3 12 0.470 -9.805 14.345 59.085 o
-2 -3 13 43.238 67.909 20.518 25.912 o
-2 -3 14 44.967 31.594 19.792 28.384 o
-2 -2 1 2357.260 2378.680 56.493 0.584 o
-2 -2 2 997.114 1023.400 44.557 2.156 o
-2 -2 3 12.684 23.836 2.129 659.559 o
-2 -2 4 876.281 830.927 18.161 3.910 o
-2 -2 5 1892.420 2126.030 60.547 0.751 o
-2 -2 6 126.142 100.388 4.063 81.228 o
-2 -2 7 1.253 2.906 1.450 3420.160 o
-2 -2 8 1136.490 1199.950 33.662 2.083 o
-2 -2 9 375.145 359.888 15.036 13.385 o
-2 -2 10 4.100 8.321 5.452 355.557 o
-2 -2 11 390.815 337.876 27.236 8.488 o
-2 -2 13 243.047 235.849 31.231 9.139 o
-2 -2 14 233.370 229.675 28.326 10.671 o
-2 -2 15 78.108 97.306 21.608 21.938 o
-2 -1 1 646.749 689.313 12.165 6.371 o
-2 -1 2 36.543 16.201 1.439 427.727 o
-2 -1 3 488.565 458.062 10.514 10.677 o
-2 -1 4 15.422 15.811 2.828 575.159 o
-2 -1 5 1754.840 1582.190 73.348 0.819 o
-2 -1 6 165.497 146.474 4.852 54.646 o
-2 -1 7 193.545 157.499 8.738 38.640 o
-2 -1 8 2009.950 1993.720 51.832 0.779 o
-2 -1 9 2623.280 2569.940 65.944 0.476 o
-2 -1 10 13.447 10.168 5.136 331.470 o
-2 -1 11 231.034 224.954 22.697 14.373 o
-2 -1 12 44.744 15.979 12.347 66.098 o
-2 -1 13 300.441 329.342 31.776 7.957 o
-2 -1 14 258.045 251.101 33.228 8.148 o
-2 -1 15 140.396 103.843 22.697 18.320 o
-2 0 1 1426.690 1482.600 20.483 1.629 o
-2 0 2 4322.530 4040.030 54.834 0.214 o
-2 0 3 927.210 794.222 16.511 3.828 o
-2 0 4 1011.890 1121.790 23.483 2.708 o
-2 0 5 179.253 239.378 5.975 39.558 o
-2 0 6 124.605 158.773 4.691 66.396 o
-2 0 7 3553.810 3909.230 84.126 0.253 o
-2 0 8 1339.530 1369.430 30.626 1.700 o
-2 0 9 1410.530 1409.040 39.179 1.471 o
-2 0 10 101.949 140.563 11.271 47.476 o
-2 0 11 959.912 1051.270 54.645 1.859 o
-2 0 12 1035.370 1061.560 50.841 1.873 o
-2 0 13 366.225 358.758 31.413 7.369 o
-2 0 14 189.247 151.235 22.697 16.343 o
-2 0 15 0.660 3.813 16.887 42.481 o
-2 1 1 8491.500 7403.130 122.191 0.059 o
-2 1 2 1197.660 1352.310 23.556 2.043 o
-2 1 3 56.466 51.558 5.189 153.267 o
-2 1 4 16.079 39.860 4.953 267.935 o
-2 1 5 965.034 1008.050 18.272 3.182 o
-2 1 6 886.022 842.752 15.665 3.942 o
-2 1 7 4202.410 4333.060 85.028 0.198 o
-2 1 8 1757.870 1918.100 34.479 1.023 o
-2 1 9 1208.100 1154.550 27.204 2.139 o
-2 1 10 105.322 85.553 12.015 48.476 o
-2 1 11 1298.170 1209.310 36.350 1.770 o
-2 1 12 639.364 603.685 35.589 4.225 o
-2 1 14 20.704 -0.363 15.797 46.609 o
-2 1 15 17.936 -9.987 15.797 46.899 o
-2 1 16 38.162 65.912 21.063 24.942 o
-2 2 1 10638.000 9939.390 421.664 0.025 o
-2 2 2 1762.930 1620.530 32.286 1.135 o
-2 2 3 229.299 228.261 9.645 28.664 o
-2 2 4 1083.290 1174.560 21.013 2.518 o
-2 2 5 88.429 44.479 4.064 133.626 o
-2 2 6 238.276 257.426 6.277 30.083 o
-2 2 7 890.428 867.928 16.522 3.827 o
-2 2 8 14.442 10.722 1.716 867.374 o
-2 2 9 309.321 331.630 9.701 19.279 o
-2 2 10 149.669 137.455 12.004 37.948 o
-2 2 11 1818.700 1599.260 184.917 0.275 o
-2 2 12 331.882 336.061 26.328 9.554 o
-2 2 13 252.610 216.602 30.323 9.540 o
-2 2 14 0.783 20.881 15.252 50.974 o
-2 2 15 78.905 127.085 23.605 18.475 o
-2 2 16 122.754 108.019 23.060 18.290 o
-2 3 1 11412.400 9902.550 163.672 0.033 o
-2 3 2 503.528 390.459 22.434 8.173 o
-2 3 3 988.924 987.842 18.077 3.140 o
-2 3 4 888.794 1067.470 19.541 3.308 o
-2 3 5 1071.510 955.035 20.503 2.859 o
-2 3 6 1828.680 2027.000 35.638 0.942 o
-2 3 7 820.750 851.525 16.523 4.215 o
-2 3 8 15.285 21.221 2.391 596.186 o
-2 3 9 402.204 452.864 10.295 12.979 o
-2 3 10 46.867 39.783 3.097 239.144 o
-2 3 11 401.100 411.233 26.692 8.123 o
-2 3 12 356.179 394.891 28.326 8.209 o
-2 3 13 69.001 41.218 14.526 45.246 o
-2 3 14 9.497 -3.995 14.163 59.152 o
-2 3 15 279.411 304.103 34.318 7.413 o
-2 3 16 118.198 112.014 23.786 17.463 o
-2 4 1 2129.140 2744.500 115.562 0.398 o
-2 4 2 1227.260 1318.980 23.738 2.017 o
-2 4 3 3764.530 4150.020 80.814 0.232 o
-2 4 4 3885.890 3770.290 64.058 0.249 o
-2 4 5 825.320 846.197 16.383 4.211 o
-2 4 6 2271.430 2673.110 46.425 0.597 o
-2 4 7 2.660 2.875 2.699 1281.230 o
-2 4 8 353.020 321.264 8.213 18.084 o
-2 4 9 719.139 714.282 14.914 5.409 o
-2 4 10 489.818 499.352 11.536 10.024 o
-2 4 11 33.149 32.061 4.658 238.464 o
-2 4 12 137.026 114.658 8.352 55.048 o
-2 4 13 0.464 0.908 13.437 67.239 o
-2 4 14 89.243 86.249 17.794 29.730 o
-2 4 15 336.956 350.587 33.955 6.932 o
-2 4 16 208.501 196.810 26.328 12.478 o
-2 5 1 1122.770 1253.460 47.743 1.726 o
-2 5 2 1251.520 1148.160 21.307 2.170 o
-2 5 3 1692.490 1672.440 29.952 1.186 o
-2 5 4 304.734 289.081 7.474 22.158 o
-2 5 5 671.565 588.547 12.483 6.608 o
-2 5 6 141.573 181.129 5.934 53.625 o
-2 5 7 227.831 203.082 6.507 34.327 o
-2 5 8 1172.130 1170.060 22.524 2.289 o
-2 5 9 750.947 714.533 15.311 5.142 o
-2 5 10 822.217 802.950 16.925 4.319 o
-2 5 11 18.289 11.783 4.232 385.387 o
-2 5 12 0.285 4.358 9.805 124.890 o
-2 5 13 173.874 183.918 11.802 32.886 o
-2 5 14 327.485 339.329 30.868 7.963 o
-2 5 15 301.166 327.526 33.773 7.331 o
-2 5 16 243.860 264.175 33.773 8.014 o
-2 6 1 1426.930 1424.080 35.874 1.490 o
-2 6 2 1193.090 1251.230 23.134 2.152 o
-2 6 3 225.977 220.554 6.684 33.225 o
-2 6 4 629.385 570.763 12.479 7.184 o
-2 6 5 41.062 31.666 4.939 206.678 o
-2 6 6 150.403 148.089 5.960 55.636 o
-2 6 7 1208.390 1260.030 24.194 2.096 o
-2 6 8 1631.580 1620.460 30.287 1.255 o
-2 6 9 873.783 906.641 18.871 3.718 o
-2 6 10 366.615 371.622 11.505 15.017 o
-2 6 11 3.588 4.565 3.717 715.855 o
-2 6 12 91.808 87.156 8.677 71.303 o
-2 6 13 380.749 388.500 16.574 12.210 o
-2 6 14 580.751 619.921 25.502 5.737 o
-2 6 15 99.392 56.288 18.158 29.097 o
-2 6 16 186.561 188.094 24.513 14.325 o
-2 7 1 325.877 339.265 8.582 18.825 o
-2 7 2 803.318 705.994 14.602 4.853 o
-2 7 3 933.939 1071.900 23.613 3.003 o
-2 7 4 606.615 601.778 13.485 7.160 o
-2 7 5 2.587 6.325 2.686 1177.880 o
-2 7 6 721.765 722.779 15.651 5.303 o
-2 7 7 1756.870 1822.560 33.752 1.059 o
-2 7 8 952.238 988.557 20.307 3.195 o
-2 7 9 523.072 513.887 12.873 9.044 o
-2 7 10 7.006 8.752 3.662 618.963 o
-2 7 11 2.810 0.745 3.554 848.323 o
-2 7 12 149.896 158.305 8.423 46.947 o
-2 7 13 118.932 82.832 9.351 59.238 o
-2 7 14 520.808 541.949 37.405 4.666 o
-2 7 15 58.017 46.847 17.794 33.029 o
-2 8 1 398.742 409.622 10.483 13.684 o
-2 8 2 451.900 470.442 12.630 10.877 o
-2 8 3 84.365 79.936 6.576 94.248 o
-2 8 4 279.629 308.405 8.202 22.736 o
-2 8 5 13.832 23.047 3.085 509.418 o
-2 8 6 793.342 827.508 17.897 4.358 o
-2 8 7 399.704 376.934 10.841 14.056 o
-2 8 8 319.921 329.513 10.300 18.444 o
-2 8 9 3.638 8.671 3.967 606.178 o
-2 8 10 1.471 -0.104 3.870 771.894 o
-2 8 11 119.135 116.151 10.690 48.987 o
-2 8 12 4.154 1.146 4.831 470.070 o
-2 8 13 52.143 67.902 9.095 88.151 o
-2 8 14 6.771 7.989 13.800 61.997 o
-2 8 15 1.066 -9.987 14.889 54.767 o
-2 9 1 300.121 276.416 11.264 20.209 o
-2 9 2 94.923 101.744 6.605 82.084 o
-2 9 3 124.086 140.737 7.533 58.464 o
-2 9 4 107.717 141.026 7.641 62.879 o
-2 9 5 14.401 21.189 3.379 475.922 o
-2 9 6 472.769 518.421 14.479 9.562 o
-2 9 7 623.208 630.244 18.858 6.205 o
-2 9 8 332.671 320.462 11.843 17.178 o
-2 9 9 57.142 81.400 6.490 114.317 o
-2 9 10 30.480 26.920 5.111 233.833 o
-2 9 11 92.635 104.674 8.401 69.753 o
-2 9 12 52.718 42.897 9.405 90.142 o
-2 9 13 132.902 132.006 11.976 40.648 o
-2 9 14 50.367 66.457 17.794 32.887 o
-2 9 15 0.969 2.905 15.797 48.525 o
-2 10 1 279.786 283.744 11.046 21.335 o
-2 10 2 226.502 199.845 9.587 30.418 o
-2 10 3 4.375 4.919 4.031 609.737 o
-2 10 4 14.761 25.493 4.885 307.912 o
-2 10 5 36.480 52.598 6.347 154.440 o
-2 10 6 93.213 106.981 14.773 37.601 o
-2 10 7 166.286 156.981 9.532 40.989 o
-2 10 8 23.863 19.046 5.121 267.581 o
-2 10 9 140.184 159.543 12.302 36.920 o
-2 10 10 215.319 240.885 15.954 21.149 o
-2 10 11 228.350 233.170 14.712 22.124 o
-2 10 12 102.400 111.293 10.409 54.284 o
-2 10 13 131.140 136.527 20.337 21.351 o
-2 10 14 0.022 -8.171 15.434 51.098 o
-2 11 1 64.431 62.503 6.782 112.003 o
-2 11 2 4.369 6.872 4.176 561.105 o
-2 11 3 23.768 43.548 5.704 204.568 o
-2 11 4 568.125 550.092 18.639 7.203 o
-2 11 5 683.396 629.455 20.968 5.476 o
-2 11 6 372.643 361.929 15.838 13.070 o
-2 11 7 312.030 313.157 15.584 15.830 o
-2 11 8 47.681 49.362 7.911 112.846 o
-2 11 9 445.786 428.640 16.155 10.489 o
-2 11 10 672.319 637.381 30.920 4.479 o
-2 11 11 159.719 159.042 20.881 19.145 o
-2 11 12 211.638 228.706 18.311 18.931 o
-2 11 13 25.467 66.094 17.794 34.557 o
-2 12 1 11.327 4.552 8.171 163.884 o
-2 12 2 17.450 26.155 7.626 160.878 o
-2 12 3 130.774 156.737 10.033 45.519 o
-2 12 4 249.374 265.194 13.394 21.479 o
-2 12 5 437.215 468.144 17.993 9.754 o
-2 12 6 79.874 61.666 8.625 81.697 o
-2 12 7 16.261 7.535 7.190 193.469 o
-2 12 8 157.495 165.236 18.569 22.311 o
-2 12 9 373.887 381.315 16.367 12.555 o
-2 12 10 616.780 604.099 20.721 6.149 o
-2 12 11 16.826 18.502 7.679 165.014 o
-2 12 12 159.623 132.356 15.888 27.843 o
-2 13 1 16.617 25.631 11.530 81.270 o
-2 13 2 8.475 7.820 10.259 108.618 o
-2 13 3 30.485 27.268 6.616 174.337 o
-2 13 4 85.733 74.413 8.090 81.047 o
-2 13 5 133.946 131.410 11.135 43.350 o
-2 13 6 40.938 48.035 8.240 112.762 o
-2 13 7 12.839 13.884 7.504 180.654 o
-2 13 8 90.001 79.531 9.688 66.008 o
-2 13 9 230.576 253.948 18.408 17.630 o
-2 13 10 171.020 175.847 15.384 26.503 o
-2 14 2 87.972 85.618 9.161 69.421 o
-2 14 3 80.159 56.812 8.246 86.414 o
-2 14 4 33.025 29.152 10.713 85.074 o
-2 14 5 6.125 6.808 6.849 233.517 o
-2 14 6 3.056 -1.284 7.234 225.490 o
-2 14 7 95.033 108.818 11.465 50.843 o
-1 -14 1 47.280 43.033 11.439 70.116 o
-1 -14 2 62.712 134.893 19.792 25.223 o
-1 -13 1 86.222 91.859 11.439 54.471 o
-1 -13 2 75.827 83.888 12.166 53.292 o
-1 -13 3 0.845 38.494 10.531 99.637 o
-1 -12 1 8.395 9.084 6.151 270.693 o
-1 -12 2 52.729 48.067 13.981 49.899 o
-1 -12 3 87.513 79.842 9.178 70.450 o
-1 -12 4 102.918 131.073 17.159 28.972 o
-1 -12 5 20.385 33.955 12.710 66.409 o
-1 -11 1 1.875 5.011 5.320 396.940 o
-1 -11 2 291.470 302.449 26.510 10.269 o
-1 -11 3 225.423 219.398 27.509 11.304 o
-1 -11 4 356.390 368.734 16.292 13.211 o
-1 -11 5 5.414 9.079 7.447 199.859 o
-1 -11 6 13.610 1.997 11.439 87.609 o
-1 -10 1 311.474 266.680 9.111 21.389 o
-1 -10 2 368.577 410.889 12.793 13.771 o
-1 -10 3 91.254 95.033 12.085 49.794 o
-1 -10 4 396.802 407.570 13.489 12.739 o
-1 -10 5 9.503 16.320 5.468 306.256 o
-1 -10 6 45.543 55.936 10.616 76.643 o
-1 -10 7 95.116 57.623 8.808 74.610 o
-1 -9 1 379.150 391.870 11.342 14.304 o
-1 -9 2 679.593 695.557 17.049 5.626 o
-1 -9 3 355.912 356.657 11.615 15.634 o
-1 -9 4 86.280 97.653 6.969 84.675 o
-1 -9 5 58.990 61.605 5.875 131.351 o
-1 -9 6 180.999 174.766 9.854 36.772 o
-1 -9 7 148.790 150.200 12.386 36.222 o
-1 -9 8 187.859 172.116 16.887 23.150 o
-1 -9 10 4.130 14.163 21.971 24.899 o
-1 -8 1 2091.980 2025.160 35.721 0.810 o
-1 -8 2 1088.090 1108.190 28.899 2.389 o
-1 -8 3 54.650 59.355 4.759 158.732 o
-1 -8 4 1.696 5.032 3.203 970.961 o
-1 -8 5 96.540 76.408 6.120 91.992 o
-1 -8 6 159.933 161.585 8.363 44.850 o
-1 -8 7 194.648 203.003 11.549 30.294 o
-1 -8 8 7.261 4.415 6.017 294.139 o
-1 -8 9 3.259 2.360 8.716 155.336 o
-1 -8 10 92.094 64.096 21.971 21.413 o
-1 -8 11 5.220 23.060 23.060 22.497 o
-1 -7 1 789.076 855.769 16.313 4.388 o
-1 -7 2 430.448 427.110 9.431 12.766 o
-1 -7 3 10.973 25.618 4.583 353.442 o
-1 -7 4 447.980 420.602 11.335 11.887 o
-1 -7 5 277.369 285.794 9.223 22.907 o
-1 -7 6 264.617 255.657 9.100 25.051 o
-1 -7 7 176.630 174.625 9.662 37.809 o
-1 -7 8 0.598 -1.678 4.988 483.096 o
-1 -7 9 2.511 12.677 6.999 226.142 o
-1 -7 10 110.853 119.277 21.971 19.942 o
-1 -7 11 83.204 100.575 22.334 20.542 o
-1 -7 12 94.842 71.178 25.602 16.304 o
-1 -6 1 1969.880 2069.110 35.656 0.857 o
-1 -6 2 101.889 104.127 3.927 95.459 o
-1 -6 3 10.448 5.198 2.302 974.376 o
-1 -6 4 749.156 791.782 17.641 4.741 o
-1 -6 5 1817.540 1878.100 38.397 0.976 o
-1 -6 6 248.354 219.482 10.834 25.912 o
-1 -6 7 185.462 173.869 10.441 34.999 o
-1 -6 8 0.024 2.905 6.355 295.587 o
-1 -6 9 0.717 0.552 4.295 641.458 o
-1 -6 10 80.143 63.442 9.356 74.642 o
-1 -6 11 348.763 395.981 38.131 5.738 o
-1 -6 12 154.522 128.719 25.058 15.120 o
-1 -5 1 106.111 92.484 3.147 100.992 o
-1 -5 2 113.315 96.431 3.342 93.404 o
-1 -5 3 281.961 269.329 12.466 20.425 o
-1 -5 4 989.284 960.188 20.713 3.104 o
-1 -5 5 1486.440 1529.100 31.472 1.424 o
-1 -5 6 134.021 135.950 9.079 50.368 o
-1 -5 7 28.712 36.860 5.629 203.904 o
-1 -5 8 291.039 277.337 14.265 18.307 o
-1 -5 9 135.344 142.286 14.392 32.802 o
-1 -5 10 63.220 43.035 7.890 104.396 o
-1 -5 11 670.693 649.606 42.307 3.414 o
-1 -5 12 102.356 123.635 23.786 17.707 o
-1 -5 13 3.623 8.534 19.973 30.187 o
-1 -4 1 45.316 45.516 3.067 235.691 o
-1 -4 2 171.669 161.655 4.711 51.309 o
-1 -4 3 36.424 58.735 3.158 240.517 o
-1 -4 4 464.297 379.789 9.236 12.524 o
-1 -4 5 186.356 152.929 5.443 47.388 o
-1 -4 6 106.558 83.020 6.618 80.867 o
-1 -4 7 104.667 103.650 9.247 60.876 o
-1 -4 8 432.405 420.832 13.257 11.729 o
-1 -4 9 557.785 558.284 19.936 7.063 o
-1 -4 10 4.224 3.387 5.979 312.442 o
-1 -4 12 12.277 13.981 15.797 46.759 o
-1 -4 13 19.990 20.518 19.792 29.758 o
-1 -4 14 68.203 28.871 21.426 23.781 o
-1 -3 1 8.690 5.367 1.000 1679.260 o
-1 -3 2 605.794 739.402 20.523 5.698 o
-1 -3 3 1712.130 1737.320 34.275 1.116 o
-1 -3 4 4338.340 4366.340 84.236 0.190 o
-1 -3 5 1260.730 1282.850 32.165 1.848 o
-1 -3 6 1224.210 1286.030 32.625 1.892 o
-1 -3 7 123.852 116.713 4.929 74.485 o
-1 -3 8 968.271 1039.850 29.830 2.728 o
-1 -3 9 872.975 855.004 26.239 3.473 o
-1 -3 10 63.108 89.450 21.962 21.948 o
-1 -3 11 1.958 8.386 6.584 260.753 o
-1 -3 12 0.499 -1.816 14.345 59.081 o
-1 -3 13 29.919 41.218 17.250 37.135 o
-1 -3 14 32.926 8.716 19.792 29.444 o
-1 -2 1 52.890 40.166 2.814 226.899 o
-1 -2 2 300.535 261.414 6.056 24.316 o
-1 -2 3 1992.240 1890.670 44.995 0.844 o
-1 -2 4 736.173 659.738 14.006 5.555 o
-1 -2 5 50.887 54.582 2.851 211.243 o
-1 -2 6 968.091 983.905 29.449 2.817 o
-1 -2 7 1646.520 1706.240 73.802 0.833 o
-1 -2 8 805.836 860.473 37.495 3.056 o
-1 -2 9 884.516 857.069 26.239 3.426 o
-1 -2 10 84.349 87.277 10.976 58.101 o
-1 -2 11 509.385 543.438 20.938 7.508 o
-1 -2 12 221.145 204.799 28.871 10.697 o
-1 -2 13 74.532 71.722 20.700 24.208 o
-1 -2 14 44.193 28.871 17.250 36.528 o
-1 -2 15 0.794 -1.453 17.976 37.620 o
-1 -1 3 374.801 332.499 9.864 16.148 o
-1 -1 4 11.503 13.098 1.290 1037.580 o
-1 -1 5 134.227 134.443 17.340 26.498 o
-1 -1 6 717.789 654.892 19.213 5.297 o
-1 -1 7 1409.770 1488.640 39.129 1.432 o
-1 -1 8 770.266 787.858 23.852 4.210 o
-1 -1 9 565.188 552.507 30.051 5.432 o
-1 -1 10 282.435 247.510 13.391 20.169 o
-1 -1 11 1117.690 1066.340 32.882 2.262 o
-1 -1 12 466.884 495.648 33.228 5.723 o
-1 -1 13 333.338 320.627 31.776 7.707 o
-1 -1 14 88.736 56.288 17.613 31.221 o
-1 -1 15 8.635 2.905 17.431 39.346 o
-1 0 2 116.912 113.634 2.696 88.159 o
-1 0 3 6512.460 5528.130 130.242 0.094 o
-1 0 4 7274.270 6446.300 123.506 0.077 o
-1 0 5 540.891 504.061 15.214 8.430 o
-1 0 6 2587.930 2785.440 109.663 0.358 o
-1 0 7 2745.240 2649.210 66.034 0.446 o
-1 0 8 382.316 378.291 14.189 13.281 o
-1 0 9 0.192 0.652 4.580 572.614 o
-1 0 10 4.649 5.932 5.061 409.058 o
-1 0 11 1719.750 1677.740 46.916 1.034 o
-1 0 12 1363.120 1392.180 61.010 1.200 o
-1 0 14 160.018 131.443 21.063 19.373 o
-1 0 15 5.247 -8.897 15.979 47.151 o
-1 0 16 61.162 27.418 18.702 30.671 o
-1 1 1 2965.640 2623.470 49.135 0.440 o
-1 1 2 24.221 8.451 1.472 661.377 o
-1 1 3 4339.680 4208.640 69.960 0.202 o
-1 1 4 20.623 29.204 2.272 476.128 o
-1 1 5 907.293 969.667 17.300 3.504 o
-1 1 6 8756.690 8689.550 143.930 0.050 o
-1 1 7 1429.180 1510.470 39.930 1.392 o
-1 1 8 329.460 368.929 17.159 13.517 o
-1 1 9 82.607 105.245 11.893 51.417 o
-1 1 10 639.747 731.678 35.770 3.945 o
-1 1 11 542.466 519.738 20.355 7.374 o
-1 1 12 1045.730 1060.660 49.933 1.887 o
-1 1 13 242.419 237.483 26.692 11.384 o
-1 1 14 6.640 0.000 13.800 62.731 o
-1 1 15 293.186 297.203 33.955 7.449 o
-1 1 16 157.216 135.619 23.423 16.617 o
-1 2 1 22.714 57.806 2.365 332.983 o
-1 2 2 1435.990 1705.520 37.435 1.324 o
-1 2 3 1301.930 1218.090 21.275 2.011 o
-1 2 4 897.636 880.091 15.895 3.790 o
-1 2 5 1657.810 1665.540 28.902 1.224 o
-1 2 6 1765.800 2052.470 35.468 0.972 o
-1 2 7 637.805 571.675 11.274 7.199 o
-1 2 8 99.716 112.344 4.708 89.468 o
-1 2 9 111.601 103.272 9.362 58.407 o
-1 2 10 780.069 776.626 25.869 4.050 o
-1 2 11 28.011 36.800 7.962 133.859 o
-1 2 12 728.130 674.663 36.678 3.646 o
-1 2 13 67.657 70.815 15.071 41.179 o
-1 2 14 2.292 4.539 14.708 55.638 o
-1 2 15 123.935 105.296 20.881 21.370 o
-1 2 16 147.072 191.181 27.781 12.479 o
-1 3 1 1.190 32.576 2.758 701.851 o
-1 3 2 2567.840 2133.810 50.575 0.578 o
-1 3 3 2832.060 2863.250 56.071 0.431 o
-1 3 4 38.153 53.186 8.478 108.904 o
-1 3 5 1183.010 962.052 20.683 2.541 o
-1 3 6 2.505 4.345 2.175 1676.130 o
-1 3 7 797.729 848.961 16.186 4.365 o
-1 3 8 315.042 299.110 7.282 21.271 o
-1 3 9 578.592 600.719 15.055 7.308 o
-1 3 10 25.168 20.872 2.897 419.256 o
-1 3 11 23.903 18.861 7.023 177.561 o
-1 3 12 7.098 3.995 9.987 116.256 o
-1 3 13 15.571 10.895 10.895 93.281 o
-1 3 14 115.551 125.088 19.066 24.415 o
-1 3 15 19.099 45.212 17.976 35.015 o
-1 3 16 169.325 153.595 23.968 15.564 o
-1 4 1 582.892 591.514 22.825 6.214 o
-1 4 2 1060.950 990.271 18.038 2.903 o
-1 4 3 3135.290 3145.330 53.348 0.367 o
-1 4 4 890.110 882.300 16.458 3.798 o
-1 4 5 599.624 572.808 11.557 7.647 o
-1 4 6 310.161 316.471 7.493 20.920 o
-1 4 7 879.494 913.122 17.511 3.735 o
-1 4 8 911.779 879.879 17.777 3.655 o
-1 4 9 761.382 818.421 16.343 4.661 o
-1 4 10 38.201 42.706 5.898 171.205 o
-1 4 11 3.500 6.730 3.726 690.987 o
-1 4 12 56.264 59.896 5.460 142.762 o
-1 4 13 172.280 222.775 24.150 14.562 o
-1 4 14 247.617 289.759 30.142 9.280 o
-1 4 15 30.504 25.602 15.434 46.155 o
-1 4 16 140.700 143.064 22.152 18.422 o
-1 5 1 1302.050 1349.450 83.516 0.941 o
-1 5 2 6637.750 7003.350 134.664 0.080 o
-1 5 3 3627.540 4007.820 97.324 0.233 o
-1 5 4 7132.840 7236.960 139.553 0.072 o
-1 5 5 484.266 511.423 16.258 9.038 o
-1 5 6 539.104 573.129 14.159 8.131 o
-1 5 7 1877.930 1974.970 40.940 0.901 o
-1 5 8 1991.580 2082.840 43.362 0.810 o
-1 5 9 1016.820 1072.750 24.593 2.729 o
-1 5 10 139.915 128.533 8.154 53.385 o
-1 5 11 7.364 11.021 3.556 616.589 o
-1 5 12 88.211 98.759 11.521 52.902 o
-1 5 13 221.409 235.626 10.848 27.448 o
-1 5 14 437.106 451.724 33.047 6.093 o
-1 5 15 119.950 124.180 18.884 24.563 o
-1 5 16 59.109 39.039 17.068 35.681 o
-1 6 1 347.652 343.372 7.872 17.953 o
-1 6 2 136.072 112.349 4.340 72.434 o
-1 6 3 231.973 181.524 9.863 30.389 o
-1 6 4 220.520 202.087 9.016 31.782 o
-1 6 5 423.358 519.882 11.404 11.260 o
-1 6 6 831.509 893.866 17.653 3.998 o
-1 6 7 1065.180 1067.380 20.657 2.713 o
-1 6 8 1330.500 1293.800 26.861 1.822 o
-1 6 9 430.191 441.974 10.943 12.175 o
-1 6 10 166.110 162.733 6.684 47.943 o
-1 6 11 102.128 90.823 7.976 71.661 o
-1 6 12 87.301 89.293 8.979 70.338 o
-1 6 13 487.753 523.649 18.742 8.356 o
-1 6 14 414.328 423.619 17.028 10.902 o
-1 6 15 279.359 267.806 31.776 8.424 o
-1 6 16 15.455 37.586 17.976 35.495 o
-1 7 1 965.452 961.776 18.535 3.255 o
-1 7 2 871.804 800.004 15.911 4.110 o
-1 7 3 549.509 641.691 13.437 7.627 o
-1 7 4 64.718 58.402 3.565 164.429 o
-1 7 5 88.103 98.288 5.836 92.833 o
-1 7 6 337.210 276.948 8.283 20.059 o
-1 7 7 1050.180 1112.800 25.421 2.567 o
-1 7 8 605.568 625.810 19.591 6.298 o
-1 7 9 0.939 3.133 3.273 1009.160 o
-1 7 10 49.797 61.775 5.638 146.426 o
-1 7 11 398.657 416.862 26.510 8.171 o
-1 7 12 103.138 123.284 10.379 52.938 o
-1 7 13 535.903 439.196 22.152 7.558 o
-1 7 14 218.464 214.296 13.917 24.304 o
-1 7 15 113.819 104.206 20.881 21.763 o
-1 7 16 151.415 137.798 23.423 16.734 o
-1 8 1 45.419 65.973 4.048 184.290 o
-1 8 2 269.005 250.510 7.443 26.390 o
-1 8 3 121.183 104.338 6.945 68.127 o
-1 8 4 9.926 13.737 2.662 741.126 o
-1 8 5 31.903 23.584 2.792 362.579 o
-1 8 6 361.189 378.486 9.162 16.052 o
-1 8 7 1129.560 1117.390 22.371 2.446 o
-1 8 8 8.812 17.103 3.629 532.990 o
-1 8 9 20.169 22.694 3.753 378.127 o
-1 8 10 586.123 615.459 16.563 6.939 o
-1 8 11 93.043 92.679 10.522 58.058 o
-1 8 12 517.939 503.608 19.589 7.912 o
-1 8 13 284.724 279.819 16.181 17.022 o
-1 8 14 152.567 170.696 13.394 32.231 o
-1 8 15 2.030 -2.724 15.071 53.337 o
-1 8 16 53.462 51.749 17.976 32.592 o
-1 9 1 15.088 11.640 3.302 537.625 o
-1 9 2 0.854 3.389 2.700 1405.650 o
-1 9 3 22.953 16.475 3.164 435.954 o
-1 9 4 349.792 414.602 13.448 14.023 o
-1 9 5 664.773 602.507 12.650 6.591 o
-1 9 6 220.483 236.327 8.323 30.874 o
-1 9 7 744.527 793.355 15.721 4.887 o
-1 9 8 10.076 8.012 3.820 543.950 o
-1 9 9 132.001 119.400 8.181 56.464 o
-1 9 10 226.208 219.344 10.225 28.593 o
-1 9 11 10.021 25.030 14.980 51.340 o
-1 9 12 119.832 123.817 14.163 35.880 o
-1 9 13 17.486 23.548 13.255 63.258 o
-1 9 14 92.930 95.491 18.339 27.892 o
-1 9 15 165.470 221.686 31.413 9.894 o
-1 10 1 283.357 286.995 22.143 12.851 o
-1 10 2 76.872 84.297 10.727 61.939 o
-1 10 3 229.812 227.576 13.800 23.305 o
-1 10 4 496.573 500.222 18.562 8.435 o
-1 10 5 556.746 578.013 19.994 6.959 o
-1 10 6 380.994 392.393 11.499 14.175 o
-1 10 7 25.292 29.915 4.985 251.401 o
-1 10 8 46.818 43.805 5.360 170.418 o
-1 10 9 345.932 341.728 18.327 12.850 o
-1 10 10 748.664 797.501 25.951 4.143 o
-1 10 12 608.989 582.078 35.952 4.363 o
-1 10 13 40.994 35.770 15.434 44.415 o
-1 10 14 75.178 86.067 18.702 28.272 o
-1 10 15 223.959 234.033 30.323 9.756 o
-1 11 1 11.845 25.081 7.354 179.342 o
-1 11 2 63.252 74.924 10.804 66.396 o
-1 11 3 272.531 279.800 12.177 20.907 o
-1 11 4 451.679 474.290 16.854 9.757 o
-1 11 5 713.996 749.817 23.492 4.644 o
-1 11 6 322.659 315.204 20.155 12.781 o
-1 11 7 0.185 -1.921 5.375 419.962 o
-1 11 8 136.026 133.436 9.237 49.613 o
-1 11 9 465.019 483.396 16.227 9.603 o
-1 11 10 200.566 223.263 12.662 27.075 o
-1 11 11 40.061 32.449 12.620 62.958 o
-1 11 12 27.685 23.907 10.005 98.740 o
-1 11 13 117.219 113.104 19.973 22.977 o
-1 11 14 273.863 263.448 31.049 8.774 o
-1 12 1 6.075 4.172 4.926 423.932 o
-1 12 2 110.693 106.484 8.759 61.434 o
-1 12 3 302.132 303.717 14.193 17.321 o
-1 12 4 250.317 232.772 25.058 12.262 o
-1 12 5 244.370 238.994 13.655 22.246 o
-1 12 6 149.550 144.915 11.659 38.456 o
-1 12 7 233.084 250.614 41.118 5.957 o
-1 12 8 382.528 342.790 14.501 13.656 o
-1 12 9 709.259 708.094 21.345 4.985 o
-1 12 10 202.546 216.972 13.947 25.241 o
-1 12 11 255.517 264.982 19.834 15.413 o
-1 12 12 48.753 50.050 11.650 66.872 o
-1 12 13 332.952 335.765 47.936 4.226 o
-1 13 1 35.059 28.036 7.198 150.116 o
-1 13 2 127.282 136.330 14.526 33.488 o
-1 13 3 197.766 199.982 27.236 12.024 o
-1 13 4 33.536 31.957 6.079 182.974 o
-1 13 5 26.532 29.804 7.105 162.733 o
-1 13 6 8.690 14.752 7.899 170.704 o
-1 13 7 210.926 213.442 14.681 23.775 o
-1 13 8 189.595 180.957 17.250 22.303 o
-1 13 9 181.783 184.019 15.146 25.905 o
-1 13 10 26.086 22.600 11.893 74.583 o
-1 13 11 142.930 119.120 14.889 31.911 o
-1 14 1 5.723 3.632 12.166 80.026 o
-1 14 2 20.756 13.140 7.085 185.114 o
-1 14 3 25.192 20.207 6.973 176.247 o
-1 14 4 2.597 6.934 6.613 258.886 o
-1 14 5 0.623 -4.092 9.079 147.086 o
-1 14 6 37.800 29.999 8.191 123.142 o
-1 14 7 71.859 58.670 10.158 71.527 o
-1 14 8 21.646 22.989 9.565 110.064 o
-1 14 9 4.873 8.171 14.345 57.783 o
0 -14 1 8.996 31.231 10.350 100.559 o
0 -13 1 0.013 0.726 8.897 153.380 o
0 -13 2 47.866 55.199 10.713 75.004 o
0 -13 3 92.840 143.608 19.429 24.366 o
0 -12 1 14.588 7.989 7.808 170.631 o
0 -12 2 191.966 185.189 16.160 23.638 o
0 -12 3 142.793 110.743 14.889 32.291 o
0 -12 4 381.266 420.856 26.328 8.402 o
0 -12 5 118.511 169.755 23.060 17.578 o
0 -11 1 318.570 318.946 20.155 12.833 o
0 -11 2 430.031 453.898 13.588 11.299 o
0 -11 3 181.948 171.050 17.613 22.416 o
0 -11 4 24.077 24.616 6.643 186.516 o
0 -11 5 6.807 -1.236 7.265 215.541 o
0 -10 1 419.865 375.741 10.119 13.667 o
0 -10 2 722.633 736.741 15.917 5.226 o
0 -10 3 258.096 261.578 8.881 25.542 o
0 -10 4 57.477 63.171 7.996 100.147 o
0 -10 5 9.183 17.704 5.906 270.859 o
0 -10 6 91.840 91.133 11.439 53.375 o
0 -9 1 115.971 113.703 5.226 77.416 o
0 -9 2 155.086 159.449 6.388 51.669 o
0 -9 3 49.162 42.887 3.875 206.157 o
0 -9 4 182.357 173.831 9.406 37.631 o
0 -9 5 185.447 176.629 8.886 38.108 o
0 -9 6 16.375 7.023 5.883 266.093 o
0 -9 7 269.285 272.514 14.392 19.311 o
0 -9 8 20.387 20.518 8.897 125.831 o
0 -8 1 1229.170 1198.910 22.252 2.148 o
0 -8 2 186.844 230.707 6.857 37.659 o
0 -8 3 157.595 150.907 5.797 53.764 o
0 -8 4 138.192 146.657 6.526 57.453 o
0 -8 5 180.267 166.921 8.879 39.629 o
0 -8 6 107.445 122.788 14.254 36.970 o
0 -8 7 23.675 23.652 5.635 232.597 o
0 -8 8 16.419 14.007 7.626 170.530 o
0 -8 9 0.897 -4.721 8.534 166.039 o
0 -7 1 479.437 495.467 10.373 10.497 o
0 -7 2 11.261 13.008 2.173 832.225 o
0 -7 3 66.448 63.987 6.394 115.149 o
0 -7 4 880.750 866.620 16.737 3.867 o
0 -7 5 1165.160 1190.170 22.143 2.289 o
0 -7 6 40.568 42.389 9.079 101.220 o
0 -7 7 54.765 68.817 9.805 79.130 o
0 -7 8 231.367 221.055 11.220 26.730 o
0 -7 9 65.002 55.991 6.604 116.797 o
0 -7 10 4.315 -12.301 7.762 194.499 o
0 -7 11 284.413 306.282 40.673 5.719 o
0 -6 1 580.820 600.753 31.002 5.059 o
0 -6 2 136.069 135.740 4.352 67.543 o
0 -6 3 644.191 666.105 12.950 6.448 o
0 -6 4 1158.250 1165.710 21.192 2.349 o
0 -6 5 1450.940 1528.390 27.230 1.507 o
0 -6 6 701.090 694.170 19.572 5.244 o
0 -6 7 1.397 -1.042 4.358 616.623 o
0 -6 8 82.560 83.229 12.429 50.665 o
0 -6 9 337.449 315.179 18.702 13.204 o
0 -6 10 20.524 10.466 5.793 252.671 o
0 -6 11 215.049 201.713 25.965 12.570 o
0 -6 12 24.899 -5.447 19.247 31.654 o
0 -5 1 67.662 112.152 5.896 101.292 o
0 -5 2 282.451 351.688 8.491 20.963 o
0 -5 3 1122.480 1063.510 19.041 2.602 o
0 -5 4 1714.760 1806.740 31.320 1.109 o
0 -5 5 944.958 959.006 20.496 3.267 o
0 -5 6 1409.290 1434.520 29.278 1.588 o
0 -5 7 92.117 97.522 7.163 80.304 o
0 -5 8 285.821 263.153 11.678 21.055 o
0 -5 9 941.936 962.087 22.570 3.195 o
0 -5 10 342.583 302.340 18.943 13.107 o
0 -5 11 93.049 75.786 27.137 14.702 o
0 -5 12 65.561 72.630 21.608 22.777 o
0 -5 13 0.544 -12.892 17.613 39.203 o
0 -4 1 1005.700 961.195 16.905 3.161 o
0 -4 2 419.525 385.892 7.597 14.224 o
0 -4 3 310.346 288.313 6.213 22.509 o
0 -4 4 404.448 353.162 7.391 15.432 o
0 -4 5 585.368 578.409 12.712 7.663 o
0 -4 6 527.211 510.684 11.617 9.211 o
0 -4 7 282.113 271.268 9.487 22.866 o
0 -4 8 365.791 354.713 11.419 15.391 o
0 -4 9 548.849 561.877 14.354 8.044 o
0 -4 10 501.335 482.514 19.081 8.379 o
0 -4 11 227.540 209.884 18.158 18.837 o
0 -4 12 11.262 7.626 16.523 43.261 o
0 -4 13 103.859 113.285 22.697 19.220 o
0 -4 14 89.980 78.622 23.968 18.315 o
0 -3 1 4233.610 3973.640 65.880 0.217 o
0 -3 2 46.998 43.679 1.853 263.412 o
0 -3 3 236.630 307.260 6.190 27.785 o
0 -3 4 118.007 152.878 6.133 64.383 o
0 -3 5 13.334 18.131 1.780 771.166 o
0 -3 6 16.891 21.765 3.015 488.486 o
0 -3 7 892.069 881.494 38.131 2.770 o
0 -3 8 155.682 142.050 5.618 56.014 o
0 -3 9 162.631 174.267 11.621 35.089 o
0 -3 10 179.660 207.038 26.964 12.432 o
0 -3 11 652.439 694.150 36.224 3.927 o
0 -3 12 280.760 297.748 31.594 8.340 o
0 -3 13 215.003 195.539 25.239 13.131 o
0 -3 14 70.473 56.107 20.337 25.441 o
0 -2 1 3463.610 3043.040 50.355 0.335 o
0 -2 2 116.413 110.480 3.748 85.217 o
0 -2 3 2055.370 1992.170 33.476 0.844 o
0 -2 4 29.858 25.996 2.347 395.947 o
0 -2 5 8.795 22.002 1.626 886.680 o
0 -2 6 1897.630 2081.130 81.246 0.641 o
0 -2 7 1740.100 1704.390 43.924 1.037 o
0 -2 8 1575.930 1626.720 79.430 0.826 o
0 -2 9 10.353 8.645 4.490 430.392 o
0 -2 10 46.903 48.109 6.845 133.571 o
0 -2 11 541.728 550.549 21.071 7.085 o
0 -2 12 804.171 881.278 47.936 2.481 o
0 -2 13 289.205 211.881 30.686 9.024 o
0 -2 14 21.665 5.810 17.431 38.308 o
0 -2 15 24.067 9.260 20.700 27.362 o
0 -1 1 1769.930 1727.740 94.693 0.638 o
0 -1 2 555.927 547.914 10.896 8.535 o
0 -1 3 4114.670 3772.360 71.902 0.227 o
0 -1 4 219.451 282.476 6.065 30.981 o
0 -1 5 842.757 806.369 24.140 3.809 o
0 -1 6 6960.430 6987.440 205.698 0.066 o
0 -1 7 1462.150 1414.250 64.541 1.084 o
0 -1 8 463.049 463.693 26.592 7.227 o
0 -1 9 71.257 65.244 10.078 71.321 o
0 -1 10 290.832 277.610 13.913 18.587 o
0 -1 11 101.782 111.398 10.592 53.493 o
0 -1 12 879.157 851.713 38.939 2.798 o
0 -1 13 210.420 191.726 23.786 14.366 o
0 -1 14 1.654 13.981 14.526 56.426 o
0 -1 15 103.151 58.649 19.792 25.118 o
0 0 3 43.909 35.226 4.176 220.882 o
0 0 4 5508.310 4780.240 160.495 0.113 o
0 0 5 3275.520 3893.880 132.532 0.223 o
0 0 6 2636.350 2695.580 94.401 0.393 o
0 0 7 862.458 810.845 33.955 3.164 o
0 0 8 0.761 5.447 5.629 362.669 o
0 0 9 57.601 70.088 10.531 71.081 o
0 0 10 421.578 416.600 16.907 10.865 o
0 0 11 42.355 38.923 6.589 149.752 o
0 0 12 760.196 744.321 26.648 4.164 o
0 0 13 97.656 58.286 17.431 31.064 o
0 0 14 3.034 -4.903 15.071 53.210 o
0 0 15 93.198 102.572 21.426 21.638 o
0 0 16 229.895 191.907 25.602 12.641 o
0 1 2 1277.160 1128.780 21.937 2.129 o
0 1 3 2076.390 2125.900 35.622 0.795 o
0 1 4 1169.690 1300.230 31.535 1.989 o
0 1 5 1066.820 1084.410 22.317 2.643 o
0 1 6 2377.020 2197.940 77.896 0.528 o
0 1 7 15.620 14.679 3.577 472.847 o
0 1 8 323.355 328.798 18.884 13.291 o
0 1 9 258.153 283.222 18.884 15.790 o
0 1 10 680.279 647.790 32.502 4.259 o
0 1 11 248.708 232.036 20.881 15.254 o
0 1 12 105.741 115.809 11.631 47.470 o
0 1 13 98.850 100.030 16.160 33.024 o
0 1 14 76.298 88.246 18.339 29.055 o
0 1 15 8.361 4.903 14.345 57.500 o
0 1 16 463.492 434.656 40.128 4.763 o
0 2 0 1189.280 1315.760 27.883 2.014 o
0 2 1 6.018 12.612 1.048 1543.860 o
0 2 2 152.732 247.384 7.731 40.108 o
0 2 3 139.816 183.864 4.024 58.652 o
0 2 4 2386.240 2164.000 42.160 0.650 o
0 2 5 159.088 155.084 4.756 55.469 o
0 2 6 11.217 4.140 1.396 1311.520 o
0 2 7 142.991 139.172 7.893 52.307 o
0 2 8 573.023 558.519 13.369 7.876 o
0 2 9 969.735 1004.310 29.527 2.782 o
0 2 10 146.478 149.118 11.619 38.700 o
0 2 11 154.730 130.172 16.705 26.620 o
0 2 12 29.474 33.955 11.258 78.890 o
0 2 13 91.104 105.114 16.523 32.393 o
0 2 14 301.446 321.716 30.505 8.419 o
0 2 15 110.455 101.846 21.063 21.634 o
0 2 16 186.872 220.596 27.236 12.033 o
0 3 1 2252.420 2051.320 30.987 0.752 o
0 3 2 163.222 136.545 6.552 52.021 o
0 3 3 1266.660 1360.610 23.575 1.917 o
0 3 4 146.483 173.965 4.317 57.444 o
0 3 5 859.619 734.324 13.612 4.461 o
0 3 6 2367.000 2554.440 51.642 0.572 o
0 3 7 1321.200 1289.380 27.270 1.833 o
0 3 8 1783.960 1828.450 37.818 1.014 o
0 3 9 545.035 571.335 15.828 7.802 o
0 3 10 437.310 427.097 11.791 11.953 o
0 3 11 1.619 12.042 6.809 240.920 o
0 3 12 30.357 30.142 10.350 90.829 o
0 3 13 83.926 90.951 15.979 35.226 o
0 3 14 150.276 160.132 23.242 16.676 o
0 3 15 203.431 224.773 30.868 9.762 o
0 3 16 13.007 6.537 17.431 38.903 o
0 4 0 9495.240 8901.930 169.598 0.043 o
0 4 1 46.729 31.054 2.825 263.746 o
0 4 2 1185.090 1079.630 17.164 2.460 o
0 4 3 2116.200 1945.160 33.406 0.826 o
0 4 4 8.182 23.124 1.748 862.641 o
0 4 5 2283.350 2223.030 38.298 0.686 o
0 4 6 1439.560 1457.220 25.967 1.575 o
0 4 7 2109.170 2279.200 46.189 0.712 o
0 4 8 285.749 247.694 8.098 24.586 o
0 4 9 199.112 189.500 7.301 38.179 o
0 4 10 12.372 15.964 3.287 547.959 o
0 4 11 249.914 254.579 10.945 24.343 o
0 4 12 17.351 21.690 3.254 456.311 o
0 4 13 255.543 327.708 26.692 10.517 o
0 4 15 227.875 222.412 31.413 9.275 o
0 4 16 21.135 19.610 17.068 39.383 o
0 5 0 671.416 698.669 15.093 5.851 o
0 5 1 4056.920 3796.150 68.287 0.233 o
0 5 2 344.474 334.926 12.711 15.931 o
0 5 3 2099.370 2220.390 36.886 0.761 o
0 5 4 134.863 116.722 4.717 70.581 o
0 5 5 283.104 288.392 7.205 23.892 o
0 5 6 880.366 774.661 15.082 4.168 o
0 5 7 3216.900 3570.920 61.044 0.322 o
0 5 8 1137.090 1225.060 27.086 2.210 o
0 5 9 304.645 315.453 10.198 19.651 o
0 5 10 13.112 7.475 3.172 626.364 o
0 5 11 33.011 28.678 4.232 264.299 o
0 5 12 84.763 96.618 12.610 48.221 o
0 5 13 481.906 536.231 17.596 8.595 o
0 5 15 162.233 213.152 30.142 10.650 o
0 5 16 53.341 72.086 20.518 25.421 o
0 6 0 882.156 874.629 14.627 3.923 o
0 6 1 1962.390 2094.260 32.475 0.868 o
0 6 2 4010.180 4077.650 68.874 0.226 o
0 6 3 361.825 383.830 14.598 13.618 o
0 6 4 220.081 271.919 6.208 31.373 o
0 6 5 339.644 339.910 8.099 18.336 o
0 6 6 1361.830 1471.480 26.798 1.655 o
0 6 7 5274.340 5528.280 93.352 0.129 o
0 6 8 1553.630 1622.150 29.630 1.330 o
0 6 9 339.981 398.871 12.217 15.165 o
0 6 10 76.055 87.001 6.568 97.354 o
0 6 11 10.374 11.913 4.024 481.789 o
0 6 12 754.125 749.817 23.422 4.425 o
0 6 13 587.543 616.940 35.407 4.443 o
0 6 14 240.133 237.066 12.332 24.091 o
0 6 15 0.202 0.545 13.800 63.835 o
0 6 16 25.131 36.315 17.613 36.257 o
0 7 0 631.258 637.108 11.525 6.869 o
0 7 1 1164.020 1175.380 21.699 2.316 o
0 7 2 37.368 34.373 5.137 205.228 o
0 7 3 138.952 183.238 9.854 42.392 o
0 7 4 17.514 10.431 1.929 736.258 o
0 7 5 495.461 463.064 14.206 9.711 o
0 7 6 71.375 50.387 3.490 161.121 o
0 7 7 1389.480 1545.930 28.673 1.552 o
0 7 8 324.750 341.412 9.125 18.551 o
0 7 9 0.153 1.638 3.602 901.903 o
0 7 10 286.616 253.736 10.771 22.066 o
0 7 11 45.837 43.287 5.552 167.571 o
0 7 12 1259.600 1254.970 35.469 1.808 o
0 7 13 301.747 289.998 14.399 17.474 o
0 7 14 1.517 4.033 6.587 268.711 o
0 7 15 148.187 135.074 20.337 20.724 o
0 7 16 138.955 181.921 26.692 13.499 o
0 8 0 905.578 947.148 19.241 3.485 o
0 8 1 820.991 913.154 17.856 3.993 o
0 8 2 201.486 172.325 7.526 38.729 o
0 8 3 31.501 37.333 5.804 191.136 o
0 8 4 43.938 40.690 3.393 238.231 o
0 8 5 654.570 690.672 13.209 6.201 o
0 8 6 1169.350 1146.750 20.010 2.368 o
0 8 7 6.169 3.086 2.505 1161.930 o
0 8 8 11.472 16.823 3.826 472.219 o
0 8 9 961.572 991.709 24.339 3.017 o
0 8 10 289.371 253.595 11.286 21.460 o
0 8 11 197.249 211.449 12.564 27.978 o
0 8 12 522.783 543.663 19.966 7.535 o
0 8 13 58.808 47.155 8.126 102.604 o
0 8 14 171.938 144.277 12.476 33.725 o
0 8 15 311.091 373.828 33.047 7.291 o
0 8 16 209.240 266.898 34.318 8.070 o
0 9 0 36.061 45.725 5.232 192.411 o
0 9 1 54.366 50.749 4.141 179.554 o
0 9 2 4.990 8.984 2.847 915.808 o
0 9 3 32.893 39.522 3.628 271.603 o
0 9 4 118.838 126.686 10.132 50.348 o
0 9 5 595.018 567.029 11.872 7.710 o
0 9 6 827.705 906.550 16.903 4.020 o
0 9 7 5.243 1.205 3.044 978.782 o
0 9 8 342.347 355.528 9.529 17.186 o
0 9 9 849.916 798.487 21.258 3.957 o
0 9 10 474.672 455.058 18.016 9.232 o
0 9 11 413.018 404.107 17.424 10.996 o
0 9 12 114.630 97.954 9.597 57.093 o
0 9 13 147.661 156.215 13.670 32.759 o
0 9 14 271.697 260.569 25.502 11.397 o
0 9 15 308.257 289.940 31.594 8.124 o
0 10 0 36.860 51.388 4.165 218.413 o
0 10 1 1.353 2.422 3.000 1172.690 o
0 10 2 166.844 182.507 7.241 44.414 o
0 10 3 777.286 668.766 17.059 4.999 o
0 10 4 111.528 145.064 7.696 60.802 o
0 10 5 301.940 315.639 10.326 19.707 o
0 10 6 190.765 180.279 7.951 38.956 o
0 10 7 332.775 325.493 9.239 18.489 o
0 10 8 402.172 398.747 10.538 13.729 o
0 10 9 729.790 706.507 19.633 4.998 o
0 10 10 163.967 189.993 11.213 34.940 o
0 10 11 940.331 921.649 36.769 2.668 o
0 10 13 162.987 189.184 25.784 13.742 o
0 10 14 183.172 182.466 26.692 12.764 o
0 10 15 58.631 68.817 19.066 28.700 o
0 11 0 13.178 28.933 5.268 279.819 o
0 11 1 140.662 149.649 9.197 47.160 o
0 11 2 1040.580 1032.760 28.729 2.591 o
0 11 3 926.342 985.653 27.908 2.996 o
0 11 4 596.230 570.557 16.427 7.095 o
0 11 5 219.352 209.850 10.118 29.854 o
0 11 6 6.625 6.195 12.256 78.260 o
0 11 7 326.520 331.862 14.974 15.374 o
0 11 8 424.018 441.862 14.591 11.276 o
0 11 9 355.608 339.175 17.269 13.159 o
0 11 10 239.082 256.933 17.076 18.509 o
0 11 11 592.494 637.985 37.586 4.137 o
0 11 12 90.476 109.341 12.951 44.785 o
0 11 13 181.161 151.467 14.637 28.018 o
0 11 14 165.201 193.373 16.433 24.533 o
0 12 0 97.728 105.258 9.926 58.711 o
0 12 1 247.040 266.500 13.039 21.940 o
0 12 2 370.401 378.569 14.968 13.285 o
0 12 3 486.754 472.705 17.166 9.103 o
0 12 4 139.213 152.345 10.685 42.325 o
0 12 5 150.835 135.073 10.780 41.564 o
0 12 6 50.122 60.060 8.806 94.729 o
0 12 7 140.523 156.405 17.522 25.147 o
0 12 8 157.920 178.326 17.068 24.341 o
0 12 9 26.774 34.517 9.092 112.034 o
0 12 10 80.695 74.799 11.042 60.081 o
0 12 11 3.063 7.431 8.471 161.347 o
0 12 12 227.197 228.856 20.384 16.347 o
0 12 13 222.486 233.928 25.148 12.699 o
0 13 0 35.156 42.489 9.260 101.502 o
0 13 1 325.239 330.038 21.244 11.993 o
0 13 2 183.533 204.513 17.250 22.017 o
0 13 3 27.381 32.233 8.443 125.571 o
0 13 4 1.512 -0.623 5.665 369.918 o
0 13 5 29.233 33.015 9.260 107.860 o
0 13 6 218.393 229.520 14.236 23.404 o
0 13 7 171.968 157.771 18.884 21.365 o
0 13 8 161.828 155.048 21.426 18.472 o
0 13 9 13.186 -1.257 11.258 90.833 o
0 13 10 27.163 16.734 9.950 101.781 o
0 13 11 131.441 121.300 14.373 34.227 o
0 13 12 190.787 205.780 21.368 16.862 o
0 14 0 7.939 -9.079 9.079 140.314 o
0 14 1 272.975 249.649 19.247 15.572 o
0 14 2 63.900 31.049 9.442 87.220 o
0 14 3 1.456 -0.182 7.808 197.148 o
0 14 4 33.907 47.391 10.350 85.660 o
0 14 5 224.038 241.296 19.610 16.954 o
0 14 6 119.711 126.540 14.526 34.689 o
0 14 8 48.918 53.383 13.618 52.224 o
0 14 9 29.929 21.063 13.981 55.536 o
0 14 10 3.494 10.350 13.981 60.799 o
0 15 4 11.540 2.360 10.168 110.256 o
0 15 5 138.371 100.575 23.968 16.905 o
0 15 6 16.819 1.816 10.895 94.675 o
1 -14 0 6.453 -0.079 8.080 176.943 o
1 -13 0 11.781 8.009 6.892 216.381 o
1 -13 1 27.614 27.535 6.952 167.629 o
1 -13 2 102.231 156.417 36.587 8.247 o
1 -12 0 14.026 4.576 5.439 314.981 o
1 -12 1 152.000 163.126 13.073 33.414 o
1 -12 2 244.112 244.176 12.752 23.110 o
1 -12 3 223.969 278.905 25.412 12.102 o
1 -12 4 45.849 65.448 9.260 89.807 o
1 -11 0 208.410 199.801 20.700 17.081 o
1 -11 1 238.890 244.474 11.472 24.925 o
1 -11 2 257.171 269.485 12.081 22.203 o
1 -11 3 313.879 352.159 14.420 15.786 o
1 -11 4 20.345 48.045 8.072 133.232 o
1 -11 5 6.182 -4.539 10.531 106.528 o
1 -10 0 362.611 372.202 13.252 14.376 o
1 -10 1 967.854 975.084 27.000 2.924 o
1 -10 2 552.729 594.965 21.608 6.659 o
1 -10 3 84.777 95.546 6.787 87.554 o
1 -10 4 24.138 22.856 4.531 295.809 o
1 -10 5 149.902 152.299 11.079 39.551 o
1 -10 6 28.919 44.679 7.989 128.737 o
1 -9 0 180.501 200.681 9.426 36.013 o
1 -9 1 161.823 144.454 6.618 51.204 o
1 -9 2 38.754 41.875 3.770 240.459 o
1 -9 3 50.525 61.561 5.399 150.381 o
1 -9 4 209.839 216.306 7.686 34.191 o
1 -9 5 109.900 98.652 7.192 72.146 o
1 -9 6 130.529 132.250 8.172 55.204 o
1 -9 7 26.084 30.309 6.654 177.767 o
1 -8 0 135.631 114.727 5.165 68.909 o
1 -8 1 266.952 258.233 7.862 25.876 o
1 -8 2 244.951 211.960 8.701 29.128 o
1 -8 3 409.126 427.138 11.193 12.886 o
1 -8 4 6.760 7.674 3.558 658.986 o
1 -8 5 40.865 37.761 4.326 220.677 o
1 -8 6 34.305 58.554 4.967 190.890 o
1 -8 7 16.369 9.687 4.179 414.356 o
1 -8 8 54.082 47.271 7.858 109.753 o
1 -7 0 2926.380 3363.690 96.448 0.317 o
1 -7 1 88.668 84.482 5.805 97.200 o
1 -7 2 169.230 167.348 6.602 46.979 o
1 -7 3 124.643 124.086 6.997 63.218 o
1 -7 4 1178.890 1219.770 22.696 2.220 o
1 -7 5 362.158 361.309 20.541 11.252 o
1 -7 6 844.113 888.144 20.083 3.836 o
1 -7 7 34.554 32.916 4.591 235.715 o
1 -7 8 50.882 52.839 7.445 116.729 o
1 -7 9 300.477 273.434 26.229 10.480 o
1 -7 10 184.368 154.866 14.708 27.518 o
1 -7 11 5.296 -11.984 18.521 35.192 o
1 -6 0 2498.620 2435.700 42.205 0.577 o
1 -6 1 119.740 133.621 6.772 64.296 o
1 -6 2 939.863 912.433 21.775 3.322 o
1 -6 3 1307.290 1348.940 24.066 1.855 o
1 -6 4 732.001 708.575 13.796 5.408 o
1 -6 5 1888.100 1918.720 38.778 0.923 o
1 -6 6 182.179 195.319 7.064 40.871 o
1 -6 7 76.965 79.283 5.162 114.731 o
1 -6 8 313.122 305.690 19.543 13.473 o
1 -6 9 342.997 348.098 13.351 15.406 o
1 -6 10 335.401 314.187 25.602 9.952 o
1 -6 11 86.450 63.761 16.251 35.285 o
1 -6 12 2.918 12.347 19.610 31.249 o
1 -5 0 2339.030 2434.690 44.525 0.617 o
1 -5 1 1272.560 1235.940 38.626 1.743 o
1 -5 2 831.861 858.085 15.636 4.180 o
1 -5 3 1652.560 1553.270 27.066 1.291 o
1 -5 4 394.450 393.265 8.348 14.772 o
1 -5 5 1244.730 1336.260 37.869 1.728 o
1 -5 6 19.543 22.500 2.722 485.462 o
1 -5 7 304.600 308.999 12.410 18.334 o
1 -5 8 583.046 563.444 20.064 6.752 o
1 -5 9 456.652 467.131 15.110 10.187 o
1 -5 10 374.530 311.678 11.987 15.603 o
1 -5 11 63.559 64.465 33.310 10.383 o
1 -5 12 108.803 123.453 22.334 19.429 o
1 -5 13 109.786 139.432 24.513 16.509 o
1 -4 0 2296.210 2518.350 64.796 0.555 o
1 -4 1 1416.890 1301.390 22.501 1.746 o
1 -4 2 573.234 558.462 10.396 8.251 o
1 -4 3 513.071 493.011 9.464 9.983 o
1 -4 4 533.906 537.032 13.913 8.511 o
1 -4 5 81.245 90.820 7.364 85.647 o
1 -4 6 684.332 722.948 15.652 5.595 o
1 -4 7 756.686 726.957 15.858 5.022 o
1 -4 8 745.068 733.279 16.057 5.067 o
1 -4 9 460.643 477.672 19.247 8.963 o
1 -4 10 43.813 40.839 7.263 131.885 o
1 -4 11 8.026 1.050 7.626 193.749 o
1 -4 12 556.409 498.430 74.255 1.801 o
1 -4 13 205.301 181.921 25.965 12.911 o
1 -4 14 74.335 72.993 24.331 18.258 o
1 -3 1 83.671 91.714 5.307 102.710 o
1 -3 2 160.568 163.002 4.147 55.279 o
1 -3 3 2.286 3.465 1.110 3577.880 o
1 -3 4 3.650 5.338 1.529 2110.040 o
1 -3 5 205.572 160.221 5.113 43.267 o
1 -3 6 1433.600 1570.870 38.516 1.376 o
1 -3 7 529.433 483.026 23.813 7.058 o
1 -3 8 206.975 189.819 5.735 39.433 o
1 -3 9 30.980 30.467 5.571 208.280 o
1 -3 10 61.846 61.635 7.312 106.947 o
1 -3 11 77.048 100.125 16.424 34.001 o
1 -3 12 636.627 591.081 23.478 5.690 o
1 -3 13 270.373 318.629 35.770 6.992 o
1 -3 14 15.505 19.792 21.608 25.292 o
1 -2 1 300.369 198.311 18.243 16.301 o
1 -2 2 1604.200 1436.320 24.237 1.417 o
1 -2 3 301.661 300.341 6.839 22.355 o
1 -2 4 1.683 4.655 1.300 3157.500 o
1 -2 5 3143.670 3076.420 59.428 0.363 o
1 -2 6 41.267 30.253 2.160 313.473 o
1 -2 7 265.862 225.916 5.977 29.097 o
1 -2 8 69.868 75.063 3.681 142.398 o
1 -2 9 284.377 315.646 13.652 18.218 o
1 -2 10 356.604 323.471 14.659 14.682 o
1 -2 11 212.583 204.387 13.698 25.343 o
1 -2 12 370.417 398.752 27.872 8.176 o
1 -2 13 128.782 135.437 22.152 18.893 o
1 -2 14 0.052 -1.816 18.339 36.190 o
1 -2 15 16.953 44.849 19.792 29.351 o
1 -1 0 2847.950 1839.000 61.554 0.516 o
1 -1 1 1146.550 1149.880 27.476 2.258 o
1 -1 2 35.320 48.936 2.183 295.160 o
1 -1 3 3074.240 2810.610 65.981 0.381 o
1 -1 4 1294.160 1435.390 34.153 1.664 o
1 -1 5 2111.470 1987.470 46.864 0.763 o
1 -1 6 4241.050 4230.840 100.592 0.190 o
1 -1 7 321.944 346.310 10.291 17.950 o
1 -1 8 61.109 70.996 6.696 112.466 o
1 -1 9 244.074 238.466 17.431 18.339 o
1 -1 10 304.702 285.406 15.152 16.907 o
1 -1 11 457.689 464.204 18.841 9.217 o
1 -1 12 145.992 129.445 17.250 26.123 o
1 -1 13 83.637 63.370 18.158 29.829 o
1 -1 14 0.370 -0.545 15.979 47.639 o
1 -1 15 6.995 2.360 17.431 39.482 o
1 0 2 3433.480 3072.140 101.483 0.277 o
1 0 3 127.386 116.009 4.903 73.182 o
1 0 4 7106.550 6372.600 162.946 0.074 o
1 0 5 858.179 774.089 19.777 4.056 o
1 0 6 91.635 117.789 4.385 94.958 o
1 0 7 6.672 1.453 4.358 528.822 o
1 0 8 353.909 373.465 20.337 11.383 o
1 0 9 489.491 528.150 27.055 6.590 o
1 0 10 173.666 158.134 17.613 23.162 o
1 0 11 181.841 212.994 28.326 11.474 o
1 0 12 49.960 46.874 8.350 105.153 o
1 0 13 22.697 3.995 11.802 79.416 o
1 0 14 29.366 30.868 14.345 52.410 o
1 0 15 16.841 12.892 16.887 40.807 o
1 0 16 67.136 57.741 20.881 24.396 o
1 1 0 295.422 341.508 12.166 18.170 o
1 1 2 1389.740 1268.670 30.429 1.704 o
1 1 4 16433.400 15151.900 499.461 0.012 o
1 1 5 7100.130 7395.020 246.562 0.057 o
1 1 6 383.904 287.035 15.252 14.095 o
1 1 7 1104.940 1019.100 27.409 2.493 o
1 1 8 743.989 741.665 32.321 3.805 o
1 1 9 125.544 140.703 14.163 34.431 o
1 1 10 495.481 461.511 26.692 6.907 o
1 1 11 50.220 77.896 12.892 54.369 o
1 1 12 170.560 191.000 21.426 17.636 o
1 1 13 33.848 37.041 11.802 71.285 o
1 1 14 20.772 19.429 14.889 50.895 o
1 1 15 247.582 322.806 35.589 7.181 o
1 1 16 3.091 29.778 19.973 29.765 o
1 2 0 1609.920 1466.660 34.859 1.301 o
1 2 1 74.705 82.932 2.010 146.434 o
1 2 2 20.712 11.494 1.038 755.413 o
1 2 3 42.571 76.705 3.529 190.289 o
1 2 4 1175.150 1018.030 33.583 2.180 o
1 2 5 2971.870 3198.340 62.312 0.374 o
1 2 6 158.234 239.024 6.542 42.244 o
1 2 7 706.185 852.604 18.671 4.750 o
1 2 8 1131.020 1060.600 22.937 2.497 o
1 2 9 165.831 127.085 13.255 33.404 o
1 2 10 145.883 151.779 16.342 27.208 o
1 2 11 71.885 69.725 12.347 54.375 o
1 2 12 14.715 30.505 11.076 87.044 o
1 2 13 309.241 316.995 27.055 9.687 o
1 2 14 563.255 538.318 44.849 3.660 o
1 2 15 388.798 367.292 35.044 6.258 o
1 2 16 18.651 19.792 18.884 32.643 o
1 3 0 1076.600 1018.390 38.846 2.209 o
1 3 1 1740.530 1740.950 29.438 1.126 o
1 3 2 137.980 197.675 6.879 49.814 o
1 3 3 105.026 86.140 3.308 103.427 o
1 3 4 3.561 5.073 1.252 2495.210 o
1 3 5 35.195 25.236 2.245 363.426 o
1 3 6 2.062 8.257 1.717 1929.180 o
1 3 7 4551.200 4909.280 95.538 0.164 o
1 3 8 838.090 776.945 17.698 4.263 o
1 3 9 809.767 847.657 23.027 3.929 o
1 3 10 2.025 5.419 2.617 1293.350 o
1 3 11 80.638 95.309 12.892 47.644 o
1 3 12 357.791 323.169 24.150 10.150 o
1 3 13 563.754 640.345 36.678 4.351 o
1 3 14 539.215 515.621 42.126 4.061 o
1 3 15 140.280 135.256 22.515 18.103 o
1 3 16 4.204 15.797 17.068 40.850 o
1 4 0 358.394 210.358 6.676 21.657 o
1 4 1 8.338 28.508 3.980 426.058 o
1 4 2 1076.200 886.677 16.247 3.065 o
1 4 3 1154.390 1117.140 32.889 2.144 o
1 4 4 21.009 4.812 1.990 708.605 o
1 4 5 554.653 479.850 11.252 9.061 o
1 4 6 438.588 386.652 9.792 13.024 o
1 4 7 3215.100 3397.550 67.129 0.325 o
1 4 8 950.387 981.765 21.886 3.158 o
1 4 9 200.141 200.885 11.167 30.521 o
1 4 10 78.487 88.368 6.102 99.984 o
1 4 11 175.797 146.250 6.968 46.919 o
1 4 12 953.785 916.112 21.963 3.257 o
1 4 13 833.607 806.669 41.399 2.835 o
1 4 14 342.398 343.142 29.234 8.333 o
1 4 15 48.078 41.399 17.250 35.771 o
1 4 16 10.550 17.431 16.342 43.813 o
1 5 0 1511.980 1480.800 25.715 1.480 o
1 5 1 1328.580 1197.750 18.984 2.012 o
1 5 2 228.015 295.735 13.001 22.241 o
1 5 3 1234.650 1259.620 20.005 2.115 o
1 5 4 524.891 565.515 11.294 8.837 o
1 5 5 277.850 261.802 7.434 25.178 o
1 5 6 716.961 631.235 17.724 5.524 o
1 5 7 1718.430 1835.220 37.910 1.053 o
1 5 8 690.868 667.018 16.152 5.729 o
1 5 9 1.749 -0.532 2.561 1622.810 o
1 5 10 123.448 124.546 8.047 58.697 o
1 5 11 136.005 119.771 6.955 60.469 o
1 5 12 1056.700 1075.880 25.491 2.595 o
1 5 13 278.490 294.625 11.879 20.414 o
1 5 14 0.564 -7.081 12.710 75.207 o
1 5 15 54.453 45.394 15.979 40.033 o
1 5 16 9.910 6.174 15.071 51.954 o
1 6 0 750.753 706.157 13.385 5.298 o
1 6 1 1498.410 1644.950 31.978 1.350 o
1 6 2 396.257 372.041 7.299 15.410 o
1 6 3 437.030 497.309 15.635 10.137 o
1 6 4 2.497 3.861 1.464 2682.670 o
1 6 5 306.930 307.050 10.024 19.867 o
1 6 6 3109.700 3320.770 65.920 0.344 o
1 6 7 438.482 417.927 11.489 12.124 o
1 6 8 67.064 68.387 5.098 130.840 o
1 6 9 288.154 240.770 8.945 23.967 o
1 6 10 70.041 66.607 8.381 87.613 o
1 6 11 430.764 463.818 14.303 10.969 o
1 6 12 625.679 608.144 17.202 6.485 o
1 6 13 174.517 160.858 20.881 18.614 o
1 6 14 71.244 88.881 11.884 55.350 o
1 6 15 108.751 92.404 18.158 27.495 o
1 6 16 111.564 94.038 18.884 25.735 o
1 7 0 1444.270 1449.310 29.868 1.531 o
1 7 1 592.489 574.442 19.484 6.686 o
1 7 2 17.914 15.159 2.307 615.426 o
1 7 3 640.197 611.847 12.839 6.788 o
1 7 4 536.897 617.495 11.375 8.233 o
1 7 5 3638.600 3744.940 57.301 0.275 o
1 7 6 4272.470 4384.090 74.864 0.198 o
1 7 7 114.043 127.816 8.732 57.642 o
1 7 8 0.470 -0.701 3.151 1195.400 o
1 7 9 1187.990 1214.940 27.651 2.111 o
1 7 10 279.790 245.278 10.066 23.422 o
1 7 11 2373.910 2355.590 49.914 0.602 o
1 7 12 297.706 315.320 13.997 17.400 o
1 7 13 0.355 4.138 5.509 384.594 o
1 7 14 92.808 91.028 8.608 70.728 o
1 7 15 238.622 231.673 30.142 9.694 o
1 7 16 134.898 150.690 23.242 17.190 o
1 8 0 173.564 194.474 12.726 30.523 o
1 8 1 340.081 399.261 8.434 16.787 o
1 8 2 123.749 147.172 6.447 62.109 o
1 8 3 1440.060 1351.070 34.722 1.531 o
1 8 4 134.139 117.033 5.313 68.441 o
1 8 5 1324.780 1425.800 23.701 1.775 o
1 8 6 218.193 212.980 7.306 33.880 o
1 8 7 74.704 77.220 5.755 110.807 o
1 8 8 665.831 615.143 14.352 6.357 o
1 8 9 390.647 389.561 12.764 13.437 o
1 8 10 612.133 607.867 23.279 5.840 o
1 8 11 1686.170 1619.900 36.445 1.162 o
1 8 12 0.405 -0.849 7.626 208.520 o
1 8 13 151.511 141.950 11.712 38.245 o
1 8 14 210.209 203.939 22.152 15.607 o
1 8 15 251.393 246.380 29.234 9.889 o
1 8 16 101.962 66.094 18.702 27.362 o
1 9 0 9.211 9.794 2.670 815.320 o
1 9 1 159.730 183.444 15.122 27.508 o
1 9 2 991.703 942.257 18.654 3.192 o
1 9 3 1842.060 2013.040 36.193 0.936 o
1 9 4 1864.480 1903.610 43.654 0.911 o
1 9 5 1661.790 1686.560 28.765 1.213 o
1 9 6 165.143 193.543 7.622 42.823 o
1 9 7 283.172 286.771 9.429 22.323 o
1 9 8 249.255 254.455 9.183 26.263 o
1 9 9 724.365 664.604 16.039 5.477 o
1 9 10 372.589 367.361 12.888 14.292 o
1 9 11 662.513 615.110 21.456 5.637 o
1 9 12 254.368 221.706 23.242 13.482 o
1 9 13 367.671 346.986 17.537 12.623 o
1 9 14 372.881 325.173 28.144 8.464 o
1 9 15 158.934 174.476 22.879 16.649 o
1 9 16 18.956 8.171 17.613 37.661 o
1 10 0 109.960 131.974 6.827 67.784 o
1 10 1 64.136 54.714 3.857 163.767 o
1 10 2 16.100 11.387 3.088 558.610 o
1 10 3 5.426 5.656 2.974 911.901 o
1 10 4 120.681 133.329 7.102 62.519 o
1 10 5 285.205 264.619 10.497 22.046 o
1 10 6 14.399 14.163 3.674 476.017 o
1 10 7 30.558 24.473 4.499 267.911 o
1 10 8 359.272 350.002 11.371 15.746 o
1 10 9 32.841 39.151 5.301 204.245 o
1 10 10 644.861 642.656 18.698 5.976 o
1 10 11 7.419 5.784 5.542 334.724 o
1 10 12 150.947 168.365 15.807 27.354 o
1 10 13 510.648 473.436 23.315 7.405 o
1 10 14 346.638 326.605 23.786 10.451 o
1 10 15 90.966 92.222 18.158 28.533 o
1 11 0 4.357 0.201 4.798 478.576 o
1 11 1 1193.110 1123.720 63.915 1.370 o
1 11 2 342.459 344.734 14.873 14.684 o
1 11 3 49.222 38.798 5.937 156.304 o
1 11 4 3.537 -2.448 4.646 518.177 o
1 11 5 124.105 129.562 10.531 47.416 o
1 11 6 347.953 332.480 23.696 10.421 o
1 11 7 150.796 169.632 10.370 40.145 o
1 11 8 180.974 197.874 17.541 21.904 o
1 11 9 15.582 11.967 6.308 234.475 o
1 11 10 121.107 133.416 13.066 38.588 o
1 11 11 67.845 69.095 9.947 72.941 o
1 11 12 17.176 14.526 12.166 75.219 o
1 11 13 180.452 178.974 17.153 22.966 o
1 11 14 96.087 110.248 13.882 40.267 o
1 11 15 4.539 12.000 13.346 66.195 o
1 12 0 64.121 62.825 9.624 78.443 o
1 12 1 819.115 836.611 34.681 3.216 o
1 12 2 573.852 565.010 25.784 5.960 o
1 12 3 37.402 24.694 7.081 152.400 o
1 12 4 2.019 11.076 6.537 259.849 o
1 12 5 626.150 642.887 29.960 4.811 o
1 12 6 230.005 265.990 19.247 16.677 o
1 12 7 220.618 222.049 19.247 17.749 o
1 12 8 181.733 199.826 14.305 26.765 o
1 12 9 3.651 7.879 7.362 208.688 o
1 12 10 6.152 7.132 8.024 174.640 o
1 12 11 193.284 267.625 27.599 11.367 o
1 12 12 91.075 93.567 12.554 47.697 o
1 12 13 164.355 166.291 26.510 13.347 o
1 12 14 154.529 179.041 16.619 25.283 o
1 13 0 184.061 161.766 15.797 25.395 o
1 13 1 312.060 305.919 18.884 13.887 o
1 13 2 117.260 93.493 13.073 41.629 o
1 13 3 16.419 20.155 7.445 172.705 o
1 13 4 82.137 114.919 14.345 39.923 o
1 13 5 595.909 660.319 31.231 4.781 o
1 13 6 221.735 258.909 20.155 16.257 o
1 13 7 122.321 105.296 14.526 35.487 o
1 13 8 139.022 138.343 16.887 26.996 o
1 13 9 3.607 12.529 12.347 77.111 o
1 13 10 68.390 61.940 11.042 64.931 o
1 13 11 88.639 81.889 11.804 52.987 o
1 13 12 62.147 75.365 12.752 53.268 o
1 13 13 33.468 35.286 11.992 69.784 o
1 14 0 296.163 297.748 21.789 12.664 o
1 14 1 94.923 88.427 11.984 50.229 o
1 14 2 75.439 52.839 10.895 65.371 o
1 14 3 6.932 11.258 8.534 152.634 o
1 14 4 94.217 86.975 11.802 51.413 o
1 14 5 346.420 379.820 23.786 10.032 o
1 14 6 162.939 155.592 19.973 20.274 o
1 14 7 27.743 7.989 12.347 71.310 o
1 14 8 0.281 -3.813 11.439 92.915 o
1 14 9 11.311 15.797 12.892 68.793 o
1 14 10 246.626 274.325 28.871 9.949 o
1 14 11 124.028 109.232 14.166 36.197 o
1 15 2 6.993 -15.252 9.987 117.567 o
1 15 3 6.646 0.000 10.713 102.826 o
1 15 5 95.664 98.396 14.526 38.663 o
1 15 6 225.216 223.320 22.879 14.389 o
1 15 7 1.210 5.447 12.347 78.748 o
1 15 8 44.416 36.860 15.434 43.978 o
2 -13 0 7.428 3.914 8.716 150.103 o
2 -13 1 50.276 70.996 13.800 49.571 o
2 -13 2 18.873 24.694 13.437 61.331 o
2 -12 0 24.002 19.155 5.908 224.207 o
2 -12 1 118.204 113.452 12.801 41.145 o
2 -12 2 100.165 145.621 27.872 13.422 o
2 -12 3 29.188 36.134 12.347 67.423 o
2 -12 4 0.798 -2.905 12.529 77.337 o
2 -11 0 109.749 101.306 7.809 67.973 o
2 -11 1 126.700 136.889 9.292 51.035 o
2 -11 2 26.334 41.303 12.166 69.197 o
2 -11 3 5.216 16.591 8.080 167.326 o
2 -11 4 25.029 23.786 11.076 84.445 o
2 -11 5 54.226 63.551 13.800 49.536 o
2 -11 6 101.514 103.480 15.071 35.951 o
2 -10 0 566.643 568.846 18.158 7.189 o
2 -10 1 157.863 146.833 8.801 45.373 o
2 -10 2 34.182 47.270 11.893 68.935 o
2 -10 3 29.924 34.422 5.374 213.954 o
2 -10 4 73.137 82.072 12.166 53.994 o
2 -10 5 127.528 143.971 17.613 26.072 o
2 -10 6 335.158 355.126 23.423 10.561 o
2 -10 7 26.385 39.402 11.802 73.055 o
2 -9 0 2672.540 2689.920 49.557 0.490 o
2 -9 1 56.871 52.444 5.083 154.169 o
2 -9 2 4.551 6.787 3.665 685.425 o
2 -9 3 144.320 138.984 8.154 51.097 o
2 -9 4 365.864 365.163 16.105 13.089 o
2 -9 5 527.061 537.573 17.450 7.985 o
2 -9 6 223.504 250.407 11.604 25.696 o
2 -9 7 8.458 3.087 8.897 143.819 o
2 -9 8 50.542 44.486 10.168 81.703 o
2 -8 0 1149.540 1144.910 22.020 2.376 o
2 -8 1 2.968 4.461 2.726 1187.780 o
2 -8 2 139.631 113.886 6.604 61.709 o
2 -8 3 162.460 181.068 7.772 44.098 o
2 -8 4 342.130 328.771 10.370 17.384 o
2 -8 5 525.331 508.618 13.819 8.884 o
2 -8 6 370.356 415.493 12.691 13.686 o
2 -8 7 0.088 16.299 6.269 277.987 o
2 -8 8 23.905 21.341 5.672 233.310 o
2 -7 0 184.662 220.308 12.370 28.999 o
2 -7 1 254.987 275.065 7.569 26.433 o
2 -7 2 4.150 3.651 2.949 1019.780 o
2 -7 3 4.398 4.144 2.157 1490.310 o
2 -7 4 130.965 110.393 5.842 68.693 o
2 -7 5 11.149 10.418 3.198 630.116 o
2 -7 6 338.518 320.906 9.933 17.959 o
2 -7 7 26.612 17.725 6.628 188.765 o
2 -7 8 286.149 297.248 10.153 21.254 o
2 -7 9 139.989 134.720 13.355 35.466 o
2 -6 0 2288.040 2439.670 42.347 0.637 o
2 -6 1 24.099 27.435 2.883 401.163 o
2 -6 2 1502.780 1473.590 30.321 1.448 o
2 -6 3 1027.480 1108.610 20.149 2.773 o
2 -6 4 1668.100 1677.410 34.281 1.171 o
2 -6 5 353.654 363.986 12.121 15.345 o
2 -6 6 25.442 25.249 3.112 381.890 o
2 -6 7 176.175 180.663 10.440 35.734 o
2 -6 8 300.169 319.106 9.648 20.151 o
2 -6 9 257.517 257.599 8.977 25.658 o
2 -6 10 30.085 28.106 6.264 186.396 o
2 -6 11 2.169 -15.071 17.613 39.092 o
2 -6 12 185.905 165.216 26.328 13.127 o
2 -5 0 10779.400 10357.600 171.475 0.034 o
2 -5 1 350.859 370.521 9.005 16.713 o
2 -5 2 276.637 272.352 6.656 25.420 o
2 -5 3 479.540 429.256 8.715 11.576 o
2 -5 4 117.322 114.095 4.585 79.846 o
2 -5 5 12.279 10.322 2.258 821.799 o
2 -5 6 749.309 763.912 16.948 4.875 o
2 -5 7 659.310 683.348 15.634 5.978 o
2 -5 8 357.375 349.461 9.719 16.580 o
2 -5 9 142.416 148.574 6.790 55.094 o
2 -5 10 31.578 38.479 8.007 128.757 o
2 -5 11 22.777 13.467 24.513 19.704 o
2 -5 12 338.799 316.995 38.131 5.996 o
2 -5 13 102.478 78.259 23.786 18.258 o
2 -4 0 18167.500 18155.800 598.238 0.009 o
2 -4 1 5941.230 5844.840 112.116 0.105 o
2 -4 2 205.863 226.439 4.943 37.707 o
2 -4 3 145.330 150.300 9.152 46.337 o
2 -4 4 52.244 63.733 3.711 179.924 o
2 -4 5 821.592 821.262 21.226 4.039 o
2 -4 6 1311.830 1347.250 33.504 1.708 o
2 -4 7 749.372 709.785 16.066 5.119 o
2 -4 8 252.971 254.596 8.463 26.670 o
2 -4 9 4.651 9.801 2.926 883.048 o
2 -4 10 59.825 60.684 7.354 108.179 o
2 -4 11 182.729 144.581 33.501 9.082 o
2 -4 12 174.103 147.854 18.884 21.489 o
2 -4 13 224.960 220.960 28.326 10.840 o
2 -3 0 4026.270 4338.620 72.389 0.215 o
2 -3 1 6530.360 6244.830 146.741 0.085 o
2 -3 2 13.824 11.141 2.633 684.542 o
2 -3 3 498.533 559.978 12.041 9.212 o
2 -3 4 1762.620 1741.200 34.444 1.078 o
2 -3 5 1720.470 1707.640 33.962 1.123 o
2 -3 6 1092.500 1125.220 23.132 2.507 o
2 -3 7 925.765 908.033 19.182 3.485 o
2 -3 8 2.443 2.105 2.229 1776.190 o
2 -3 9 21.712 22.068 3.750 369.632 o
2 -3 10 234.450 223.483 19.392 17.107 o
2 -3 11 342.428 360.446 16.858 13.430 o
2 -3 12 260.392 241.841 16.250 18.715 o
2 -3 13 248.362 181.739 25.965 12.172 o
2 -3 14 40.700 39.220 20.337 27.026 o
2 -2 0 19.227 13.219 2.814 539.000 o
2 -2 1 16168.000 13648.200 449.364 0.014 o
2 -2 2 811.196 684.650 25.058 4.178 o
2 -2 3 559.766 561.840 12.031 8.221 o
2 -2 4 2100.840 2168.780 49.753 0.720 o
2 -2 5 3189.210 2952.300 60.811 0.364 o
2 -2 6 63.916 63.190 4.537 146.424 o
2 -2 7 37.712 37.610 3.658 255.583 o
2 -2 8 0.066 3.260 2.747 1439.620 o
2 -2 9 220.181 233.394 7.755 31.808 o
2 -2 10 91.101 92.292 9.074 67.850 o
2 -2 11 39.817 104.388 14.163 46.738 o
2 -2 12 157.762 193.560 16.251 25.278 o
2 -2 13 33.519 12.166 16.160 42.814 o
2 -2 14 0.368 -0.726 18.521 35.466 o
2 -2 15 60.068 29.778 21.063 24.802 o
2 -1 0 2705.770 2480.450 37.075 0.529 o
2 -1 1 3415.000 3425.760 80.747 0.288 o
2 -1 2 1324.740 1175.590 29.225 1.883 o
2 -1 3 3492.000 3174.010 74.969 0.299 o
2 -1 4 17.415 14.687 2.724 567.856 o
2 -1 5 3163.640 2997.690 70.860 0.350 o
2 -1 6 140.429 148.329 7.626 52.757 o
2 -1 7 244.322 259.272 11.076 24.437 o
2 -1 8 174.772 161.396 7.020 45.451 o
2 -1 9 74.873 69.120 4.226 133.133 o
2 -1 10 35.230 30.667 5.839 189.126 o
2 -1 11 38.193 27.431 7.011 151.565 o
2 -1 12 25.224 33.293 20.700 26.866 o
2 -1 13 24.092 36.678 16.160 42.544 o
2 -1 14 51.928 43.578 19.610 28.254 o
2 -1 15 157.463 169.392 26.328 13.581 o
2 0 0 2014.410 2078.990 28.316 0.862 o
2 0 1 1483.900 1650.630 27.620 1.402 o
2 0 2 1391.650 1621.550 38.581 1.391 o
2 0 3 1042.710 1094.970 37.586 2.240 o
2 0 4 675.868 659.592 23.423 5.169 o
2 0 5 1517.720 1282.160 43.760 1.366 o
2 0 6 35.970 41.312 3.409 264.960 o
2 0 7 770.704 783.019 44.386 2.840 o
2 0 8 258.591 225.049 8.080 27.884 o
2 0 9 552.279 549.526 15.887 7.841 o
2 0 10 83.102 63.007 10.895 61.951 o
2 0 11 56.275 51.023 10.350 76.427 o
2 0 12 36.713 31.103 7.895 129.871 o
2 0 13 153.605 195.902 23.242 16.141 o
2 0 14 135.293 109.472 19.792 22.597 o
2 0 15 186.804 180.105 25.965 13.253 o
2 1 0 218.346 203.102 6.264 35.937 o
2 1 1 177.383 291.653 7.639 33.600 o
2 1 2 20.410 7.601 1.086 818.646 o
2 1 3 59.549 38.676 3.632 192.589 o
2 1 4 4.919 8.534 2.724 978.541 o
2 1 5 231.780 199.171 11.076 27.813 o
2 1 6 69.921 74.975 3.901 139.664 o
2 1 7 5295.260 5360.520 127.059 0.122 o
2 1 8 1157.050 1099.900 28.591 2.261 o
2 1 9 356.102 380.498 11.796 15.107 o
2 1 10 3.626 3.632 7.445 208.536 o
2 1 11 514.299 504.000 29.234 6.084 o
2 1 12 346.313 383.633 28.144 8.435 o
2 1 13 112.191 113.830 17.250 28.716 o
2 1 14 376.774 363.297 33.955 6.606 o
2 1 15 27.338 27.055 18.521 33.169 o
2 1 16 37.061 44.123 19.792 28.458 o
2 2 0 312.635 334.063 8.988 19.448 o
2 2 4 15920.000 14055.500 462.782 0.014 o
2 2 5 3.197 -0.264 1.962 2183.670 o
2 2 6 292.186 352.039 16.342 15.361 o
2 2 7 7232.070 7745.610 259.817 0.053 o
2 2 8 4514.250 4790.410 164.308 0.134 o
2 2 9 428.431 449.990 10.438 12.247 o
2 2 10 103.172 111.650 8.084 66.833 o
2 2 11 274.866 224.410 20.337 15.055 o
2 2 12 749.418 718.423 37.041 3.472 o
2 2 13 731.266 740.394 40.128 3.272 o
2 2 15 61.965 57.741 19.247 28.348 o
2 2 16 18.540 5.810 17.068 40.124 o
2 3 0 1574.630 1490.580 36.079 1.310 o
2 3 1 748.224 702.306 18.713 4.961 o
2 3 2 206.299 227.158 4.742 37.809 o
2 3 3 568.374 678.722 41.452 3.760 o
2 3 4 741.680 819.455 17.362 4.719 o
2 3 5 35.330 74.887 5.374 163.461 o
2 3 6 1561.470 1656.390 41.728 1.196 o
2 3 7 1132.190 1160.520 43.941 1.866 o
2 3 8 3668.440 3719.440 73.264 0.261 o
2 3 9 47.989 53.235 5.266 163.106 o
2 3 10 419.450 413.592 13.128 12.183 o
2 3 11 2.176 5.826 1.872 1944.090 o
2 3 12 1384.720 1349.530 56.833 1.261 o
2 3 13 715.387 672.666 36.678 3.694 o
2 3 14 132.655 177.381 22.152 18.152 o
2 3 15 0.159 2.724 14.163 60.438 o
2 3 16 1.468 -6.174 16.342 45.447 o
2 4 0 7519.420 6667.790 156.178 0.068 o
2 4 1 1205.070 1412.630 38.222 1.723 o
2 4 2 2405.690 2209.810 37.468 0.650 o
2 4 3 1200.010 1271.140 25.783 2.073 o
2 4 4 742.921 1039.530 26.320 3.615 o
2 4 5 30.191 21.941 2.133 424.103 o
2 4 6 2107.790 2130.350 42.583 0.755 o
2 4 7 441.520 403.163 12.117 12.059 o
2 4 8 136.375 129.954 5.812 63.281 o
2 4 9 12.012 16.108 2.649 666.562 o
2 4 10 89.752 99.968 7.029 81.878 o
2 4 11 802.142 867.184 20.817 4.045 o
2 4 12 633.208 620.896 19.066 6.133 o
2 4 13 385.904 332.792 26.510 8.816 o
2 4 14 6.161 -3.632 12.529 75.930 o
2 4 15 49.460 39.402 15.616 42.435 o
2 4 16 93.614 114.375 19.792 24.300 o
2 5 0 29.225 13.810 5.266 249.956 o
2 5 1 1532.900 1520.670 26.486 1.428 o
2 5 2 6.613 16.790 3.101 678.807 o
2 5 3 551.249 544.892 9.585 8.800 o
2 5 4 332.896 385.086 9.199 17.098 o
2 5 5 519.184 558.863 12.876 8.740 o
2 5 6 2678.860 2755.090 54.634 0.472 o
2 5 7 3.005 1.372 2.078 1929.000 o
2 5 8 23.654 29.567 3.227 370.682 o
2 5 9 209.869 211.803 9.397 31.841 o
2 5 10 93.111 87.708 5.534 95.514 o
2 5 11 2314.960 2306.600 48.240 0.632 o
2 5 12 97.654 100.059 6.668 80.700 o
2 5 13 52.019 60.411 5.731 142.676 o
2 5 14 7.916 8.437 4.095 519.062 o
2 5 15 57.790 35.407 16.342 38.692 o
2 5 16 97.844 69.725 19.429 25.868 o
2 5 17 240.873 248.014 30.868 9.257 o
2 6 0 236.691 209.176 10.895 27.211 o
2 6 1 148.672 125.665 12.804 36.531 o
2 6 2 37.341 34.540 2.609 306.079 o
2 6 3 629.185 606.937 13.070 6.915 o
2 6 4 487.186 395.638 8.661 11.820 o
2 6 5 1736.510 1933.210 34.039 1.035 o
2 6 6 1007.020 922.367 31.148 2.730 o
2 6 7 6.854 10.153 2.563 927.030 o
2 6 8 525.793 552.639 14.146 8.477 o
2 6 9 71.078 55.580 4.807 137.897 o
2 6 10 772.443 831.705 20.185 4.326 o
2 6 11 1243.340 1155.860 26.819 2.080 o
2 6 12 43.903 48.706 5.916 157.328 o
2 6 13 183.859 155.621 12.778 31.280 o
2 6 14 170.163 192.904 11.294 33.874 o
2 6 15 194.162 194.215 19.610 18.820 o
2 6 16 42.656 50.297 18.339 32.171 o
2 7 0 137.633 120.795 7.817 56.292 o
2 7 1 60.037 53.702 4.351 162.542 o
2 7 2 965.310 940.380 17.856 3.316 o
2 7 3 1210.050 1257.080 23.102 2.115 o
2 7 4 1774.400 1932.700 34.585 1.008 o
2 7 5 3315.400 3203.240 56.387 0.337 o
2 7 6 1.635 2.283 2.148 1992.140 o
2 7 7 58.030 49.059 3.826 180.690 o
2 7 8 766.717 849.785 19.496 4.351 o
2 7 9 579.628 545.197 14.841 7.671 o
2 7 10 1810.380 1892.200 40.403 0.964 o
2 7 11 511.695 479.710 16.487 8.807 o
2 7 12 32.550 41.276 5.568 193.188 o
2 7 13 323.348 308.940 14.274 16.325 o
2 7 14 495.427 565.048 22.425 7.255 o
2 7 15 159.038 133.077 19.247 21.934 o
2 7 16 61.323 53.565 17.613 33.159 o
2 8 0 261.631 293.368 18.950 15.475 o
2 8 1 922.794 927.010 18.055 3.501 o
2 8 2 986.675 1077.060 20.576 2.929 o
2 8 3 1676.840 1628.040 29.640 1.219 o
2 8 4 2164.880 2231.170 78.225 0.570 o
2 8 5 509.314 557.657 12.359 8.995 o
2 8 6 34.946 43.645 3.544 259.109 o
2 8 7 965.569 936.248 23.938 3.108 o
2 8 8 1094.470 1093.150 37.280 2.157 o
2 8 9 1372.040 1433.370 27.782 1.654 o
2 8 10 2049.390 2059.040 38.311 0.812 o
2 8 11 181.907 170.672 9.450 37.821 o
2 8 12 0.996 5.797 7.016 237.174 o
2 8 13 519.800 515.192 19.701 7.794 o
2 8 14 557.825 536.206 20.957 7.010 o
2 8 15 263.584 260.180 29.234 9.664 o
2 8 16 36.127 10.895 16.887 39.321 o
2 9 0 68.700 62.824 8.688 85.956 o
2 9 1 2102.630 2147.000 45.055 0.743 o
2 9 2 1286.310 1250.730 27.378 1.916 o
2 9 3 899.122 930.337 21.442 3.455 o
2 9 4 417.401 409.900 11.901 12.676 o
2 9 5 20.352 14.623 3.420 443.288 o
2 9 6 334.642 282.380 14.190 16.453 o
2 9 7 109.306 116.433 6.684 71.814 o
2 9 8 772.400 773.736 17.174 4.682 o
2 9 9 66.343 73.975 5.344 125.181 o
2 9 10 490.789 492.775 13.511 9.674 o
2 9 11 18.300 17.007 4.764 320.821 o
2 9 12 4.165 -2.510 5.236 410.338 o
2 9 13 347.770 334.941 16.753 13.689 o
2 9 14 315.315 297.263 18.848 13.938 o
2 9 15 65.441 77.170 18.158 30.513 o
2 9 16 6.620 -4.539 16.523 44.005 o
2 10 0 134.425 116.542 7.129 60.715 o
2 10 1 1492.860 1582.510 29.734 1.408 o
2 10 2 1010.230 1120.140 27.964 2.582 o
2 10 3 303.404 259.581 9.830 21.594 o
2 10 4 223.591 226.361 9.498 29.500 o
2 10 5 443.113 425.527 17.531 10.164 o
2 10 6 3.248 9.582 3.671 681.663 o
2 10 7 652.230 645.109 15.276 6.254 o
2 10 8 360.189 365.752 11.340 15.429 o
2 10 9 225.558 225.955 11.899 26.098 o
2 10 10 3.860 -2.536 5.478 379.353 o
2 10 11 11.187 10.780 5.503 308.174 o
2 10 12 120.050 128.493 10.014 50.408 o
2 10 13 168.480 167.892 12.328 33.172 o
2 10 14 121.972 108.712 9.542 54.249 o
2 10 15 1.868 -4.435 14.708 56.012 o
2 11 0 21.060 21.047 5.125 274.019 o
2 11 1 3.628 6.602 4.304 546.024 o
2 11 2 153.056 137.075 10.198 42.840 o
2 11 3 18.118 10.065 5.031 317.253 o
2 11 4 13.614 13.407 5.361 303.284 o
2 11 5 60.598 73.739 13.073 51.802 o
2 11 6 3.867 1.890 5.374 386.565 o
2 11 7 19.279 18.628 5.170 282.688 o
2 11 8 70.145 77.277 7.426 94.952 o
2 11 9 9.123 2.126 5.495 340.256 o
2 11 10 43.270 31.827 7.619 129.338 o
2 11 11 25.479 28.109 13.255 61.227 o
2 11 12 128.940 140.510 13.122 37.053 o
2 11 13 49.495 51.023 16.523 38.014 o
2 11 14 17.151 13.455 11.022 90.187 o
2 11 15 21.704 23.962 11.358 81.997 o
2 12 0 579.444 580.390 22.606 6.325 o
2 12 1 280.369 252.291 18.975 15.511 o
2 12 2 171.665 205.228 13.543 28.675 o
2 12 3 5.311 2.417 5.466 364.267 o
2 12 4 279.953 257.959 24.231 11.985 o
2 12 5 342.262 371.655 20.790 11.435 o
2 12 6 268.819 251.103 20.327 14.859 o
2 12 7 7.886 3.976 6.550 251.976 o
2 12 8 93.352 101.687 9.491 62.971 o
2 12 9 58.779 75.561 9.163 82.622 o
2 12 10 231.275 224.763 23.696 13.624 o
2 12 11 143.098 170.741 16.292 26.863 o
2 12 12 138.231 162.674 21.971 18.425 o
2 12 13 62.944 66.632 11.992 58.823 o
2 12 14 0.353 9.537 15.706 48.795 o
2 13 0 134.013 116.917 16.705 28.407 o
2 13 1 36.502 32.684 9.260 103.567 o
2 13 2 12.477 8.897 7.808 172.961 o
2 13 3 13.556 15.979 8.352 148.671 o
2 13 4 358.190 348.045 20.881 11.313 o
2 13 5 406.084 449.545 25.239 8.261 o
2 13 6 940.927 956.814 41.762 2.420 o
2 13 7 58.424 39.584 10.895 72.362 o
2 13 8 131.571 124.906 26.692 14.097 o
2 13 9 70.935 59.375 13.981 46.457 o
2 13 10 296.835 300.788 30.405 8.605 o
2 13 11 249.099 227.784 19.639 16.336 o
2 13 12 137.513 156.699 14.996 30.523 o
2 13 13 46.653 51.240 15.343 43.375 o
2 14 0 46.544 31.413 11.258 73.815 o
2 14 1 0.952 -8.171 9.079 146.772 o
2 14 2 81.247 86.249 12.529 50.110 o
2 14 3 37.816 33.773 9.805 94.240 o
2 14 4 256.605 276.141 20.881 14.448 o
2 14 5 161.764 126.722 17.976 24.002 o
2 14 7 110.253 87.883 14.708 37.039 o
2 14 8 136.028 170.663 22.515 17.723 o
2 14 9 100.418 109.109 17.068 30.103 o
2 14 10 160.032 195.902 26.328 13.308 o
2 14 11 144.460 148.362 14.569 31.277 o
2 14 12 30.545 18.884 17.250 37.926 o
2 15 2 39.875 18.521 19.247 30.449 o
2 15 3 58.291 52.294 14.526 45.911 o
2 15 4 108.127 141.066 20.155 22.465 o
2 15 5 110.843 97.306 14.526 37.083 o
2 15 6 44.562 33.410 12.710 61.155 o
2 15 7 72.821 60.465 14.345 44.389 o
2 15 8 223.095 258.364 26.692 11.521 o
2 15 9 143.626 119.096 18.884 23.541 o
3 -13 0 105.781 91.859 16.342 32.280 o
3 -12 0 134.170 112.126 9.714 50.396 o
3 -12 1 1.804 14.708 11.439 89.594 o
3 -12 2 2.753 6.174 11.802 85.442 o
3 -12 3 7.443 10.350 12.892 70.299 o
3 -11 0 665.778 619.413 19.307 5.831 o
3 -11 1 6.202 15.110 5.251 346.064 o
3 -11 2 0.737 5.629 10.713 104.320 o
3 -11 3 3.846 1.997 10.531 107.217 o
3 -11 4 8.532 5.810 11.802 83.613 o
3 -11 5 85.794 107.293 16.342 33.254 o
3 -10 0 405.913 367.610 14.798 12.542 o
3 -10 1 0.507 7.808 9.079 143.529 o
3 -10 2 40.615 43.941 10.895 77.486 o
3 -10 3 141.631 137.072 18.158 24.465 o
3 -10 4 83.749 98.396 13.073 46.070 o
3 -10 5 222.192 214.060 23.968 13.731 o
3 -10 7 1.779 17.431 11.802 83.919 o
3 -9 0 19.108 122.364 14.163 48.374 o
3 -9 1 15.045 17.730 3.968 416.044 o
3 -9 2 296.715 320.445 20.337 13.233 o
3 -9 3 314.515 298.838 19.792 13.379 o
3 -9 4 522.510 552.481 28.326 5.997 o
3 -9 5 376.160 410.325 23.968 9.298 o
3 -9 6 5.463 -7.808 9.079 142.560 o
3 -9 7 0.192 -7.626 9.260 141.777 o
3 -9 8 143.934 174.476 18.884 22.241 o
3 -8 0 439.611 438.432 13.774 11.204 o
3 -8 1 51.437 58.986 7.398 114.567 o
3 -8 2 319.028 322.124 14.296 16.225 o
3 -8 3 1574.210 1518.000 41.138 1.246 o
3 -8 4 1051.910 1059.370 30.845 2.467 o
3 -8 5 523.019 522.090 20.881 7.485 o
3 -8 6 3.748 3.590 6.630 259.173 o
3 -8 7 93.038 114.930 10.519 55.435 o
3 -8 8 202.328 217.551 15.525 23.018 o
3 -8 9 199.712 191.363 17.613 21.071 o
3 -7 0 1486.400 1360.760 30.811 1.523 o
3 -7 1 7.176 3.296 2.498 1100.690 o
3 -7 2 189.653 164.369 8.595 39.017 o
3 -7 3 56.299 55.552 6.437 127.740 o
3 -7 4 584.270 604.191 19.812 6.573 o
3 -7 5 1.050 -0.474 6.718 266.364 o
3 -7 6 2.559 3.239 5.992 318.968 o
3 -7 7 130.793 124.776 9.061 52.408 o
3 -7 8 143.108 146.060 13.588 33.919 o
3 -7 9 142.479 125.249 15.616 29.956 o
3 -7 10 22.896 13.073 8.716 131.171 o
3 -6 0 1363.900 1565.940 34.282 1.502 o
3 -6 1 1179.840 1168.580 25.950 2.206 o
3 -6 2 210.979 223.884 8.789 31.968 o
3 -6 3 8.630 3.026 4.031 558.290 o
3 -6 4 274.046 254.464 11.536 22.144 o
3 -6 5 76.540 83.680 4.293 122.522 o
3 -6 6 103.227 100.850 5.131 88.113 o
3 -6 7 3.641 4.367 2.858 1074.460 o
3 -6 8 13.872 14.266 4.170 417.127 o
3 -6 9 70.666 68.301 6.980 102.643 o
3 -6 10 79.621 72.086 9.442 72.534 o
3 -6 11 77.245 84.070 9.805 68.459 o
3 -5 0 612.529 647.378 12.862 6.895 o
3 -5 1 2400.950 2542.760 51.364 0.566 o
3 -5 2 239.265 210.668 19.883 16.707 o
3 -5 3 4.034 -0.709 3.227 966.610 o
3 -5 4 190.698 198.795 9.234 35.180 o
3 -5 5 514.256 495.506 19.078 8.117 o
3 -5 6 575.272 574.754 13.564 7.711 o
3 -5 7 544.178 570.553 13.680 8.150 o
3 -5 8 111.896 98.172 5.864 79.548 o
3 -5 9 11.110 7.659 3.564 580.386 o
3 -5 10 81.072 74.938 6.603 97.648 o
3 -5 11 92.541 90.243 11.621 52.362 o
3 -5 12 118.134 136.890 24.694 16.159 o
3 -4 0 254.770 225.032 12.655 23.150 o
3 -4 1 2539.620 2444.450 49.025 0.549 o
3 -4 2 22.036 27.262 3.515 368.446 o
3 -4 3 809.737 816.313 22.340 4.044 o
3 -4 4 1106.480 1135.480 29.723 2.300 o
3 -4 5 2026.920 1953.350 39.033 0.843 o
3 -4 6 528.362 551.203 12.840 8.661 o
3 -4 7 246.283 249.376 7.601 28.386 o
3 -4 8 13.381 23.834 3.712 432.865 o
3 -4 9 39.145 33.910 3.675 256.401 o
3 -4 10 257.957 266.620 26.683 10.934 o
3 -4 11 20.831 13.800 4.467 340.452 o
3 -4 12 282.271 324.258 35.770 6.897 o
3 -4 13 20.218 11.621 19.792 29.945 o
3 -3 0 6068.690 6470.490 107.523 0.097 o
3 -3 1 2557.990 2895.260 57.123 0.477 o
3 -3 2 884.889 890.429 23.623 3.490 o
3 -3 3 1129.930 1201.830 32.281 2.127 o
3 -3 4 3348.100 3487.000 118.188 0.247 o
3 -3 5 2558.940 2417.250 142.975 0.302 o
3 -3 6 774.955 843.051 21.799 4.183 o
3 -3 7 1.916 3.394 2.501 1483.440 o
3 -3 8 35.263 43.273 4.231 232.255 o
3 -3 9 143.643 141.514 7.639 52.761 o
3 -3 10 131.268 140.806 7.809 55.356 o
3 -3 11 155.083 167.761 7.921 46.422 o
3 -3 12 188.346 175.010 13.602 28.439 o
3 -3 13 41.697 37.586 21.063 25.328 o
3 -3 14 9.200 15.979 21.426 25.974 o
3 -2 0 750.869 726.661 13.249 5.228 o
3 -2 1 209.474 152.042 6.991 40.063 o
3 -2 2 3.707 39.626 3.588 465.404 o
3 -2 3 560.464 612.668 16.627 7.236 o
3 -2 4 919.819 885.615 18.316 3.588 o
3 -2 5 3587.610 3541.090 68.616 0.279 o
3 -2 6 154.282 165.656 5.332 53.910 o
3 -2 7 250.141 266.945 9.337 25.522 o
3 -2 8 187.229 153.199 7.159 43.520 o
3 -2 9 307.967 307.881 10.651 19.380 o
3 -2 10 35.468 40.171 4.304 233.554 o
3 -2 11 459.894 467.177 18.659 9.206 o
3 -2 12 32.560 112.922 16.523 36.820 o
3 -2 13 0.927 4.695 9.018 146.502 o
3 -2 14 49.576 57.196 19.973 27.145 o
3 -1 0 343.527 257.307 10.685 18.832 o
3 -1 1 151.726 149.949 4.989 57.789 o
3 -1 2 126.025 124.966 3.455 77.352 o
3 -1 3 142.521 88.026 3.368 78.642 o
3 -1 4 881.727 869.385 22.276 3.609 o
3 -1 5 670.688 609.475 16.306 6.146 o
3 -1 6 386.208 428.483 17.613 11.234 o
3 -1 7 1400.370 1523.090 53.020 1.239 o
3 -1 8 366.847 330.432 14.708 14.221 o
3 -1 9 91.635 102.358 7.039 80.328 o
3 -1 10 3.868 7.455 5.272 381.192 o
3 -1 11 557.823 555.414 23.875 6.433 o
3 -1 12 143.997 169.847 30.323 10.989 o
3 -1 13 52.448 73.675 10.440 72.991 o
3 -1 14 65.620 40.128 18.702 30.068 o
3 -1 15 23.888 31.413 20.337 27.872 o
3 0 0 591.671 514.738 10.976 8.233 o
3 0 1 241.422 292.014 5.619 28.502 o
3 0 2 202.420 240.600 6.544 35.171 o
3 0 3 487.390 422.950 22.061 8.264 o
3 0 4 335.270 372.557 15.252 14.274 o
3 0 5 865.808 756.191 27.599 3.615 o
3 0 6 101.327 101.664 6.900 77.013 o
3 0 7 457.111 407.701 12.908 11.397 o
3 0 8 605.625 590.621 19.247 6.509 o
3 0 9 12.863 14.708 6.718 215.571 o
3 0 10 1.843 4.946 3.293 923.909 o
3 0 11 117.535 93.493 13.981 38.372 o
3 0 12 739.546 686.466 38.131 3.475 o
3 0 13 371.811 411.825 28.961 7.771 o
3 0 14 77.175 105.477 21.063 22.781 o
3 0 15 6.702 25.058 18.158 35.754 o
3 1 0 108.809 65.300 5.373 93.886 o
3 1 1 171.819 261.125 5.792 39.267 o
3 1 2 56.842 106.385 3.845 137.002 o
3 1 3 6.122 12.347 2.360 986.352 o
3 1 4 884.336 859.489 31.049 3.176 o
3 1 5 14.238 27.418 4.721 318.468 o
3 1 6 1059.490 1121.300 42.126 2.052 o
3 1 7 716.635 681.381 28.871 4.346 o
3 1 8 1872.620 1806.500 67.001 0.779 o
3 1 9 85.061 93.078 6.260 92.689 o
3 1 10 1081.460 1070.240 29.090 2.441 o
3 1 11 172.621 180.266 10.441 36.210 o
3 1 12 397.352 390.170 28.689 7.704 o
3 1 13 1009.690 1104.420 52.475 1.831 o
3 1 14 85.618 91.133 19.973 24.806 o
3 1 15 51.043 54.110 20.155 26.714 o
3 1 16 0.082 5.447 19.066 33.349 o
3 2 0 475.884 630.654 36.182 4.835 o
3 2 1 5173.800 4644.540 108.993 0.141 o
3 2 2 1159.720 1135.630 27.989 2.234 o
3 2 3 1434.410 1523.750 30.187 1.497 o
3 2 4 3556.160 3453.230 134.348 0.218 o
3 2 6 3320.770 3457.400 118.006 0.251 o
3 2 7 357.067 297.022 16.160 14.284 o
3 2 8 255.028 283.952 13.064 20.961 o
3 2 9 1.124 3.632 5.992 324.704 o
3 2 10 30.989 26.942 5.629 210.037 o
3 2 11 1196.460 1188.370 31.972 2.029 o
3 2 12 632.997 720.239 37.223 3.860 o
3 2 13 402.181 364.023 29.778 7.481 o
3 2 14 246.300 220.052 29.234 10.106 o
3 2 15 1.195 2.905 16.342 45.339 o
3 2 16 1.097 15.797 18.702 34.319 o
3 3 0 289.417 286.490 11.984 19.960 o
3 3 1 7465.230 7485.030 175.116 0.063 o
3 3 2 3137.300 3034.210 72.272 0.349 o
3 3 3 11.722 15.928 1.273 963.001 o
3 3 4 490.469 522.439 35.332 5.160 o
3 3 5 14710.900 13847.900 263.867 0.018 o
3 3 6 10329.800 10113.700 335.697 0.029 o
3 3 7 5855.490 5885.020 198.444 0.086 o
3 3 8 1557.020 1488.050 55.744 1.109 o
3 3 9 132.114 265.083 17.250 23.098 o
3 3 10 30.108 44.486 9.260 103.857 o
3 3 11 2762.820 2785.270 69.041 0.425 o
3 3 12 269.298 307.011 10.529 21.689 o
3 3 13 290.604 298.474 25.965 10.565 o
3 3 14 43.558 43.397 14.708 47.443 o
3 3 15 4.860 25.965 15.616 47.963 o
3 3 16 52.752 54.291 19.610 27.962 o
3 4 0 1732.900 1683.250 41.150 1.070 o
3 4 1 1803.800 1789.940 43.653 0.975 o
3 4 2 83.476 53.492 6.266 107.272 o
3 4 3 4.813 3.175 1.284 2374.970 o
3 4 4 463.612 410.838 9.555 12.046 o
3 4 5 1176.340 1232.220 25.571 2.158 o
3 4 6 835.770 858.846 21.632 3.862 o
3 4 7 150.536 168.694 8.089 46.766 o
3 4 8 77.907 62.038 5.649 115.842 o
3 4 9 42.105 35.770 7.445 132.257 o
3 4 10 657.454 675.924 19.763 5.621 o
3 4 11 1101.480 1062.130 29.174 2.403 o
3 4 12 107.355 94.572 6.817 76.459 o
3 4 13 6.314 5.645 3.263 778.124 o
3 4 14 38.706 45.394 13.618 54.575 o
3 4 15 156.720 161.766 21.789 18.095 o
3 4 16 146.135 134.530 23.060 17.314 o
3 5 0 4415.050 4069.210 272.337 0.094 o
3 5 1 36.064 40.751 3.588 258.602 o
3 5 2 42.668 59.088 4.231 192.960 o
3 5 3 276.548 286.799 10.848 21.602 o
3 5 4 3027.660 2892.140 56.663 0.397 o
3 5 5 2224.200 2460.330 60.147 0.596 o
3 5 6 46.014 90.838 4.846 146.853 o
3 5 7 0.874 4.232 2.405 1645.960 o
3 5 8 497.368 539.278 18.091 8.251 o
3 5 9 108.227 109.110 6.341 75.826 o
3 5 10 1884.040 1808.150 69.837 0.755 o
3 5 11 188.782 179.149 22.969 15.733 o
3 5 12 41.840 37.563 6.264 159.556 o
3 5 13 241.478 219.875 11.893 25.133 o
3 5 14 326.583 337.362 10.344 17.913 o
3 5 15 174.355 182.102 23.786 15.290 o
3 5 16 81.194 80.620 19.610 26.005 o
3 6 0 848.219 841.564 18.274 4.015 o
3 6 1 707.277 775.922 14.703 5.278 o
3 6 2 10.705 5.387 1.625 1212.930 o
3 6 3 37.122 28.099 3.066 303.791 o
3 6 4 2519.110 2513.630 63.142 0.510 o
3 6 5 83.742 76.635 3.815 123.520 o
3 6 6 41.304 33.624 2.617 288.556 o
3 6 7 207.448 202.041 7.253 36.124 o
3 6 8 778.886 808.570 16.368 4.583 o
3 6 9 276.648 286.829 9.452 22.738 o
3 6 10 1290.980 1287.250 28.561 1.860 o
3 6 11 23.343 19.062 4.318 323.780 o
3 6 12 5.509 5.630 4.202 548.255 o
3 6 13 475.348 424.579 20.337 8.857 o
3 6 14 681.281 674.765 23.863 5.039 o
3 6 15 147.152 141.248 28.871 12.058 o
3 6 16 75.913 66.094 19.066 27.875 o
3 7 0 311.072 321.517 9.049 19.842 o
3 7 1 2323.160 2520.420 43.645 0.611 o
3 7 2 1458.940 1469.720 35.562 1.437 o
3 7 3 398.776 346.111 8.261 15.523 o
3 7 4 1365.170 1411.040 25.396 1.708 o
3 7 5 23.171 41.941 3.137 339.025 o
3 7 6 2.123 3.674 2.096 1863.150 o
3 7 7 475.238 451.036 10.564 11.044 o
3 7 8 1060.390 1156.530 22.374 2.566 o
3 7 9 369.292 336.540 9.450 16.466 o
3 7 10 507.069 528.497 13.032 9.163 o
3 7 11 14.189 17.277 4.417 375.936 o
3 7 12 1.368 11.963 4.839 444.056 o
3 7 13 384.556 351.978 15.247 13.140 o
3 7 14 286.598 310.443 15.077 17.182 o
3 7 15 50.102 59.738 25.058 17.935 o
3 7 16 0.996 4.539 16.342 45.282 o
3 8 0 398.459 403.263 11.135 13.577 o
3 8 1 1463.050 1559.930 28.343 1.465 o
3 8 2 2486.900 2683.220 46.722 0.538 o
3 8 3 912.074 870.193 19.997 3.584 o
3 8 4 205.797 216.304 21.063 16.556 o
3 8 5 57.859 54.583 3.653 178.998 o
3 8 6 49.655 59.404 4.085 181.540 o
3 8 7 316.952 308.218 8.745 20.062 o
3 8 8 1013.350 1063.100 21.192 2.852 o
3 8 9 299.768 317.312 15.332 16.364 o
3 8 10 22.043 25.464 4.006 336.470 o
3 8 11 23.003 22.185 4.572 299.782 o
3 8 12 203.973 212.094 12.003 28.277 o
3 8 13 198.923 197.864 12.959 27.756 o
3 8 14 286.448 277.142 15.418 17.600 o
3 8 15 20.514 15.979 15.434 47.833 o
3 8 16 6.684 -0.182 17.431 39.588 o
3 9 0 870.859 922.412 21.308 3.589 o
3 9 1 609.388 619.773 13.586 7.012 o
3 9 2 2102.160 2158.370 38.579 0.767 o
3 9 3 197.690 247.076 7.706 33.751 o
3 9 4 2.658 -0.813 3.059 1128.250 o
3 9 5 631.118 655.711 20.415 5.844 o
3 9 6 362.996 347.263 9.560 16.459 o
3 9 7 684.870 705.794 15.469 5.675 o
3 9 8 169.115 174.531 8.228 42.367 o
3 9 9 524.448 545.813 13.635 8.635 o
3 9 10 36.894 29.708 4.685 229.658 o
3 9 11 19.925 26.418 4.849 285.605 o
3 9 12 320.579 284.575 11.416 18.825 o
3 9 13 350.868 370.446 23.127 10.298 o
3 9 14 158.689 140.828 11.826 37.083 o
3 9 15 62.459 52.129 12.069 60.006 o
3 9 16 1.318 -9.828 10.592 107.824 o
3 10 0 575.918 579.467 13.693 7.655 o
3 10 1 483.622 491.360 12.248 10.084 o
3 10 2 279.283 316.608 9.624 21.474 o
3 10 3 417.271 391.729 10.845 13.274 o
3 10 4 366.898 378.188 13.054 14.229 o
3 10 5 101.641 110.314 11.369 49.892 o
3 10 6 1388.350 1385.010 47.019 1.391 o
3 10 7 4.760 8.781 3.634 668.606 o
3 10 8 1.508 3.470 3.806 749.885 o
3 10 9 3.523 6.081 4.154 584.667 o
3 10 10 59.628 50.413 5.498 143.805 o
3 10 11 235.583 244.094 10.587 26.244 o
3 10 12 177.697 174.261 12.334 31.885 o
3 10 13 150.686 161.909 11.566 37.453 o
3 10 14 13.387 2.475 7.339 196.495 o
3 10 15 6.653 -3.331 9.876 120.333 o
3 11 0 55.278 46.770 5.646 148.929 o
3 11 1 77.886 99.323 7.368 85.162 o
3 11 2 9.441 16.684 4.808 368.567 o
3 11 3 11.925 18.128 4.670 362.399 o
3 11 4 383.956 381.287 33.501 6.602 o
3 11 5 710.480 739.063 26.238 4.461 o
3 11 6 1611.520 1610.200 51.386 1.081 o
3 11 7 603.025 591.406 21.426 6.234 o
3 11 8 66.833 71.615 6.699 107.717 o
3 11 9 30.484 28.578 6.121 190.367 o
3 11 10 160.948 157.288 10.912 38.128 o
3 11 11 319.233 329.774 18.793 13.434 o
3 11 12 149.831 149.335 14.184 31.659 o
3 11 13 118.553 141.167 13.606 36.755 o
3 11 14 11.112 5.349 10.064 111.786 o
3 11 15 16.003 12.252 11.743 80.956 o
3 12 0 216.843 221.796 14.301 23.656 o
3 12 1 98.190 90.783 7.356 77.635 o
3 12 2 29.436 22.407 5.359 231.718 o
3 12 3 113.359 106.656 11.348 48.147 o
3 12 4 7.264 5.487 5.692 321.378 o
3 12 5 19.105 18.158 6.649 201.912 o
3 12 6 130.522 134.600 18.248 24.948 o
3 12 7 213.220 221.523 15.001 22.968 o
3 12 8 113.914 120.295 18.339 26.040 o
3 12 9 17.099 21.871 6.181 224.626 o
3 12 10 53.232 58.768 9.276 87.690 o
3 12 11 49.218 62.142 9.816 82.576 o
3 12 12 78.823 69.744 10.599 64.275 o
3 12 13 4.557 10.713 14.526 56.241 o
3 12 14 9.369 -9.010 10.133 112.909 o
3 13 0 58.203 47.936 11.439 66.410 o
3 13 1 52.846 46.302 10.350 78.518 o
3 13 2 11.733 9.624 8.171 160.248 o
3 13 3 108.882 122.546 16.160 31.332 o
3 13 4 227.165 207.160 17.794 19.298 o
3 13 5 330.999 353.366 18.639 12.919 o
3 13 6 96.531 116.563 13.470 41.357 o
3 13 7 76.111 51.931 11.439 61.309 o
3 13 8 234.699 199.534 25.239 12.730 o
3 13 9 393.824 361.300 27.599 8.209 o
3 13 10 110.066 126.899 14.798 34.819 o
3 13 11 19.388 18.104 9.634 111.619 o
3 13 12 0.364 7.263 15.071 53.089 o
3 13 13 7.305 25.999 10.491 100.237 o
3 14 0 51.428 43.941 12.529 59.963 o
3 14 1 3.296 -5.629 10.350 111.781 o
3 14 2 0.949 2.360 10.531 108.629 o
3 14 3 47.842 34.863 10.713 78.513 o
3 14 4 98.055 99.485 13.618 41.697 o
3 14 6 32.283 13.255 10.895 86.079 o
3 14 7 0.357 -9.805 10.168 117.513 o
3 14 8 97.180 113.830 16.705 31.109 o
3 14 9 664.414 647.790 36.678 3.928 o
3 14 10 142.333 124.180 18.521 24.114 o
3 14 11 19.735 9.841 10.005 106.726 o
3 14 12 4.493 1.586 10.592 105.801 o
3 15 1 111.418 79.893 15.252 35.555 o
3 15 2 82.171 83.525 14.889 39.616 o
3 15 3 78.223 53.020 13.437 48.624 o
3 15 4 33.614 27.599 11.984 70.850 o
3 15 5 2.721 4.358 11.621 88.401 o
3 15 6 0.142 1.997 11.258 95.585 o
3 15 7 240.499 255.277 26.328 11.482 o
3 15 8 31.673 46.665 14.889 47.751 o
3 15 9 438.690 503.274 35.226 5.514 o
4 -12 0 98.987 126.359 17.431 28.736 o
4 -12 1 42.612 32.321 14.163 51.498 o
4 -12 2 0.224 5.084 13.800 63.424 o
4 -11 0 25.997 54.654 13.255 58.579 o
4 -11 1 82.193 59.375 13.437 47.529 o
4 -11 2 63.423 51.931 13.437 51.060 o
4 -11 3 35.661 32.139 13.073 60.274 o
4 -11 4 56.704 52.112 14.163 48.025 o
4 -10 1 85.090 54.473 15.071 40.166 o
4 -10 2 39.958 41.581 11.439 72.459 o
4 -10 3 234.803 240.933 23.242 13.700 o
4 -10 4 217.929 233.670 23.605 13.883 o
4 -10 5 79.935 95.128 15.434 37.246 o
4 -10 6 3.406 -10.531 12.892 72.439 o
4 -9 0 73.308 53.051 5.067 132.904 o
4 -9 1 106.472 119.822 15.797 32.609 o
4 -9 2 49.865 59.375 11.076 70.286 o
4 -9 3 242.447 257.456 19.973 15.803 o
4 -9 4 199.307 191.726 19.429 18.882 o
4 -9 5 15.747 14.889 11.258 87.058 o
4 -9 6 5.325 9.260 11.258 92.085 o
4 -9 7 101.711 90.243 17.068 30.667 o
4 -8 0 211.506 215.495 19.477 17.954 o
4 -8 1 676.261 644.340 30.323 4.502 o
4 -8 2 85.840 119.459 15.252 36.110 o
4 -8 3 247.621 244.383 18.702 16.927 o
4 -8 4 88.373 71.541 11.439 56.195 o
4 -8 5 1.773 0.363 8.171 179.497 o
4 -8 6 62.851 73.357 11.621 60.643 o
4 -8 7 287.959 321.353 22.334 12.280 o
4 -8 8 192.276 212.244 20.155 17.966 o
4 -8 9 43.885 37.586 11.802 68.476 o
4 -7 0 3.151 9.647 3.165 847.607 o
4 -7 1 2249.110 2250.880 47.411 0.664 o
4 -7 2 59.967 50.109 5.583 141.987 o
4 -7 3 92.107 110.677 9.534 61.774 o
4 -7 4 0.189 4.813 5.626 368.268 o
4 -7 5 116.775 122.316 15.343 32.870 o
4 -7 6 257.533 258.134 14.004 20.619 o
4 -7 7 447.710 422.051 17.476 10.127 o
4 -7 8 206.067 200.493 13.481 26.275 o
4 -7 9 10.669 16.523 9.260 126.357 o
4 -7 10 19.649 16.887 10.168 101.934 o
4 -6 0 1286.580 1227.190 22.962 2.005 o
4 -6 1 985.984 1021.800 23.755 2.916 o
4 -6 2 478.856 483.972 18.369 8.855 o
4 -6 3 362.408 363.198 14.236 14.076 o
4 -6 4 96.418 94.812 7.782 74.472 o
4 -6 5 648.620 636.757 29.679 4.735 o
4 -6 6 71.907 78.064 7.675 91.044 o
4 -6 7 79.077 88.245 8.205 79.935 o
4 -6 8 60.065 75.099 7.849 96.767 o
4 -6 9 0.163 -4.452 10.350 113.543 o
4 -6 10 1.015 7.081 9.079 143.394 o
4 -6 11 3.094 6.174 9.987 118.078 o
4 -5 0 1526.910 1584.240 27.686 1.391 o
4 -5 1 452.205 479.009 14.874 10.219 o
4 -5 2 285.113 252.477 16.405 17.355 o
4 -5 3 158.898 154.302 8.977 43.984 o
4 -5 4 534.943 546.594 17.651 7.788 o
4 -5 5 207.214 215.632 10.764 29.771 o
4 -5 6 8.434 11.405 4.903 382.177 o
4 -5 7 412.701 393.827 15.007 11.965 o
4 -5 8 186.967 181.193 9.459 36.381 o
4 -5 9 158.075 151.842 7.066 49.930 o
4 -5 10 11.693 10.365 4.433 419.222 o
4 -5 11 38.869 43.760 8.534 110.694 o
4 -5 12 22.981 25.341 11.530 79.241 o
4 -4 0 628.121 588.128 11.822 7.163 o
4 -4 1 9.701 6.021 2.580 890.885 o
4 -4 2 57.715 66.615 4.644 150.900 o
4 -4 3 79.670 76.875 6.533 98.666 o
4 -4 4 1131.880 1173.120 31.199 2.176 o
4 -4 5 1564.370 1623.070 41.599 1.208 o
4 -4 6 1301.530 1312.450 34.474 1.729 o
4 -4 7 33.825 28.184 2.939 327.598 o
4 -4 8 0.754 0.411 2.889 1373.310 o
4 -4 9 86.147 81.115 6.555 92.988 o
4 -4 10 11.611 12.758 4.539 397.291 o
4 -4 11 450.930 428.795 22.243 8.659 o
4 -4 12 1.351 0.116 6.631 272.189 o
4 -4 13 9.046 14.345 20.337 28.805 o
4 -3 0 459.056 452.958 11.954 11.077 o
4 -3 1 16.284 18.440 3.571 447.238 o
4 -3 2 170.903 189.763 8.089 41.093 o
4 -3 3 37.616 33.946 3.980 249.487 o
4 -3 4 882.506 789.675 21.955 3.791 o
4 -3 5 310.721 321.771 11.427 18.393 o
4 -3 6 233.397 252.390 7.243 29.908 o
4 -3 7 211.589 207.768 6.834 35.770 o
4 -3 8 604.147 615.327 14.450 7.000 o
4 -3 9 15.182 11.537 3.588 494.091 o
4 -3 10 215.137 257.566 10.459 27.558 o
4 -3 11 429.716 461.994 15.136 10.773 o
4 -3 12 12.556 22.743 5.079 309.620 o
4 -3 13 22.718 -3.632 18.521 34.210 o
4 -2 0 6.288 9.613 1.753 1328.230 o
4 -2 1 14.062 9.492 2.025 833.242 o
4 -2 2 1781.560 1804.350 45.848 0.969 o
4 -2 3 1771.100 1853.340 54.645 0.898 o
4 -2 4 3800.950 3999.080 95.576 0.224 o
4 -2 5 1484.720 1442.850 25.100 1.538 o
4 -2 6 16.806 11.210 2.266 685.543 o
4 -2 7 210.605 205.744 12.892 26.627 o
4 -2 8 1002.920 1024.830 26.764 2.763 o
4 -2 9 101.073 110.963 10.350 54.925 o
4 -2 10 511.687 526.681 16.267 8.498 o
4 -2 11 111.464 98.623 8.962 61.241 o
4 -2 12 99.305 107.198 7.818 70.668 o
4 -2 13 159.160 129.557 12.865 34.957 o
4 -2 14 65.907 19.792 20.337 26.385 o
4 -1 0 359.079 344.179 13.559 14.812 o
4 -1 1 150.004 135.278 3.488 64.740 o
4 -1 2 34.659 35.185 2.988 301.969 o
4 -1 3 1723.140 1694.040 33.660 1.128 o
4 -1 4 850.578 809.067 17.047 4.144 o
4 -1 5 528.786 597.675 21.604 6.884 o
4 -1 6 1410.090 1403.440 50.115 1.318 o
4 -1 7 269.741 289.214 14.163 19.093 o
4 -1 8 1166.500 1143.640 41.762 1.884 o
4 -1 9 299.842 308.461 15.252 16.581 o
4 -1 10 643.888 623.184 26.938 5.111 o
4 -1 11 84.517 93.538 6.181 93.584 o
4 -1 12 192.947 213.577 9.872 32.856 o
4 -1 13 509.243 523.807 42.398 4.118 o
4 -1 14 175.234 129.627 23.605 16.061 o
4 -1 15 84.690 63.733 22.152 21.351 o
4 0 0 659.454 548.437 14.858 6.713 o
4 0 1 465.976 490.963 9.201 11.066 o
4 0 2 584.135 511.729 10.980 8.368 o
4 0 3 534.741 483.997 12.920 9.091 o
4 0 4 1878.170 2028.360 48.910 0.844 o
4 0 5 196.302 185.189 9.260 35.284 o
4 0 6 2075.130 2031.150 63.270 0.690 o
4 0 7 712.422 721.873 27.418 4.394 o
4 0 8 469.574 435.921 32.856 5.967 o
4 0 9 631.311 606.379 20.790 6.005 o
4 0 10 170.558 150.071 25.965 13.813 o
4 0 11 676.255 669.042 21.013 5.378 o
4 0 12 107.052 123.453 18.521 25.951 o
4 0 13 425.226 428.557 30.686 6.775 o
4 0 14 146.134 125.088 22.334 18.303 o
4 0 15 5.995 -5.447 18.158 36.560 o
4 1 0 982.528 867.199 15.383 3.469 o
4 1 1 3311.220 3666.230 70.128 0.298 o
4 1 2 703.146 667.436 12.088 5.941 o
4 1 3 448.936 418.396 9.497 12.353 o
4 1 4 279.943 367.168 10.716 19.253 o
4 1 5 911.138 969.155 24.780 3.201 o
4 1 6 921.796 893.410 23.301 3.360 o
4 1 7 1239.500 1195.350 31.207 1.967 o
4 1 8 105.472 97.611 7.263 73.706 o
4 1 9 971.857 967.209 34.863 2.618 o
4 1 10 106.531 115.262 7.989 65.633 o
4 1 11 415.137 411.129 25.784 8.225 o
4 1 12 207.353 202.802 23.242 14.756 o
4 1 13 56.652 45.394 13.255 53.849 o
4 1 14 37.131 27.418 16.705 39.329 o
4 1 15 29.015 26.510 19.792 29.221 o
4 2 0 2700.130 2997.750 91.616 0.372 o
4 2 1 6252.260 5822.230 142.020 0.093 o
4 2 2 2037.180 1986.490 38.675 0.832 o
4 2 3 146.173 196.731 8.171 44.655 o
4 2 4 42.754 35.770 4.721 205.106 o
4 2 5 1622.850 1754.930 61.191 0.942 o
4 2 6 73.862 47.950 4.546 143.172 o
4 2 7 305.424 302.032 8.522 21.058 o
4 2 8 201.179 187.647 8.126 36.553 o
4 2 9 35.301 36.643 3.968 253.350 o
4 2 10 303.211 330.386 12.293 17.984 o
4 2 11 782.916 771.330 22.944 4.250 o
4 2 12 116.298 108.433 8.111 62.912 o
4 2 13 84.503 86.490 7.671 82.435 o
4 2 14 12.090 22.334 18.339 34.834 o
4 2 15 12.052 23.423 17.976 36.167 o
4 2 16 103.406 92.767 23.242 18.771 o
4 3 0 2854.310 2927.310 56.840 0.421 o
4 3 1 782.528 813.896 20.992 4.270 o
4 3 2 927.417 987.081 25.099 3.104 o
4 3 3 223.381 258.582 13.246 23.404 o
4 3 4 1868.380 1953.550 64.790 0.767 o
4 3 5 2028.700 1973.820 85.150 0.601 o
4 3 6 37.648 28.678 6.718 159.444 o
4 3 7 1.363 6.817 3.904 682.994 o
4 3 8 250.444 288.488 16.523 17.913 o
4 3 9 455.893 446.822 23.060 8.259 o
4 3 10 1777.970 1780.100 45.827 0.978 o
4 3 11 118.690 113.472 11.348 46.594 o
4 3 12 225.692 222.578 10.521 28.088 o
4 3 13 266.483 258.412 8.659 25.201 o
4 3 14 133.466 204.618 27.599 12.711 o
4 3 15 107.565 106.567 19.792 23.857 o
4 3 16 53.772 62.099 19.973 26.851 o
4 4 0 1641.190 1807.450 49.674 1.019 o
4 4 1 1263.900 1516.620 37.554 1.598 o
4 4 2 13.186 33.540 3.202 444.104 o
4 4 3 3569.790 3483.060 83.505 0.269 o
4 4 4 4666.280 4998.770 110.588 0.151 o
4 4 5 4498.120 4338.790 103.144 0.174 o
4 4 6 1473.370 1333.940 40.210 1.431 o
4 4 7 10.218 8.142 9.079 134.761 o
4 4 8 793.306 801.155 23.175 4.108 o
4 4 9 1728.320 1724.610 64.096 0.875 o
4 4 10 2532.100 2426.710 88.246 0.445 o
4 4 11 1018.500 1035.240 44.668 2.108 o
4 4 12 157.695 157.201 15.059 28.762 o
4 4 13 194.725 203.179 8.899 34.996 o
4 4 14 426.857 384.730 11.529 12.881 o
4 4 15 149.523 174.839 23.786 15.954 o
4 4 16 71.074 61.191 18.884 28.711 o
4 5 0 652.962 637.734 17.782 6.025 o
4 5 1 1980.580 1933.220 47.632 0.826 o
4 5 2 3801.440 4174.510 80.770 0.229 o
4 5 3 131.644 83.317 4.530 80.657 o
4 5 4 2685.700 2561.280 73.768 0.446 o
4 5 5 371.000 362.042 10.703 15.370 o
4 5 6 12.368 26.665 4.359 362.447 o
4 5 7 844.741 820.336 18.613 4.068 o
4 5 8 961.296 887.000 42.600 2.415 o
4 5 9 674.938 696.545 21.760 5.216 o
4 5 10 515.046 523.336 18.612 8.017 o
4 5 11 479.133 491.348 16.308 9.275 o
4 5 12 11.189 9.526 6.174 259.165 o
4 5 13 182.277 204.419 10.979 32.526 o
4 5 14 356.227 331.002 13.145 15.345 o
4 5 15 105.247 100.756 11.802 48.124 o
4 5 16 60.846 71.541 19.973 26.328 o
4 6 0 479.565 584.521 16.947 8.412 o
4 6 1 1875.180 2093.220 51.741 0.815 o
4 6 2 5819.080 5995.150 133.197 0.102 o
4 6 3 2277.660 2432.270 56.458 0.598 o
4 6 4 1466.940 1502.630 26.724 1.508 o
4 6 5 23.416 43.307 4.300 269.588 o
4 6 6 6.381 6.222 2.665 990.078 o
4 6 7 214.454 191.451 9.181 32.820 o
4 6 8 989.105 1027.560 23.473 2.907 o
4 6 9 258.123 254.157 7.809 26.863 o
4 6 10 83.778 87.126 5.266 104.754 o
4 6 11 53.025 52.346 4.874 164.499 o
4 6 12 103.451 126.472 10.350 52.660 o
4 6 13 180.855 187.361 11.463 32.652 o
4 6 14 191.183 175.231 12.128 30.916 o
4 6 15 86.851 86.586 8.020 78.433 o
4 6 16 18.408 13.800 17.613 37.505 o
4 7 0 171.274 166.457 6.462 46.969 o
4 7 1 43.951 21.782 2.568 306.495 o
4 7 2 744.026 810.205 18.137 4.683 o
4 7 3 251.782 226.833 10.928 25.251 o
4 7 4 47.345 37.898 6.108 155.475 o
4 7 5 5.027 8.016 2.346 1165.850 o
4 7 6 188.201 169.830 6.552 43.074 o
4 7 7 6.937 7.332 2.409 1047.850 o
4 7 8 99.912 114.029 6.801 75.558 o
4 7 9 392.987 332.975 10.161 15.310 o
4 7 10 2.753 5.842 3.292 874.876 o
4 7 11 3.169 6.105 3.671 722.370 o
4 7 12 196.213 213.345 9.269 33.532 o
4 7 13 118.633 95.586 10.463 52.183 o
4 7 14 123.487 146.418 12.646 38.807 o
4 7 15 38.833 15.733 10.082 94.086 o
4 7 16 25.013 15.860 10.832 89.291 o
4 8 0 264.414 288.944 9.290 23.649 o
4 8 1 515.782 512.115 11.538 9.414 o
4 8 2 291.053 296.297 7.853 22.603 o
4 8 3 448.577 461.349 14.834 10.476 o
4 8 4 36.994 35.794 3.213 280.009 o
4 8 5 137.334 143.160 6.493 58.334 o
4 8 6 964.577 983.261 19.030 3.203 o
4 8 7 29.590 20.380 3.039 374.447 o
4 8 8 17.250 9.878 2.998 566.681 o
4 8 9 189.846 170.054 7.242 41.367 o
4 8 10 5.841 8.930 3.552 666.401 o
4 8 11 163.728 163.480 8.286 44.176 o
4 8 12 55.832 68.652 5.873 130.986 o
4 8 13 165.531 159.692 10.812 37.606 o
4 8 14 1.151 -0.754 6.253 306.468 o
4 8 15 20.915 14.320 10.449 97.225 o
4 8 16 0.511 -8.892 11.111 98.379 o
4 9 0 331.241 348.357 14.905 14.974 o
4 9 1 609.854 643.312 13.976 6.832 o
4 9 2 50.021 47.901 3.956 196.038 o
4 9 3 433.068 473.798 11.370 11.587 o
4 9 4 478.049 487.908 18.134 8.893 o
4 9 5 180.586 182.819 7.966 40.339 o
4 9 6 2040.700 2082.920 37.373 0.814 o
4 9 7 357.894 360.290 9.805 16.296 o
4 9 8 125.334 120.563 6.619 65.325 o
4 9 9 33.746 31.874 4.167 258.734 o
4 9 10 74.088 68.311 5.349 120.254 o
4 9 11 238.415 245.263 10.107 26.532 o
4 9 12 239.956 229.256 10.603 26.474 o
4 9 13 120.681 144.455 15.093 32.229 o
4 9 14 3.962 -5.404 6.372 284.816 o
4 9 15 8.164 0.908 13.437 65.710 o
4 9 16 18.925 18.568 12.709 68.534 o
4 10 0 555.792 561.037 13.514 8.077 o
4 10 1 306.758 293.784 9.486 20.605 o
4 10 2 82.227 85.993 6.429 95.097 o
4 10 3 4.239 0.375 3.241 943.900 o
4 10 4 61.209 67.605 5.080 138.375 o
4 10 5 1647.760 1637.380 35.328 1.194 o
4 10 6 327.012 317.782 11.281 17.815 o
4 10 7 1186.210 1197.400 25.312 2.178 o
4 10 8 434.333 434.718 14.383 11.187 o
4 10 9 251.713 254.603 9.545 25.679 o
4 10 10 443.542 420.760 14.152 11.205 o
4 10 11 353.392 339.028 11.810 15.972 o
4 10 12 418.821 398.947 17.717 10.829 o
4 10 13 146.704 136.509 16.887 26.571 o
4 10 14 0.150 1.201 8.448 169.612 o
4 10 15 36.387 29.973 10.973 80.507 o
4 11 0 85.366 67.191 6.175 101.830 o
4 11 1 54.317 64.377 7.128 114.319 o
4 11 2 6.779 4.867 4.423 494.884 o
4 11 3 59.547 71.884 6.549 115.472 o
4 11 4 480.888 454.942 14.655 9.954 o
4 11 5 488.765 476.401 24.331 7.406 o
4 11 6 809.898 852.117 27.788 3.635 o
4 11 7 216.911 215.458 22.061 15.358 o
4 11 8 28.826 28.442 5.348 225.604 o
4 11 9 937.422 898.215 33.736 2.837 o
4 11 10 253.896 272.666 13.281 21.128 o
4 11 11 146.044 135.904 10.362 43.584 o
4 11 12 104.213 87.826 9.975 59.010 o
4 11 13 0.532 -6.242 8.169 181.625 o
4 11 14 12.829 13.089 10.192 106.108 o
4 11 15 67.546 72.606 12.814 52.177 o
4 12 0 36.040 50.787 8.156 116.902 o
4 12 1 11.719 19.143 6.973 200.941 o
4 12 2 40.186 34.640 6.980 145.526 o
4 12 3 132.448 136.621 11.692 41.310 o
4 12 4 240.525 243.182 13.673 22.329 o
4 12 5 349.227 331.681 23.332 10.561 o
4 12 6 245.532 236.275 14.517 21.312 o
4 12 7 6.951 13.985 6.782 226.654 o
4 12 8 9.329 13.863 7.712 177.688 o
4 12 9 1321.530 1315.930 38.852 1.627 o
4 12 10 317.875 319.948 14.576 16.134 o
4 12 11 382.092 404.796 18.415 11.269 o
4 12 12 25.731 13.616 8.638 130.392 o
4 12 13 24.029 24.952 10.284 95.874 o
4 12 14 63.230 60.521 12.147 58.373 o
4 13 0 43.390 26.328 10.713 81.672 o
4 13 1 8.984 5.629 9.442 127.276 o
4 13 2 1.151 -0.328 7.352 222.684 o
4 13 3 83.573 96.285 9.639 65.748 o
4 13 4 38.598 38.256 9.260 100.747 o
4 13 5 79.021 96.436 10.294 62.628 o
4 13 6 190.717 184.282 16.251 23.601 o
4 13 7 34.084 35.589 14.708 49.192 o
4 13 8 38.957 49.266 11.712 69.060 o
4 13 9 115.817 120.836 11.995 43.922 o
4 13 10 47.441 49.215 8.969 96.982 o
4 13 11 50.956 30.472 8.919 101.048 o
4 13 12 0.292 10.142 9.421 132.811 o
4 13 13 139.554 150.690 21.244 19.500 o
4 14 0 2.123 4.176 11.621 88.644 o
4 14 1 94.487 117.280 15.616 34.271 o
4 14 2 91.718 73.901 14.708 39.789 o
4 14 3 187.495 184.463 22.334 16.304 o
4 14 4 77.890 93.130 14.345 41.718 o
4 14 5 110.220 92.767 14.345 38.002 o
4 14 6 7.265 9.442 10.895 97.159 o
4 14 7 261.768 256.367 23.968 12.500 o
4 14 8 57.967 45.575 13.437 52.483 o
4 14 9 15.228 19.066 13.800 59.537 o
4 14 10 3.724 5.629 13.800 62.749 o
4 14 11 7.156 18.884 14.345 56.618 o
4 14 12 121.922 94.108 13.435 39.684 o
4 15 1 68.398 65.004 15.434 39.914 o
4 15 2 18.839 -1.634 12.892 68.878 o
4 15 3 13.311 20.337 12.710 69.634 o
4 15 4 1.413 1.089 11.439 92.279 o
4 15 5 26.252 29.415 13.073 62.443 o
4 15 6 204.542 232.762 25.058 13.107 o
4 15 7 122.761 107.475 16.342 30.389 o
4 15 8 193.167 179.379 25.602 13.419 o
4 15 9 1.886 1.634 14.708 55.896 o
4 15 10 25.155 15.252 15.797 45.346 o
5 -12 0 1.861 17.976 14.889 53.472 o
5 -11 0 1.691 0.545 12.529 77.029 o
5 -11 1 31.813 27.963 13.800 55.948 o
5 -11 2 1.368 -2.905 12.166 81.840 o
5 -11 3 141.863 135.437 19.066 22.936 o
5 -10 0 0.222 -7.989 9.987 121.905 o
5 -10 1 236.531 235.667 24.150 13.085 o
5 -10 2 2.021 7.989 11.439 90.757 o
5 -10 3 22.065 9.805 11.802 78.715 o
5 -10 4 24.584 6.537 12.892 66.853 o
5 -10 5 0.632 -8.716 13.981 62.163 o
5 -9 0 32.768 37.223 11.076 79.308 o
5 -9 1 533.342 545.581 34.136 5.048 o
5 -9 3 14.095 21.608 12.892 67.512 o
5 -9 4 18.078 18.521 12.166 74.419 o
5 -9 5 0.139 -14.708 11.621 90.088 o
5 -9 6 19.020 16.705 13.073 65.267 o
5 -9 7 32.649 49.933 14.526 49.482 o
5 -8 0 616.400 616.577 30.323 4.896 o
5 -8 1 819.107 790.509 36.134 3.200 o
5 -8 2 420.086 412.504 24.694 8.472 o
5 -8 3 2.913 9.079 9.442 130.595 o
5 -8 4 29.051 23.060 10.713 87.857 o
5 -8 5 131.892 122.727 15.434 31.336 o
5 -8 6 53.918 76.443 13.437 50.615 o
5 -8 7 37.828 53.928 13.073 57.731 o
5 -8 8 12.622 -9.987 13.255 66.644 o
5 -7 0 295.829 308.036 11.827 19.191 o
5 -7 1 52.736 63.638 7.672 107.648 o
5 -7 2 208.401 175.203 16.705 22.241 o
5 -7 3 73.070 68.454 10.895 63.884 o
5 -7 4 190.731 204.255 18.521 20.045 o
5 -7 5 449.559 482.574 26.692 7.244 o
5 -7 6 371.909 378.186 24.331 9.460 o
5 -7 7 2.312 6.355 10.168 114.437 o
5 -7 8 4.545 1.634 10.531 106.950 o
5 -7 9 28.600 43.578 11.621 73.687 o
5 -6 0 214.338 183.887 9.202 33.241 o
5 -6 1 258.832 285.206 11.082 22.556 o
5 -6 2 0.669 3.288 4.151 658.768 o
5 -6 3 10.484 15.307 6.364 240.471 o
5 -6 4 767.396 751.250 23.855 4.319 o
5 -6 5 915.733 923.256 27.915 3.125 o
5 -6 6 705.642 721.813 23.796 4.749 o
5 -6 7 29.018 26.788 19.973 28.717 o
5 -6 8 1.306 19.016 6.975 223.033 o
5 -6 9 2.350 -1.235 11.621 89.301 o
5 -6 10 37.315 15.797 10.350 90.923 o
5 -5 0 761.023 738.519 18.375 4.785 o
5 -5 1 86.454 94.923 6.601 88.390 o
5 -5 2 89.845 65.660 5.516 105.898 o
5 -5 3 304.340 296.357 16.064 16.082 o
5 -5 4 555.979 536.988 18.421 7.455 o
5 -5 5 685.723 741.431 23.040 4.878 o
5 -5 6 109.252 119.010 9.617 55.711 o
5 -5 7 13.359 6.168 8.262 157.281 o
5 -5 8 85.753 73.372 8.061 81.530 o
5 -5 9 3.248 1.140 6.796 252.263 o
5 -5 10 81.110 101.483 12.347 49.723 o
5 -5 11 192.426 221.323 18.702 19.410 o
5 -4 0 401.926 418.600 9.409 13.770 o
5 -4 1 108.447 101.280 7.639 69.474 o
5 -4 2 5.300 11.892 5.200 366.496 o
5 -4 3 187.131 184.839 8.084 38.899 o
5 -4 4 830.708 894.777 25.679 3.589 o
5 -4 5 498.453 491.686 16.752 8.863 o
5 -4 6 12.497 12.451 4.932 349.967 o
5 -4 7 0.502 -0.971 5.131 457.696 o
5 -4 8 135.785 141.264 10.716 43.676 o
5 -4 9 41.250 53.383 9.442 92.711 o
5 -4 10 82.360 78.416 7.881 83.553 o
5 -4 11 72.036 66.678 9.351 77.161 o
5 -4 12 40.284 35.743 8.507 112.988 o
5 -3 0 166.997 152.351 5.381 52.195 o
5 -3 1 30.440 24.040 3.158 348.206 o
5 -3 2 171.187 161.238 12.664 32.493 o
5 -3 3 64.634 54.998 6.718 115.840 o
5 -3 4 1488.430 1486.480 39.386 1.354 o
5 -3 5 39.035 36.678 6.900 147.657 o
5 -3 6 3.710 6.589 4.358 533.875 o
5 -3 7 51.794 48.091 9.442 88.886 o
5 -3 8 275.810 266.530 7.555 25.058 o
5 -3 9 428.969 384.225 10.309 13.199 o
5 -3 10 464.794 467.285 14.942 10.072 o
5 -3 11 15.483 18.030 5.059 308.499 o
5 -3 12 22.053 29.354 9.714 105.195 o
5 -3 13 182.377 200.623 28.689 11.328 o
5 -2 0 2.915 17.915 3.153 739.118 o
5 -2 1 796.521 884.432 16.565 4.255 o
5 -2 2 201.488 172.209 6.998 39.707 o
5 -2 3 149.897 123.312 6.997 55.769 o
5 -2 4 743.427 722.980 20.543 4.785 o
5 -2 5 234.915 272.634 10.657 25.098 o
5 -2 6 581.530 552.988 11.846 7.995 o
5 -2 7 386.478 350.095 8.940 15.692 o
5 -2 8 312.697 314.659 8.838 20.067 o
5 -2 9 563.880 545.073 13.402 8.092 o
5 -2 10 127.219 150.918 24.604 15.906 o
5 -2 11 240.057 251.040 10.377 25.851 o
5 -2 12 74.928 88.356 10.636 62.539 o
5 -2 13 294.769 283.471 23.687 11.778 o
5 -2 14 169.587 161.947 27.236 12.751 o
5 -1 0 2388.090 2563.760 39.133 0.597 o
5 -1 1 2398.710 2414.000 36.820 0.622 o
5 -1 2 4210.230 4247.010 63.646 0.211 o
5 -1 3 1549.770 1572.070 31.726 1.338 o
5 -1 4 572.533 586.313 13.113 7.730 o
5 -1 5 1028.520 1049.220 26.631 2.667 o
5 -1 6 1237.800 1119.500 28.648 2.087 o
5 -1 7 1772.380 1846.020 45.823 0.962 o
5 -1 8 925.615 939.792 25.156 3.186 o
5 -1 9 742.915 795.912 35.398 3.483 o
5 -1 10 28.092 32.340 9.805 99.545 o
5 -1 11 242.157 259.362 11.063 24.605 o
5 -1 12 404.015 405.011 18.201 10.897 o
5 -1 13 220.591 239.456 19.125 17.563 o
5 -1 14 182.322 152.687 24.331 14.948 o
5 0 0 4342.260 4121.630 69.492 0.204 o
5 0 1 1824.360 1898.070 32.562 0.999 o
5 0 2 1823.830 1814.720 31.152 1.033 o
5 0 3 1294.280 1385.110 36.249 1.662 o
5 0 4 1078.790 1020.150 25.889 2.598 o
5 0 5 517.533 503.652 21.608 7.511 o
5 0 6 1298.750 1250.690 31.701 1.823 o
5 0 7 1138.310 1200.210 30.936 2.145 o
5 0 8 379.497 342.995 11.682 14.992 o
5 0 9 309.890 323.983 24.154 10.916 o
5 0 10 535.237 538.152 18.101 7.758 o
5 0 11 250.088 252.301 19.701 15.872 o
5 0 12 566.205 530.007 19.203 7.247 o
5 0 13 108.282 138.369 36.587 8.263 o
5 0 14 22.832 49.389 17.613 35.963 o
5 0 15 3.821 -0.363 20.700 28.273 o
5 1 0 2897.880 2683.450 40.629 0.460 o
5 1 1 61.842 71.837 3.358 161.070 o
5 1 2 1389.530 1397.490 24.371 1.696 o
5 1 3 199.680 223.649 21.063 16.629 o
5 1 4 2159.140 2022.190 49.167 0.728 o
5 1 5 470.491 481.993 13.909 10.070 o
5 1 6 1002.490 949.528 24.838 2.938 o
5 1 7 173.386 186.697 7.767 41.650 o
5 1 8 91.516 82.523 5.286 100.516 o
5 1 9 18.572 24.021 3.571 401.880 o
5 1 10 509.492 520.736 24.967 6.845 o
5 1 11 324.312 330.208 13.688 16.240 o
5 1 12 211.747 194.424 15.162 23.642 o
5 1 13 0.556 1.124 5.333 419.131 o
5 1 14 40.144 25.602 16.523 39.927 o
5 1 15 3.855 10.350 20.155 29.606 o
5 2 0 2380.070 2587.620 43.688 0.585 o
5 2 1 11.844 5.246 1.545 1171.270 o
5 2 2 23.514 38.514 2.396 393.629 o
5 2 3 137.667 101.591 4.783 72.346 o
5 2 4 1947.010 2024.300 49.364 0.812 o
5 2 5 260.732 264.470 8.977 25.126 o
5 2 6 438.598 440.868 14.513 10.988 o
5 2 7 21.584 19.992 3.000 448.315 o
5 2 8 303.396 294.751 10.378 20.164 o
5 2 9 14.838 17.812 3.285 502.897 o
5 2 10 638.373 649.831 16.586 6.230 o
5 2 11 106.900 97.795 10.704 53.300 o
5 2 12 56.213 52.703 6.380 130.273 o
5 2 13 148.967 135.188 9.925 44.558 o
5 2 14 145.250 150.793 11.829 38.154 o
5 2 15 43.246 46.120 20.518 26.348 o
5 3 0 433.329 355.414 25.784 8.338 o
5 3 1 30.615 28.298 2.920 347.868 o
5 3 2 1898.090 2207.560 53.603 0.772 o
5 3 3 528.500 459.093 13.277 9.347 o
5 3 4 883.112 846.107 18.942 3.808 o
5 3 5 450.456 426.031 26.056 7.676 o
5 3 6 19.984 22.986 5.084 277.058 o
5 3 7 287.773 280.516 10.526 21.373 o
5 3 8 234.957 227.768 15.979 20.473 o
5 3 9 721.939 688.855 16.881 5.336 o
5 3 10 15.063 18.301 3.742 439.480 o
5 3 11 556.284 553.407 15.383 7.842 o
5 3 12 53.736 49.548 6.165 138.724 o
5 3 13 49.433 61.251 6.715 126.845 o
5 3 14 253.416 241.692 9.933 25.651 o
5 3 15 52.711 40.128 18.339 31.873 o
5 3 16 34.771 37.223 21.789 24.014 o
5 4 0 1493.290 1530.740 31.699 1.414 o
5 4 1 0.412 0.437 2.042 2699.650 o
5 4 2 3064.100 3307.830 79.398 0.331 o
5 4 3 2324.230 2117.890 52.061 0.645 o
5 4 4 386.523 449.182 13.791 12.353 o
5 4 5 771.241 686.454 36.224 3.512 o
5 4 6 23.105 15.252 4.176 347.088 o
5 4 7 169.720 179.740 8.403 41.402 o
5 4 8 564.817 572.963 19.247 7.018 o
5 4 9 641.340 661.522 20.864 5.688 o
5 4 10 45.029 51.436 6.611 138.571 o
5 4 11 7.756 4.150 3.473 697.862 o
5 4 12 218.478 199.443 11.791 27.903 o
5 4 13 457.477 485.059 15.100 10.003 o
5 4 14 235.190 230.177 16.102 20.269 o
5 4 15 148.835 141.890 18.430 23.507 o
5 4 16 57.222 38.131 20.518 25.948 o
5 5 0 3.662 4.783 1.958 1710.110 o
5 5 1 1778.380 1614.050 35.561 1.104 o
5 5 2 970.817 1192.230 30.874 2.500 o
5 5 3 2150.980 2307.400 56.874 0.651 o
5 5 4 4.286 23.968 5.447 314.442 o
5 5 5 59.503 105.836 6.763 99.984 o
5 5 6 2292.990 2355.630 57.628 0.600 o
5 5 7 558.237 510.120 15.838 8.033 o
5 5 8 1414.150 1414.820 37.346 1.489 o
5 5 9 3679.910 3610.450 88.768 0.251 o
5 5 10 612.519 609.268 20.348 6.212 o
5 5 11 34.963 45.775 11.984 68.091 o
5 5 12 74.204 78.761 9.035 76.758 o
5 5 13 487.930 476.334 12.177 10.162 o
5 5 14 288.119 245.710 9.229 23.552 o
5 5 15 348.980 384.860 14.987 13.804 o
5 5 16 128.505 124.178 14.613 33.711 o
5 6 0 174.097 233.104 9.436 34.730 o
5 6 1 1371.170 1448.390 50.932 1.320 o
5 6 2 1249.700 1204.340 25.098 2.056 o
5 6 3 1832.800 2041.780 40.991 0.907 o
5 6 4 54.842 45.309 3.203 205.413 o
5 6 5 275.661 298.015 6.966 24.254 o
5 6 6 871.770 854.817 18.580 3.856 o
5 6 7 220.672 194.630 7.072 35.086 o
5 6 8 42.881 31.839 4.492 217.453 o
5 6 9 594.536 664.648 20.781 6.072 o
5 6 10 95.753 88.113 12.247 48.823 o
5 6 11 17.298 21.308 7.535 167.389 o
5 6 12 44.014 63.551 14.072 49.526 o
5 6 13 172.426 212.535 15.333 25.275 o
5 6 14 95.158 90.436 8.495 70.772 o
5 6 15 126.279 147.394 22.291 18.611 o
5 6 16 92.184 107.706 14.219 39.642 o
5 7 0 107.828 100.335 7.187 72.676 o
5 7 1 766.154 802.162 18.061 4.578 o
5 7 2 470.592 535.557 16.811 8.942 o
5 7 3 641.376 672.482 27.857 4.874 o
5 7 4 76.693 71.132 4.639 124.985 o
5 7 5 623.970 646.440 17.305 6.303 o
5 7 6 1032.140 1080.690 35.589 2.337 o
5 7 7 983.932 1029.850 22.675 2.945 o
5 7 8 8.268 8.843 3.018 755.904 o
5 7 9 61.815 61.745 4.994 142.682 o
5 7 10 32.528 41.239 4.232 243.972 o
5 7 11 95.314 110.793 8.762 65.481 o
5 7 12 121.842 126.281 9.158 53.920 o
5 7 13 122.080 114.550 8.596 57.910 o
5 7 14 10.695 6.836 6.490 243.814 o
5 7 15 13.698 19.342 9.559 116.401 o
5 7 16 1.204 -1.517 8.189 179.764 o
5 8 0 111.861 119.003 8.153 62.430 o
5 8 1 85.666 77.692 5.868 101.012 o
5 8 2 78.984 84.475 7.538 86.876 o
5 8 3 99.136 107.822 5.598 85.361 o
5 8 4 97.640 132.462 6.297 75.601 o
5 8 5 298.386 318.460 9.997 20.041 o
5 8 6 131.437 138.476 6.281 61.688 o
5 8 7 656.269 580.501 13.130 6.755 o
5 8 8 11.484 4.693 3.298 657.276 o
5 8 9 182.154 217.140 8.229 36.969 o
5 8 10 15.617 16.108 3.639 457.409 o
5 8 11 9.547 12.015 4.086 480.660 o
5 8 12 325.972 330.215 15.384 15.181 o
5 8 13 9.166 7.175 6.187 268.691 o
5 8 14 6.181 6.549 6.485 257.739 o
5 8 15 22.919 24.280 10.435 94.219 o
5 8 16 127.505 103.177 19.329 23.884 o
5 9 0 569.348 560.781 15.119 7.663 o
5 9 1 7.815 6.041 2.947 832.112 o
5 9 2 360.283 364.889 9.542 16.214 o
5 9 3 89.551 100.640 5.658 92.642 o
5 9 4 140.312 127.563 6.143 61.114 o
5 9 5 413.428 371.661 9.944 13.995 o
5 9 6 638.104 646.316 16.311 6.278 o
5 9 7 265.470 272.176 9.756 23.764 o
5 9 8 0.116 -1.189 3.407 1043.050 o
5 9 9 1215.420 1184.160 23.380 2.170 o
5 9 10 92.230 77.672 5.961 95.686 o
5 9 11 304.734 320.073 16.249 15.535 o
5 9 12 96.451 77.876 7.624 79.271 o
5 9 13 13.659 13.173 5.651 281.205 o
5 9 14 2.413 9.095 6.628 255.119 o
5 9 15 27.606 36.089 10.647 86.694 o
5 9 16 283.358 318.446 23.492 11.769 o
5 10 0 356.829 381.484 10.930 15.440 o
5 10 1 156.692 150.745 9.147 44.206 o
5 10 2 99.195 99.357 5.924 85.395 o
5 10 3 20.809 11.635 3.416 454.138 o
5 10 4 955.457 938.521 22.429 3.195 o
5 10 5 457.596 458.478 11.905 11.059 o
5 10 6 1307.620 1291.420 28.931 1.826 o
5 10 7 15.089 7.122 4.302 420.822 o
5 10 8 22.425 21.013 5.687 237.158 o
5 10 9 1459.960 1450.530 28.388 1.529 o
5 10 10 450.756 446.019 14.802 10.596 o
5 10 11 409.271 403.106 16.124 11.542 o
5 10 12 72.159 78.774 8.052 86.866 o
5 10 13 49.676 55.047 7.749 111.854 o
5 10 14 23.807 6.154 9.276 120.119 o
5 10 15 98.642 110.871 18.148 27.566 o
5 11 0 202.433 180.443 12.366 29.198 o
5 11 1 6.724 6.904 5.410 349.366 o
5 11 2 3.802 1.865 5.493 371.803 o
5 11 3 715.453 731.073 22.854 4.744 o
5 11 4 216.089 196.358 11.810 28.212 o
5 11 5 1045.850 1054.890 30.493 2.497 o
5 11 6 265.280 282.319 13.798 19.793 o
5 11 7 66.426 70.501 7.883 93.987 o
5 11 8 177.514 190.744 13.339 29.168 o
5 11 9 439.073 397.034 14.194 11.567 o
5 11 10 618.921 639.625 31.040 4.735 o
5 11 11 336.202 339.680 14.804 15.009 o
5 11 12 3.000 9.967 6.726 245.459 o
5 11 13 205.266 202.138 16.597 21.853 o
5 11 14 107.818 94.401 11.619 49.066 o
5 11 15 187.917 172.479 22.152 16.637 o
5 12 0 27.149 23.282 7.833 144.911 o
5 12 1 19.020 32.476 7.315 164.636 o
5 12 2 47.367 43.477 7.364 125.233 o
5 12 3 52.231 45.695 8.080 108.170 o
5 12 4 139.035 160.349 12.201 37.293 o
5 12 5 476.309 494.947 19.051 8.651 o
5 12 6 1.380 4.534 6.310 291.337 o
5 12 7 132.332 112.314 15.343 31.964 o
5 12 8 240.555 278.867 17.883 17.287 o
5 12 9 33.981 37.244 8.759 112.354 o
5 12 10 366.637 352.222 15.028 13.745 o
5 12 11 5.003 5.966 6.280 277.966 o
5 12 12 36.110 23.130 7.507 143.690 o
5 12 13 370.817 392.692 34.045 6.524 o
5 12 14 150.242 147.674 29.506 11.555 o
5 13 0 122.535 101.483 20.700 21.782 o
5 13 1 102.054 65.437 10.961 56.604 o
5 13 2 92.014 93.994 10.233 59.866 o
5 13 3 1.906 9.512 7.218 218.437 o
5 13 4 1.099 4.591 8.897 150.294 o
5 13 5 17.762 22.166 9.816 107.877 o
5 13 6 428.883 429.189 21.113 9.298 o
5 13 7 195.961 194.143 14.681 25.361 o
5 13 8 348.156 313.282 18.816 12.900 o
5 13 9 47.103 49.860 13.618 52.808 o
5 13 10 172.572 169.219 14.365 28.515 o
5 13 11 2.368 -6.933 7.548 209.007 o
5 13 12 139.722 147.237 15.007 30.704 o
5 13 13 142.763 143.051 12.976 35.737 o
5 14 0 200.049 188.276 24.150 14.335 o
5 14 1 143.349 152.506 22.515 17.772 o
5 14 2 236.319 215.876 22.515 14.496 o
5 14 3 5.715 1.271 11.076 96.508 o
5 14 4 78.016 61.253 9.695 72.923 o
5 14 5 0.243 5.038 8.754 155.805 o
5 14 6 161.289 174.922 14.809 28.309 o
5 14 7 6.894 14.530 9.805 117.080 o
5 14 8 15.391 10.995 14.072 58.034 o
5 14 9 2.980 0.908 13.073 70.456 o
5 14 10 17.460 16.523 13.073 65.617 o
5 14 11 31.655 39.584 15.616 44.313 o
5 14 12 37.163 43.558 10.491 83.400 o
5 15 1 38.780 22.334 15.071 47.367 o
5 15 2 119.303 93.493 16.523 30.704 o
5 15 3 2.019 -17.613 12.710 74.845 o
5 15 4 3.816 7.445 12.710 73.480 o
5 15 5 281.594 273.598 26.147 10.801 o
5 15 6 195.356 204.073 24.150 14.267 o
5 15 7 157.541 127.085 17.613 24.852 o
5 15 8 18.769 10.713 13.981 58.209 o
5 15 9 3.428 1.271 13.981 61.579 o
6 -11 0 6.167 15.434 14.708 54.345 o
6 -11 1 96.073 71.541 16.342 33.869 o
6 -10 0 51.799 44.304 13.073 56.005 o
6 -10 1 69.849 62.825 15.071 41.379 o
6 -10 2 92.162 83.162 15.434 36.642 o
6 -10 3 2.390 -4.358 14.163 60.298 o
6 -9 0 122.331 166.305 21.789 19.089 o
6 -9 1 47.822 44.304 13.073 56.749 o
6 -9 2 79.665 65.912 14.345 43.175 o
6 -9 3 5.889 12.166 12.892 70.448 o
6 -9 4 41.086 62.099 14.163 49.539 o
6 -9 5 60.793 43.760 15.797 40.259 o
6 -8 0 405.952 423.580 26.147 8.155 o
6 -8 1 175.847 149.600 18.702 21.634 o
6 -8 2 56.148 59.920 17.976 32.159 o
6 -8 4 231.003 244.383 23.786 13.359 o
6 -8 5 223.500 217.147 24.876 13.022 o
6 -8 6 129.144 136.164 17.976 25.495 o
6 -8 7 0.778 -2.360 13.618 65.489 o
6 -7 0 674.359 650.695 31.776 4.351 o
6 -7 1 605.252 533.052 28.144 5.504 o
6 -7 2 52.545 54.110 10.531 75.395 o
6 -7 3 39.341 24.876 9.805 95.689 o
6 -7 4 415.409 419.041 25.421 8.279 o
6 -7 5 581.956 617.667 32.502 4.815 o
6 -7 6 68.918 75.354 14.526 43.120 o
6 -7 7 17.834 29.052 12.892 65.858 o
6 -7 8 69.825 72.812 18.884 28.467 o
6 -6 0 232.209 231.541 11.286 26.155 o
6 -6 1 3.052 4.775 5.632 351.143 o
6 -6 2 44.891 51.749 9.805 86.769 o
6 -6 3 72.492 152.506 16.887 31.014 o
6 -6 4 519.338 493.287 27.055 6.484 o
6 -6 5 387.956 393.075 24.150 9.192 o
6 -6 6 34.217 48.844 11.258 74.942 o
6 -6 7 10.560 2.542 11.076 94.224 o
6 -6 8 73.011 70.633 13.800 46.263 o
6 -6 9 86.036 101.664 14.708 38.885 o
6 -5 0 63.104 53.110 5.677 134.814 o
6 -5 1 31.012 35.827 4.919 228.034 o
6 -5 2 6.664 12.313 4.506 444.745 o
6 -5 3 121.578 113.329 9.576 53.643 o
6 -5 4 787.185 730.273 19.452 4.577 o
6 -5 5 100.385 111.122 10.024 56.768 o
6 -5 6 0.683 3.886 6.018 323.466 o
6 -5 7 9.879 4.397 6.567 244.598 o
6 -5 8 117.279 118.819 13.800 37.555 o
6 -5 9 429.566 452.269 26.328 7.689 o
6 -5 10 322.200 286.854 23.060 11.563 o
6 -5 11 14.405 8.171 11.258 88.812 o
6 -4 0 91.813 95.036 4.229 104.235 o
6 -4 1 188.807 191.682 8.759 36.816 o
6 -4 2 194.438 223.247 9.430 32.885 o
6 -4 3 481.781 452.465 13.658 10.196 o
6 -4 4 684.698 667.628 38.160 3.687 o
6 -4 5 2.287 -0.135 5.175 434.575 o
6 -4 6 11.580 16.822 5.920 263.236 o
6 -4 7 235.099 221.757 15.343 21.332 o
6 -4 8 42.332 39.810 7.176 135.763 o
6 -4 9 484.688 531.236 26.873 6.654 o
6 -4 10 34.303 52.475 10.713 80.209 o
6 -4 11 1.087 14.345 10.531 105.467 o
6 -3 0 268.129 316.257 10.509 21.493 o
6 -3 1 703.439 691.079 17.086 5.452 o
6 -3 2 580.054 613.468 16.139 7.073 o
6 -3 3 728.774 740.382 18.134 5.007 o
6 -3 4 152.281 155.328 9.627 43.162 o
6 -3 5 22.830 28.318 6.264 200.366 o
6 -3 6 42.344 35.266 7.808 124.761 o
6 -3 7 148.087 151.053 14.889 30.127 o
6 -3 8 147.606 176.292 16.523 25.962 o
6 -3 9 76.376 87.520 11.802 54.910 o
6 -3 10 43.461 38.450 5.629 173.508 o
6 -3 11 114.862 114.535 8.577 60.018 o
6 -3 12 140.223 155.809 16.143 27.856 o
6 -2 0 1830.910 1672.880 29.902 1.083 o
6 -2 1 548.697 547.093 11.379 8.590 o
6 -2 2 1384.480 1357.370 24.609 1.728 o
6 -2 3 152.143 120.837 6.429 57.492 o
6 -2 4 133.908 119.967 8.275 55.491 o
6 -2 5 171.321 160.452 9.244 40.657 o
6 -2 6 288.749 290.848 17.068 16.017 o
6 -2 7 575.160 562.467 25.602 5.987 o
6 -2 8 438.562 446.597 10.830 11.926 o
6 -2 9 316.635 315.619 9.173 19.626 o
6 -2 10 49.589 44.772 5.266 167.346 o
6 -2 11 74.485 71.674 6.425 105.317 o
6 -2 12 358.296 344.711 13.424 14.896 o
6 -2 13 63.764 71.760 8.208 91.421 o
6 -1 0 3437.170 3565.920 54.146 0.305 o
6 -1 1 1575.640 1495.670 23.767 1.419 o
6 -1 2 1297.030 1248.180 22.309 1.978 o
6 -1 3 426.096 485.136 21.528 8.809 o
6 -1 4 741.541 826.369 21.664 4.412 o
6 -1 5 392.256 390.910 12.892 13.322 o
6 -1 6 664.604 612.982 16.951 6.119 o
6 -1 7 73.942 73.106 6.460 104.783 o
6 -1 8 66.803 75.469 5.889 116.677 o
6 -1 9 10.005 9.697 3.882 522.574 o
6 -1 10 268.069 247.213 19.973 15.199 o
6 -1 11 323.496 303.872 9.877 19.159 o
6 -1 12 270.174 306.687 13.284 19.384 o
6 -1 13 27.991 29.350 6.422 183.452 o
6 -1 14 0.224 3.174 9.641 129.608 o
6 0 0 3871.360 3786.470 57.204 0.254 o
6 0 1 256.998 246.376 6.045 28.900 o
6 0 2 533.913 541.634 19.784 7.450 o
6 0 3 6.346 19.128 3.504 576.675 o
6 0 4 2265.270 2180.320 53.177 0.650 o
6 0 5 1444.880 1417.960 52.112 1.257 o
6 0 6 2521.730 2472.160 60.190 0.522 o
6 0 7 292.531 345.130 11.530 18.640 o
6 0 8 1.990 3.944 3.202 982.154 o
6 0 9 48.718 43.024 7.899 114.669 o
6 0 10 376.067 349.764 15.687 13.210 o
6 0 11 577.239 597.997 16.514 7.143 o
6 0 12 138.838 146.374 9.277 47.570 o
6 0 13 0.200 8.435 11.922 84.222 o
6 0 14 18.181 27.028 7.790 154.283 o
6 1 0 487.705 397.216 13.015 10.799 o
6 1 1 342.506 364.062 9.425 17.038 o
6 1 2 767.467 875.181 16.144 4.465 o
6 1 3 19.028 19.854 2.822 496.625 o
6 1 4 1098.990 1044.220 35.044 2.258 o
6 1 5 751.925 803.559 21.586 4.423 o
6 1 6 233.697 255.225 11.621 24.738 o
6 1 7 17.279 30.174 4.358 323.529 o
6 1 8 322.800 316.772 9.707 18.960 o
6 1 9 213.625 217.191 8.607 32.315 o
6 1 10 347.392 363.378 11.660 15.808 o
6 1 11 276.265 272.376 14.279 19.083 o
6 1 12 10.695 20.237 5.064 326.080 o
6 1 13 19.226 18.667 5.736 247.371 o
6 1 14 118.508 127.932 9.428 53.325 o
6 1 15 37.014 40.023 11.649 71.484 o
6 2 0 43.880 76.689 3.052 196.991 o
6 2 1 90.047 69.870 3.251 125.445 o
6 2 2 164.094 176.626 4.805 51.138 o
6 2 3 580.607 527.150 10.449 8.370 o
6 2 4 122.522 87.622 4.379 85.201 o
6 2 5 12.141 15.904 3.050 591.938 o
6 2 6 2.010 3.516 2.790 1239.920 o
6 2 7 95.134 81.683 5.042 100.294 o
6 2 8 196.726 207.462 8.845 34.563 o
6 2 9 1034.440 1002.910 22.915 2.828 o
6 2 10 57.722 65.562 5.366 139.129 o
6 2 11 118.537 112.839 7.984 62.188 o
6 2 12 39.893 50.955 5.485 172.854 o
6 2 13 60.881 60.595 10.498 71.850 o
6 2 14 101.090 107.215 8.622 65.052 o
6 2 15 86.366 93.139 12.980 46.501 o
6 3 0 34.161 62.953 4.403 203.172 o
6 3 1 1413.760 1407.990 35.565 1.518 o
6 3 2 2350.860 2544.030 67.274 0.531 o
6 3 3 2204.610 2531.740 61.625 0.587 o
6 3 4 21.607 15.523 2.119 571.820 o
6 3 5 136.733 140.325 14.889 31.529 o
6 3 6 1608.810 1528.930 38.518 1.240 o
6 3 7 5.772 3.813 2.411 1217.660 o
6 3 8 294.110 295.764 11.601 19.760 o
6 3 9 858.966 866.956 20.381 3.803 o
6 3 10 362.879 379.442 11.915 14.835 o
6 3 11 13.937 16.821 5.879 258.190 o
6 3 12 8.959 10.730 4.432 441.526 o
6 3 13 125.970 115.985 8.147 58.737 o
6 3 14 27.860 32.481 6.175 189.714 o
6 3 15 97.822 93.684 9.280 64.146 o
6 4 0 360.115 337.865 22.728 10.579 o
6 4 1 1341.090 1500.850 64.360 1.133 o
6 4 2 891.280 939.635 25.033 3.310 o
6 4 3 6079.460 6342.450 150.141 0.090 o
6 4 4 157.932 168.901 8.897 43.086 o
6 4 5 16.747 23.375 3.708 406.006 o
6 4 6 152.158 184.636 9.351 41.516 o
6 4 7 557.463 526.134 29.597 5.638 o
6 4 8 93.369 87.095 9.614 64.334 o
6 4 9 1110.500 1161.850 32.098 2.204 o
6 4 10 43.298 48.694 4.849 185.975 o
6 4 11 6.520 3.278 3.913 615.928 o
6 4 12 77.131 78.182 6.242 103.078 o
6 4 13 75.361 89.327 7.497 87.894 o
6 4 14 43.576 43.829 7.088 134.257 o
6 4 15 130.976 131.322 11.213 43.560 o
6 5 0 472.405 491.441 11.937 10.374 o
6 5 1 421.687 360.839 12.195 13.153 o
6 5 2 1338.640 1467.190 37.551 1.540 o
6 5 3 744.187 712.415 23.423 4.584 o
6 5 4 663.387 760.014 21.541 5.099 o
6 5 5 73.492 71.198 6.108 110.055 o
6 5 6 257.556 256.900 8.937 25.722 o
6 5 7 1033.370 990.405 38.676 2.322 o
6 5 8 5.799 4.916 3.568 706.408 o
6 5 9 140.274 102.027 11.802 42.334 o
6 5 10 89.180 87.020 7.761 79.400 o
6 5 11 33.411 39.954 6.696 158.131 o
6 5 12 237.195 235.444 10.653 26.385 o
6 5 13 125.818 139.839 9.227 51.162 o
6 5 14 35.200 27.621 5.321 211.505 o
6 5 15 11.650 24.473 6.637 211.520 o
6 5 16 1.277 4.306 11.918 84.597 o
6 6 0 367.975 417.713 11.049 14.356 o
6 6 1 551.761 522.556 16.041 8.002 o
6 6 2 660.332 635.075 19.672 5.771 o
6 6 3 435.445 514.895 22.152 8.318 o
6 6 4 0.195 -0.298 3.106 1248.530 o
6 6 5 293.495 304.120 11.866 19.379 o
6 6 6 924.270 1054.930 27.239 2.925 o
6 6 7 1254.810 1214.820 60.456 1.353 o
6 6 8 192.699 169.829 25.330 13.727 o
6 6 9 212.239 215.474 10.693 29.408 o
6 6 10 5.167 2.600 5.356 377.968 o
6 6 11 204.825 206.674 12.775 27.222 o
6 6 12 721.242 700.838 24.642 4.645 o
6 6 13 455.981 476.675 21.046 8.579 o
6 6 14 173.723 154.958 10.335 37.996 o
6 6 15 46.243 50.650 7.100 127.956 o
6 6 16 137.511 136.399 15.615 29.911 o
6 7 0 322.352 337.530 10.052 18.271 o
6 7 1 118.498 120.015 4.555 77.922 o
6 7 2 547.752 614.130 14.383 7.702 o
6 7 3 0.550 3.839 3.050 1144.650 o
6 7 4 48.136 39.596 4.798 186.799 o
6 7 5 441.036 439.780 15.533 10.653 o
6 7 6 1205.760 1186.350 38.031 1.883 o
6 7 7 148.589 148.951 20.337 20.447 o
6 7 8 37.628 50.081 5.305 182.771 o
6 7 9 1323.040 1300.890 35.193 1.696 o
6 7 10 95.760 101.177 9.163 64.359 o
6 7 11 278.977 302.885 15.616 17.231 o
6 7 12 230.408 220.448 15.956 20.903 o
6 7 13 37.807 35.401 6.126 171.213 o
6 7 14 87.903 103.413 9.485 64.366 o
6 7 15 4.277 5.302 10.049 116.209 o
6 7 16 205.712 226.734 14.169 24.387 o
6 8 0 102.933 116.745 8.923 61.306 o
6 8 1 59.365 56.850 4.349 161.111 o
6 8 2 1.718 5.142 2.662 1294.110 o
6 8 3 255.986 252.066 9.526 25.458 o
6 8 4 178.841 164.845 6.633 45.188 o
6 8 5 1738.430 1774.920 37.155 1.065 o
6 8 6 2135.670 2164.560 53.870 0.691 o
6 8 7 10.893 8.957 2.911 716.280 o
6 8 8 261.898 284.077 15.733 18.216 o
6 8 9 1029.680 1084.880 56.016 1.720 o
6 8 10 424.819 500.720 20.881 8.893 o
6 8 11 643.790 594.987 21.228 5.894 o
6 8 12 51.108 55.344 6.286 136.083 o
6 8 13 8.723 4.170 5.862 302.112 o
6 8 14 2.491 4.491 6.489 272.475 o
6 8 15 78.126 96.429 12.634 49.231 o
6 9 0 214.246 204.872 9.175 32.085 o
6 9 1 0.720 7.325 3.794 725.995 o
6 9 2 26.152 27.181 3.833 320.817 o
6 9 3 57.026 54.575 4.456 164.752 o
6 9 4 131.160 124.223 6.858 61.697 o
6 9 5 836.703 806.310 46.347 2.569 o
6 9 6 400.437 424.265 31.948 6.692 o
6 9 7 4.282 -3.424 4.006 662.816 o
6 9 8 65.705 63.276 5.058 135.920 o
6 9 9 13.110 16.727 3.651 479.200 o
6 9 10 942.206 899.352 18.912 3.447 o
6 9 11 231.968 225.336 12.107 25.364 o
6 9 12 29.037 34.752 6.673 168.894 o
6 9 13 169.410 208.802 15.846 24.761 o
6 9 14 31.605 9.126 8.969 119.992 o
6 9 15 130.761 117.892 13.618 36.654 o
6 10 0 166.917 179.428 9.703 38.761 o
6 10 1 27.883 29.095 4.740 256.636 o
6 10 2 37.380 37.348 4.775 214.530 o
6 10 3 184.278 184.977 8.585 38.298 o
6 10 4 144.950 128.159 8.963 49.288 o
6 10 5 1745.580 1828.520 47.087 0.973 o
6 10 6 58.509 69.563 6.714 114.924 o
6 10 7 7.358 7.613 9.351 130.084 o
6 10 8 272.845 241.262 13.479 20.760 o
6 10 9 36.496 54.252 5.541 174.339 o
6 10 10 605.601 568.983 16.423 6.999 o
6 10 11 97.882 98.596 7.618 74.245 o
6 10 12 15.617 3.845 6.428 238.223 o
6 10 13 153.745 147.253 14.858 29.890 o
6 10 14 198.141 205.930 17.864 20.495 o
6 10 15 57.975 68.404 11.337 64.577 o
6 11 0 345.666 353.529 15.907 13.915 o
6 11 1 78.757 70.816 7.572 90.323 o
6 11 2 573.304 586.161 19.753 6.782 o
6 11 3 13.661 19.218 5.481 281.968 o
6 11 4 867.151 926.189 26.948 3.329 o
6 11 5 59.074 56.054 6.740 119.872 o
6 11 6 102.344 104.394 8.937 63.231 o
6 11 7 139.178 145.257 11.555 40.158 o
6 11 8 398.085 413.413 17.456 11.199 o
6 11 9 74.935 68.970 17.794 31.195 o
6 11 10 348.073 355.375 26.593 9.117 o
6 11 11 0.913 2.534 5.758 354.587 o
6 11 12 93.211 107.433 8.459 68.676 o
6 11 13 121.822 109.135 14.163 36.446 o
6 11 14 353.501 406.255 30.142 7.633 o
6 12 0 137.606 119.969 14.889 32.342 o
6 12 1 136.230 113.908 19.429 23.070 o
6 12 2 333.880 308.647 15.797 15.035 o
6 12 3 58.541 47.730 7.247 115.791 o
6 12 4 281.980 314.272 15.279 17.140 o
6 12 5 5.082 3.067 5.933 313.786 o
6 12 6 320.311 341.383 35.316 6.717 o
6 12 7 161.251 129.445 14.708 30.336 o
6 12 8 115.023 144.804 13.581 37.024 o
6 12 9 137.989 111.288 14.163 34.659 o
6 12 10 5.370 4.257 9.533 128.191 o
6 12 11 42.552 32.743 7.414 133.976 o
6 12 12 301.625 335.861 18.098 14.233 o
6 12 13 104.103 103.531 11.382 50.006 o
6 12 14 214.734 233.643 32.048 9.068 o
6 13 0 151.726 151.425 34.499 8.841 o
6 13 1 42.080 25.664 8.840 109.359 o
6 13 2 83.561 81.739 9.935 65.904 o
6 13 3 8.286 1.602 7.471 200.276 o
6 13 4 2.458 6.050 8.018 180.992 o
6 13 5 334.740 309.420 17.976 13.748 o
6 13 6 87.954 116.619 26.592 14.987 o
6 13 7 158.585 174.500 20.337 19.605 o
6 13 8 50.346 45.612 9.030 95.555 o
6 13 9 15.927 6.407 9.260 126.205 o
6 13 10 0.152 5.629 12.710 74.609 o
6 13 11 136.726 118.914 16.887 27.766 o
6 13 12 183.403 176.072 32.048 9.625 o
6 13 13 92.680 91.736 24.140 17.875 o
6 14 0 107.208 91.678 16.523 31.675 o
6 14 1 134.592 113.285 16.342 29.314 o
6 14 2 37.494 22.879 12.710 63.818 o
6 14 3 42.083 18.702 11.621 73.379 o
6 14 4 136.071 114.011 15.252 31.808 o
6 14 5 371.587 384.541 27.781 8.269 o
6 14 6 18.077 24.694 12.166 73.576 o
6 14 7 89.184 100.030 16.342 33.273 o
6 14 8 1.241 5.810 11.439 91.456 o
6 14 9 0.553 8.171 12.347 78.552 o
6 14 10 80.179 64.641 14.889 40.881 o
6 14 11 96.271 91.314 15.797 34.704 o
6 15 2 0.635 -6.174 14.345 59.060 o
6 15 3 50.242 26.692 15.252 44.796 o
6 15 4 153.205 165.761 19.973 20.453 o
6 15 5 178.752 196.084 25.784 13.392 o
6 15 6 36.461 38.131 15.071 46.690 o
6 15 7 31.701 43.397 14.708 48.991 o
6 15 8 21.706 2.542 13.618 61.350 o
6 15 9 2.814 8.897 14.345 58.043 o
7 -10 0 61.802 55.925 15.979 38.833 o
7 -10 1 59.797 53.565 15.252 42.212 o
7 -9 0 88.939 94.764 15.616 35.792 o
7 -9 1 46.413 56.107 15.797 41.075 o
7 -9 2 19.042 53.746 15.434 45.861 o
7 -9 3 1.103 1.816 13.800 63.559 o
7 -9 4 130.939 137.253 19.973 21.907 o
7 -8 0 166.115 178.834 21.971 17.357 o
7 -8 1 22.487 38.857 13.073 62.248 o
7 -8 2 14.600 12.347 12.347 74.173 o
7 -8 3 23.021 15.434 12.892 66.215 o
7 -8 4 210.847 211.518 26.510 12.198 o
7 -8 5 83.629 36.860 15.252 40.533 o
7 -8 6 2.590 31.594 15.797 46.851 o
7 -7 0 275.050 231.673 21.971 13.779 o
7 -7 1 26.461 18.702 16.887 39.789 o
7 -7 3 109.688 106.567 15.979 32.389 o
7 -7 4 561.055 585.528 32.684 4.991 o
7 -7 5 70.604 93.312 15.434 38.255 o
7 -7 6 58.683 70.451 15.434 40.641 o
7 -7 7 1.470 -12.166 14.526 57.473 o
7 -6 0 53.910 37.949 9.624 88.031 o
7 -6 1 0.442 -2.360 8.352 173.891 o
7 -6 2 260.002 260.725 21.608 14.043 o
7 -6 3 507.678 508.903 29.234 6.115 o
7 -6 4 628.609 575.359 31.776 4.769 o
7 -6 5 213.298 240.388 22.879 14.468 o
7 -6 6 25.041 12.347 12.347 71.444 o
7 -6 7 7.091 3.087 16.160 45.784 o
7 -6 8 53.751 86.793 23.060 20.438 o
7 -6 9 243.551 221.868 26.510 11.593 o
7 -5 0 4.428 4.533 5.541 354.494 o
7 -5 1 5.022 5.981 6.020 299.777 o
7 -5 2 61.479 72.870 8.275 91.601 o
7 -5 3 151.321 153.595 16.705 26.101 o
7 -5 4 1.249 8.352 8.716 154.274 o
7 -5 5 16.636 35.952 10.895 87.752 o
7 -5 6 5.881 10.895 9.987 114.882 o
7 -5 7 83.500 80.801 14.163 42.541 o
7 -5 8 156.362 171.026 21.426 18.392 o
7 -5 9 235.131 278.864 24.876 12.232 o
7 -5 10 3.737 6.537 13.073 69.666 o
7 -4 0 805.027 812.253 16.778 4.397 o
7 -4 1 268.237 249.779 10.809 23.366 o
7 -4 2 851.690 877.379 21.837 3.740 o
7 -4 3 314.836 313.095 19.404 13.416 o
7 -4 4 130.697 133.722 9.391 50.124 o
7 -4 5 9.126 4.200 5.238 362.244 o
7 -4 6 301.367 343.687 22.697 11.603 o
7 -4 7 199.567 243.112 20.518 16.857 o
7 -4 8 295.848 298.656 23.242 11.854 o
7 -4 9 184.506 196.265 20.518 18.103 o
7 -4 10 3.238 -3.450 10.531 108.050 o
7 -4 11 31.486 26.510 13.255 60.216 o
7 -3 0 182.147 194.623 6.447 42.117 o
7 -3 1 257.896 230.138 7.731 28.064 o
7 -3 2 369.861 366.505 11.914 14.818 o
7 -3 3 198.327 195.654 13.668 26.738 o
7 -3 4 197.586 203.202 9.494 33.583 o
7 -3 5 405.753 411.792 13.546 12.423 o
7 -3 6 386.200 445.006 24.331 8.806 o
7 -3 7 303.445 310.095 20.700 12.986 o
7 -3 8 53.478 60.102 11.258 67.557 o
7 -3 9 32.865 44.668 10.531 84.374 o
7 -3 10 68.921 82.799 12.529 52.635 o
7 -3 11 154.081 156.137 15.252 28.680 o
7 -2 0 942.970 878.816 17.387 3.541 o
7 -2 1 1056.110 1099.950 20.886 2.687 o
7 -2 2 116.618 143.837 8.544 55.721 o
7 -2 3 13.649 3.779 3.528 577.815 o
7 -2 4 400.571 383.299 12.090 13.483 o
7 -2 5 601.486 641.980 29.052 5.062 o
7 -2 6 644.274 685.739 30.868 4.504 o
7 -2 7 195.266 223.683 17.250 20.982 o
7 -2 8 60.946 72.086 10.713 68.207 o
7 -2 9 1.359 0.726 7.989 187.979 o
7 -2 10 3.411 5.568 7.445 207.067 o
7 -2 11 172.737 193.507 13.709 28.763 o
7 -2 12 1.565 11.510 11.167 94.592 o
7 -1 0 1577.750 1597.070 28.659 1.327 o
7 -1 1 1129.850 1121.630 28.197 2.304 o
7 -1 2 2.426 1.467 1.983 2160.120 o
7 -1 3 99.836 84.342 4.974 96.594 o
7 -1 4 51.815 50.205 4.644 173.543 o
7 -1 5 781.169 829.787 22.271 4.155 o
7 -1 6 82.253 77.554 6.174 100.396 o
7 -1 7 70.886 60.664 5.113 130.676 o
7 -1 8 0.322 1.997 6.900 251.928 o
7 -1 9 141.034 152.094 10.531 42.538 o
7 -1 10 50.929 39.384 4.261 195.700 o
7 -1 11 157.191 180.103 13.078 32.035 o
7 -1 12 52.477 64.439 6.684 122.971 o
7 -1 13 0.127 -0.952 11.588 90.605 o
7 0 0 653.519 610.556 12.570 6.675 o
7 0 1 37.203 41.813 3.005 274.403 o
7 0 2 23.727 25.331 2.487 445.545 o
7 0 3 768.366 760.645 14.913 4.886 o
7 0 4 356.714 329.041 9.227 17.274 o
7 0 5 368.039 358.566 11.823 15.061 o
7 0 6 10.001 14.183 3.426 572.774 o
7 0 7 5.805 10.134 3.337 711.664 o
7 0 8 105.175 103.750 7.172 73.150 o
7 0 9 671.062 659.154 19.672 5.589 o
7 0 10 56.655 61.906 7.022 115.045 o
7 0 11 15.787 23.968 5.036 295.490 o
7 0 12 0.516 -2.502 5.228 440.909 o
7 0 13 36.683 28.210 6.773 159.569 o
7 0 14 33.915 19.247 10.531 89.120 o
7 1 0 636.816 625.060 11.290 6.895 o
7 1 1 376.992 378.186 10.092 15.092 o
7 1 2 493.718 520.509 10.750 9.883 o
7 1 3 1674.650 1786.560 31.398 1.145 o
7 1 4 580.307 553.464 12.156 7.970 o
7 1 5 202.173 221.104 8.583 33.475 o
7 1 6 0.179 2.705 4.721 526.714 o
7 1 7 123.888 108.130 6.852 66.925 o
7 1 8 87.820 72.093 6.049 99.683 o
7 1 9 1672.270 1712.110 36.497 1.138 o
7 1 10 430.588 428.660 13.265 11.676 o
7 1 11 9.436 11.686 4.850 380.529 o
7 1 12 2.350 6.855 5.339 384.703 o
7 1 13 114.240 117.545 9.092 57.206 o
7 1 14 43.748 46.436 7.143 131.631 o
7 2 0 10.068 8.726 1.852 1066.580 o
7 2 1 651.418 619.041 12.455 6.663 o
7 2 2 460.371 465.723 9.920 11.357 o
7 2 3 1830.030 1829.330 32.357 1.018 o
7 2 4 593.540 560.235 25.820 5.821 o
7 2 5 33.933 36.641 9.714 96.797 o
7 2 6 70.109 56.506 5.189 132.749 o
7 2 7 215.318 207.802 7.526 34.269 o
7 2 8 257.218 265.005 9.200 25.170 o
7 2 9 338.084 336.718 10.877 17.123 o
7 2 10 591.891 662.356 17.417 6.525 o
7 2 11 0.563 -1.034 5.234 439.420 o
7 2 12 61.371 66.167 8.414 91.851 o
7 2 13 86.820 85.844 7.385 83.911 o
7 2 14 135.032 156.794 11.487 40.137 o
7 3 0 9.454 7.233 1.834 1151.350 o
7 3 1 6.094 15.444 2.286 946.556 o
7 3 2 575.179 524.977 15.728 7.727 o
7 3 3 28.109 36.275 4.006 279.958 o
7 3 4 373.351 356.303 9.063 16.047 o
7 3 5 132.029 132.515 5.215 66.662 o
7 3 6 42.597 40.781 4.519 205.951 o
7 3 7 902.475 886.322 20.081 3.587 o
7 3 8 3.838 2.788 3.014 1021.330 o
7 3 9 118.226 128.121 7.441 62.560 o
7 3 10 171.103 175.271 8.871 40.428 o
7 3 11 30.384 27.997 5.157 230.464 o
7 3 12 233.589 250.353 11.491 25.078 o
7 3 13 82.191 72.840 7.151 92.043 o
7 3 14 135.185 147.878 10.049 45.468 o
7 3 15 119.551 145.121 11.440 43.480 o
7 4 0 1740.950 1772.760 73.697 0.786 o
7 4 1 443.608 470.885 19.419 9.232 o
7 4 2 1483.140 1579.060 53.374 1.155 o
7 4 3 895.117 863.764 23.796 3.494 o
7 4 4 0.097 5.822 2.996 1148.660 o
7 4 5 4.866 5.783 3.258 820.286 o
7 4 6 1298.540 1331.700 33.688 1.733 o
7 4 7 259.764 291.672 28.498 9.853 o
7 4 8 580.029 548.800 27.509 5.717 o
7 4 9 400.239 363.720 11.351 14.070 o
7 4 10 319.012 297.649 10.980 18.863 o
7 4 11 12.652 18.391 5.405 293.307 o
7 4 12 110.010 108.118 7.689 67.376 o
7 4 13 91.480 92.475 7.705 77.609 o
7 4 14 146.645 174.279 11.541 37.244 o
7 4 15 39.686 13.122 7.544 144.330 o
7 5 0 198.107 212.495 6.954 37.184 o
7 5 1 397.156 410.354 13.995 12.510 o
7 5 2 360.588 381.501 17.340 12.461 o
7 5 3 417.168 413.593 18.884 10.328 o
7 5 4 0.918 2.179 3.813 779.348 o
7 5 5 117.236 113.125 8.127 61.814 o
7 5 6 1867.760 1893.110 67.546 0.761 o
7 5 7 429.649 430.312 13.727 11.541 o
7 5 8 320.641 351.980 21.789 11.596 o
7 5 9 125.576 125.162 17.068 27.893 o
7 5 10 29.230 48.473 8.443 117.627 o
7 5 11 79.433 84.509 6.535 96.308 o
7 5 12 74.273 91.961 7.719 85.679 o
7 5 13 41.996 46.116 6.336 151.650 o
7 5 14 57.368 72.574 7.717 100.878 o
7 5 15 1.891 -4.409 7.028 241.494 o
7 6 0 1340.690 1416.090 31.999 1.649 o
7 6 1 215.263 184.186 9.565 32.513 o
7 6 2 241.622 247.070 16.705 18.971 o
7 6 3 31.196 28.733 4.524 256.521 o
7 6 4 1.972 2.104 3.541 859.250 o
7 6 5 1405.150 1280.190 34.700 1.614 o
7 6 6 1475.880 1583.900 58.104 1.103 o
7 6 7 194.181 183.607 7.793 38.484 o
7 6 8 155.054 158.654 24.059 15.745 o
7 6 9 21.720 26.583 4.783 282.118 o
7 6 10 549.948 644.776 34.218 4.697 o
7 6 11 259.445 238.881 14.708 20.320 o
7 6 12 44.282 50.525 8.024 113.064 o
7 6 13 27.535 18.213 5.781 222.502 o
7 6 14 0.976 -10.221 5.903 344.157 o
7 6 15 172.646 169.313 11.537 34.407 o
7 7 0 809.947 796.831 18.804 4.300 o
7 7 1 317.406 323.520 8.724 19.622 o
7 7 2 86.065 90.130 8.061 77.674 o
7 7 3 1.227 -0.143 6.083 323.232 o
7 7 4 345.401 294.449 12.564 16.773 o
7 7 5 2193.220 2190.380 56.208 0.659 o
7 7 6 175.803 186.733 10.803 34.623 o
7 7 7 30.107 55.562 8.897 106.460 o
7 7 8 330.290 310.121 11.735 17.571 o
7 7 9 163.775 159.414 9.290 41.840 o
7 7 10 1835.250 1771.240 46.452 0.944 o
7 7 11 871.114 817.658 39.302 2.842 o
7 7 12 116.825 132.949 12.514 41.011 o
7 7 13 7.517 21.917 9.622 118.291 o
7 7 14 88.468 103.561 14.335 39.882 o
7 7 15 170.663 152.608 10.855 37.287 o
7 8 0 6.702 4.549 3.577 687.776 o
7 8 1 113.292 106.854 5.053 81.370 o
7 8 2 26.171 24.816 5.229 244.149 o
7 8 3 44.985 55.728 6.587 136.729 o
7 8 4 519.807 484.390 23.242 7.263 o
7 8 5 2491.490 2629.520 66.856 0.493 o
7 8 6 2.477 -6.932 4.449 576.264 o
7 8 7 2.538 -0.545 5.266 418.386 o
7 8 8 335.228 280.804 11.168 18.364 o
7 8 9 99.332 109.589 8.498 65.983 o
7 8 10 1142.460 1103.060 31.159 2.223 o
7 8 11 118.949 122.626 17.885 26.631 o
7 8 12 0.801 -1.034 6.488 286.265 o
7 8 13 113.621 134.376 15.706 31.664 o
7 8 14 268.542 312.281 19.341 14.711 o
7 8 15 84.750 87.553 11.863 52.872 o
7 9 0 215.317 186.901 10.543 30.745 o
7 9 1 108.459 111.974 9.834 55.681 o
7 9 2 74.216 66.313 15.616 38.550 o
7 9 3 11.350 14.986 3.490 536.015 o
7 9 4 1281.120 1281.980 49.570 1.500 o
7 9 5 86.959 86.249 11.621 53.892 o
7 9 6 6.092 8.897 6.900 228.000 o
7 9 7 91.328 87.156 12.892 46.600 o
7 9 8 211.941 240.207 17.976 19.048 o
7 9 9 672.795 734.886 21.945 5.083 o
7 9 10 420.076 405.924 15.531 11.470 o
7 9 11 221.852 218.835 19.701 17.316 o
7 9 12 42.423 36.028 7.652 127.488 o
7 9 13 44.400 62.621 9.714 85.680 o
7 9 14 329.956 328.214 30.868 7.991 o
7 9 15 44.489 47.509 10.803 76.525 o
7 10 0 364.322 338.688 14.371 14.335 o
7 10 1 27.655 29.129 6.159 193.955 o
7 10 2 561.425 535.852 21.789 6.835 o
7 10 3 9.766 26.268 6.809 205.354 o
7 10 4 531.799 551.101 27.327 6.099 o
7 10 5 29.732 25.013 4.529 268.411 o
7 10 6 9.249 14.650 5.447 313.028 o
7 10 7 54.240 59.117 5.625 142.720 o
7 10 8 11.033 12.131 4.704 384.681 o
7 10 9 142.575 167.506 8.478 47.327 o
7 10 10 113.090 106.385 12.347 44.087 o
7 10 11 1.082 8.077 6.079 306.391 o
7 10 12 45.137 52.163 8.625 102.412 o
7 10 13 32.995 44.383 9.255 102.288 o
7 10 14 94.475 99.114 11.122 53.672 o
7 11 0 64.497 42.518 11.621 64.014 o
7 11 1 461.667 462.389 31.948 6.107 o
7 11 2 59.016 66.240 7.282 107.748 o
7 11 3 569.940 589.929 19.325 6.861 o
7 11 4 3.274 -5.157 4.932 466.578 o
7 11 5 216.402 226.998 11.630 27.156 o
7 11 6 26.012 25.273 5.671 222.450 o
7 11 7 171.238 181.942 11.371 34.212 o
7 11 8 31.255 30.997 7.471 145.655 o
7 11 9 37.989 23.605 9.987 94.006 o
7 11 10 0.430 -0.191 5.117 460.827 o
7 11 11 37.952 46.188 6.708 147.849 o
7 11 12 191.914 192.150 16.070 23.576 o
7 11 13 90.542 98.396 12.429 47.973 o
7 11 14 2.618 3.996 13.527 65.624 o
7 12 0 180.608 154.364 14.372 28.452 o
7 12 1 364.614 314.271 24.513 9.966 o
7 12 2 279.533 280.098 15.959 17.391 o
7 12 3 162.030 116.201 13.232 34.421 o
7 12 4 135.122 113.825 24.685 16.051 o
7 12 5 528.797 520.523 32.865 5.332 o
7 12 6 100.364 120.185 17.068 29.728 o
7 12 7 214.005 212.789 20.518 16.880 o
7 12 8 77.129 93.282 11.703 54.735 o
7 12 9 1.456 10.003 7.125 224.283 o
7 12 10 17.391 11.439 11.258 87.088 o
7 12 11 117.289 67.001 13.981 39.953 o
7 12 12 266.972 271.939 16.970 17.213 o
7 12 13 117.905 103.696 11.192 48.261 o
7 13 0 5.849 4.176 13.255 67.617 o
7 13 1 212.021 190.636 23.423 14.639 o
7 13 2 36.661 33.306 8.666 113.560 o
7 13 3 137.524 131.806 16.705 27.678 o
7 13 4 220.679 218.716 14.908 22.735 o
7 13 5 295.122 264.507 33.492 7.707 o
7 13 6 184.726 212.826 22.243 16.084 o
7 13 7 134.369 137.072 16.523 28.098 o
7 13 8 45.035 41.036 12.347 63.097 o
7 13 9 0.184 -2.542 10.895 102.471 o
7 13 10 143.150 163.582 23.968 16.053 o
7 13 11 56.321 51.568 15.797 40.315 o
7 13 12 207.242 204.436 26.147 12.558 o
7 14 0 41.594 52.112 16.705 37.921 o
7 14 1 97.933 67.909 16.523 33.312 o
7 14 2 2.938 -11.621 13.073 70.566 o
7 14 3 0.852 -5.629 11.984 84.488 o
7 14 4 61.224 86.430 15.434 39.551 o
7 14 5 66.332 70.270 14.889 42.135 o
7 14 6 111.106 98.396 15.979 32.606 o
7 14 7 0.702 0.182 11.258 95.726 o
7 14 8 21.005 12.166 13.437 62.118 o
7 14 9 11.561 9.079 11.984 79.790 o
7 14 10 66.706 70.996 16.160 37.005 o
7 14 11 112.535 76.443 16.160 32.870 o
7 15 3 46.722 31.231 15.252 44.939 o
7 15 4 15.405 7.445 14.526 54.905 o
7 15 5 45.788 36.497 15.252 44.745 o
7 15 6 24.630 30.868 14.345 53.105 o
7 15 7 20.824 6.355 13.073 65.982 o
7 15 8 30.610 31.957 13.981 54.553 o
8 -9 0 82.239 98.578 17.068 31.749 o
8 -9 1 18.612 65.367 17.250 37.077 o
8 -8 0 21.614 -6.174 11.621 82.696 o
8 -8 1 17.801 13.800 12.892 67.556 o
8 -8 2 19.162 10.713 13.981 58.144 o
8 -8 3 48.666 40.128 15.252 44.210 o
8 -8 4 70.928 83.162 17.250 32.579 o
8 -7 0 0.957 13.255 13.255 67.690 o
8 -7 1 0.670 6.355 12.529 76.534 o
8 -7 2 66.951 75.535 16.160 36.782 o
8 -7 3 134.859 150.508 18.702 23.519 o
8 -7 4 1.598 -15.979 13.073 70.864 o
8 -7 5 47.706 58.104 15.616 41.643 o
8 -7 6 0.754 5.629 15.252 51.895 o
8 -6 0 65.255 66.638 16.160 37.329 o
8 -6 1 102.167 69.725 13.800 42.368 o
8 -6 2 420.559 384.360 27.599 7.801 o
8 -6 3 224.886 214.604 23.786 13.803 o
8 -6 4 1.821 6.174 12.166 80.796 o
8 -6 5 0.083 9.805 13.437 66.429 o
8 -6 6 41.464 38.857 15.252 45.105 o
8 -6 7 62.155 46.665 15.797 39.981 o
8 -5 0 582.456 604.593 31.049 5.032 o
8 -5 1 530.869 526.697 28.871 5.940 o
8 -5 2 685.454 634.735 32.865 4.230 o
8 -5 3 386.816 400.338 26.692 8.346 o
8 -5 4 4.439 -10.350 10.350 111.145 o
8 -5 5 41.364 58.649 15.071 44.880 o
8 -5 7 181.433 175.203 20.518 18.564 o
8 -5 8 151.386 151.961 19.610 21.316 o
8 -4 0 488.683 514.581 16.594 8.871 o
8 -4 1 600.214 536.562 27.236 5.656 o
8 -4 2 81.285 77.068 10.441 63.689 o
8 -4 3 15.195 10.194 6.276 239.814 o
8 -4 4 50.873 52.657 11.621 66.217 o
8 -4 5 229.663 220.778 20.337 16.438 o
8 -4 6 114.918 133.259 15.616 31.839 o
8 -4 7 128.066 126.722 16.523 28.886 o
8 -4 8 29.180 28.144 13.437 59.081 o
8 -4 9 0.024 12.347 14.526 56.782 o
8 -3 0 1167.760 1186.070 26.449 2.202 o
8 -3 1 1053.940 978.789 24.603 2.756 o
8 -3 2 125.299 112.966 9.805 51.832 o
8 -3 3 0.728 -6.174 7.808 198.407 o
8 -3 4 127.968 140.533 12.165 40.129 o
8 -3 5 423.618 411.291 18.210 10.451 o
8 -3 6 208.902 235.304 19.429 17.747 o
8 -3 7 85.510 87.701 13.437 44.959 o
8 -3 8 0.104 5.629 10.168 115.967 o
8 -3 9 151.984 146.695 16.705 26.274 o
8 -3 10 51.352 86.975 14.526 44.582 o
8 -3 11 107.017 104.206 16.342 31.704 o
8 -2 0 7.346 4.409 2.815 925.584 o
8 -2 1 1.561 -1.861 2.468 1756.560 o
8 -2 2 29.803 37.975 4.207 260.143 o
8 -2 3 219.274 237.327 12.389 25.491 o
8 -2 4 22.407 23.389 6.018 217.660 o
8 -2 5 376.948 331.341 14.894 13.812 o
8 -2 6 35.942 43.300 7.394 135.783 o
8 -2 7 123.966 145.787 17.431 26.590 o
8 -2 8 22.005 22.697 9.624 108.824 o
8 -2 9 345.804 383.997 25.421 9.388 o
8 -2 10 67.883 76.988 13.618 47.444 o
8 -2 11 20.102 32.139 12.347 70.179 o
8 -1 0 165.016 162.773 10.330 38.681 o
8 -1 1 0.424 5.129 2.478 1570.630 o
8 -1 2 264.513 272.869 7.579 25.705 o
8 -1 3 806.861 818.800 21.407 4.107 o
8 -1 4 110.731 114.001 6.032 75.410 o
8 -1 5 121.458 161.270 13.341 36.084 o
8 -1 6 41.420 40.929 4.070 223.408 o
8 -1 7 4.631 -0.422 4.812 474.408 o
8 -1 8 15.047 20.881 9.260 121.473 o
8 -1 9 417.650 437.302 26.410 7.876 o
8 -1 10 75.312 82.481 12.338 52.552 o
8 -1 11 2.637 -2.820 4.526 555.805 o
8 -1 12 2.273 -14.697 9.231 140.821 o
8 0 0 91.309 96.944 5.085 97.264 o
8 0 1 227.615 239.982 8.892 29.221 o
8 0 2 454.279 443.604 10.123 11.735 o
8 0 3 1130.100 1213.210 22.452 2.334 o
8 0 4 455.746 438.827 11.836 11.346 o
8 0 5 4.926 7.665 3.604 684.872 o
8 0 6 1.975 0.144 3.761 798.321 o
8 0 7 146.903 139.899 7.613 52.253 o
8 0 8 26.141 28.686 4.273 289.980 o
8 0 9 146.694 154.275 8.852 46.646 o
8 0 10 321.604 304.726 11.110 18.480 o
8 0 11 15.336 19.408 5.213 294.301 o
8 0 12 8.333 3.486 5.659 324.219 o
8 0 13 22.458 18.800 9.820 106.068 o
8 1 0 90.917 107.757 5.352 91.930 o
8 1 1 102.797 93.126 4.903 92.264 o
8 1 2 1618.660 1721.190 30.782 1.220 o
8 1 3 692.545 681.118 16.139 5.658 o
8 1 4 549.827 559.669 11.988 8.391 o
8 1 5 125.681 123.831 10.746 46.822 o
8 1 6 116.515 133.425 7.585 61.581 o
8 1 7 312.841 304.642 11.463 18.682 o
8 1 8 172.516 164.146 12.983 31.531 o
8 1 9 2.865 3.057 3.902 691.667 o
8 1 10 279.493 266.969 10.473 22.356 o
8 1 11 0.005 -1.329 5.235 444.107 o
8 1 12 163.087 159.198 10.010 40.055 o
8 1 13 65.857 81.859 8.409 85.630 o
8 2 0 274.371 267.332 6.586 25.874 o
8 2 1 645.420 642.082 13.350 6.522 o
8 2 2 941.459 997.896 18.963 3.262 o
8 2 3 481.171 473.330 10.496 10.675 o
8 2 4 778.065 765.070 17.719 4.639 o
8 2 5 72.075 78.711 8.619 81.430 o
8 2 6 485.327 486.436 15.604 9.372 o
8 2 7 731.275 740.538 21.531 4.729 o
8 2 8 924.141 914.560 21.296 3.395 o
8 2 9 2.138 1.913 3.587 837.637 o
8 2 10 340.931 350.987 12.113 16.071 o
8 2 11 2.907 1.516 4.499 547.895 o
8 2 12 129.471 126.659 9.045 52.561 o
8 2 13 231.463 218.293 15.865 21.009 o
8 2 14 245.304 294.267 14.770 19.594 o
8 3 0 192.445 214.059 5.692 39.898 o
8 3 1 347.576 345.509 8.489 17.643 o
8 3 2 504.222 499.665 12.085 9.642 o
8 3 3 299.249 297.005 9.483 20.955 o
8 3 4 246.906 233.488 11.139 25.126 o
8 3 5 20.942 25.349 6.138 213.238 o
8 3 6 1564.890 1549.250 27.864 1.369 o
8 3 7 50.834 47.548 4.247 187.434 o
8 3 8 853.211 942.603 25.282 3.431 o
8 3 9 31.759 31.197 6.085 186.740 o
8 3 10 3.680 5.790 4.320 547.411 o
8 3 11 57.594 62.790 6.355 124.286 o
8 3 12 92.984 116.552 11.983 48.071 o
8 3 13 78.286 67.164 7.096 96.684 o
8 3 14 233.454 250.676 13.890 22.281 o
8 4 0 408.565 375.456 10.170 14.019 o
8 4 1 118.721 103.710 7.819 64.439 o
8 4 2 324.386 318.010 12.189 17.384 o
8 4 3 131.747 120.911 10.713 46.119 o
8 4 4 390.394 389.081 18.339 11.289 o
8 4 5 924.494 898.165 34.681 2.829 o
8 4 6 34.912 35.602 3.935 258.026 o
8 4 7 229.395 220.103 8.724 30.264 o
8 4 8 16.002 13.811 3.578 473.291 o
8 4 9 67.559 55.629 5.208 135.906 o
8 4 10 621.220 642.889 21.177 5.889 o
8 4 11 71.642 71.556 6.459 107.090 o
8 4 12 62.424 69.094 6.705 112.040 o
8 4 13 5.126 3.248 5.973 309.394 o
8 4 14 14.666 12.680 6.820 208.748 o
8 5 0 427.608 449.915 15.838 10.735 o
8 5 1 177.615 186.953 12.983 30.000 o
8 5 2 53.579 39.241 5.199 166.939 o
8 5 3 90.602 78.542 7.125 86.079 o
8 5 4 701.886 607.764 37.759 3.766 o
8 5 5 1875.830 1991.550 51.009 0.841 o
8 5 6 238.423 244.928 14.526 21.453 o
8 5 7 77.318 74.635 12.347 52.861 o
8 5 8 85.380 73.410 6.287 98.525 o
8 5 9 30.405 44.007 5.712 189.838 o
8 5 10 1061.160 1035.510 24.249 2.670 o
8 5 11 312.609 311.553 11.865 18.264 o
8 5 12 58.787 65.678 6.668 117.015 o
8 5 13 4.736 3.310 6.025 306.098 o
8 5 14 16.654 16.926 9.724 111.886 o
8 6 0 213.780 190.269 10.615 30.613 o
8 6 1 162.153 143.610 9.630 42.480 o
8 6 2 24.832 25.967 5.070 254.990 o
8 6 3 48.275 46.199 6.446 141.325 o
8 6 4 1657.210 1643.890 45.485 1.097 o
8 6 5 1283.500 1256.710 34.550 1.790 o
8 6 6 196.149 221.806 11.383 29.539 o
8 6 7 135.154 136.345 12.529 38.326 o
8 6 8 93.194 98.663 7.808 74.817 o
8 6 9 117.175 147.240 12.710 39.356 o
8 6 10 954.341 970.818 28.027 2.930 o
8 6 11 378.017 386.774 16.172 12.464 o
8 6 12 1.861 -9.885 6.529 278.978 o
8 6 13 0.435 -3.516 6.051 330.353 o
8 6 14 300.033 350.132 15.326 15.765 o
8 7 0 72.874 47.469 4.300 148.654 o
8 7 1 182.795 211.057 11.536 31.085 o
8 7 2 334.273 334.125 27.418 9.117 o
8 7 3 153.796 144.584 12.892 34.653 o
8 7 4 2604.560 2622.670 66.281 0.473 o
8 7 5 196.304 188.738 10.987 31.850 o
8 7 6 34.321 31.957 8.988 109.788 o
8 7 7 0.244 2.724 5.810 351.568 o
8 7 8 113.907 120.911 13.073 40.261 o
8 7 9 567.419 545.581 27.055 5.890 o
8 7 10 534.147 511.623 24.513 6.740 o
8 7 11 249.777 249.190 15.434 19.817 o
8 7 12 0.013 -3.227 6.628 277.084 o
8 7 13 35.176 36.119 8.906 109.309 o
8 7 14 212.179 231.276 17.940 19.260 o
8 8 0 40.063 32.502 9.079 104.453 o
8 8 1 2.783 14.163 7.989 175.826 o
8 8 2 423.668 396.693 15.838 11.390 o
8 8 3 894.388 926.353 27.572 3.206 o
8 8 4 808.426 875.805 26.590 3.665 o
8 8 5 41.803 41.387 5.933 165.527 o
8 8 6 76.696 63.285 6.886 101.350 o
8 8 7 272.118 273.235 18.158 16.061 o
8 8 8 30.954 27.599 7.989 134.816 o
8 8 9 556.389 536.050 34.590 4.889 o
8 8 10 159.358 149.291 9.871 41.786 o
8 8 11 21.176 12.432 5.998 236.033 o
8 8 12 115.730 124.113 11.547 45.404 o
8 8 13 116.368 110.304 10.449 51.176 o
8 8 14 227.189 218.351 17.974 18.875 o
8 9 0 26.619 38.159 7.899 136.066 o
8 9 1 160.894 166.063 6.823 48.364 o
8 9 2 5.136 -1.997 7.081 229.981 o
8 9 3 756.677 743.299 32.865 3.711 o
8 9 4 3.623 3.268 7.263 218.932 o
8 9 5 33.270 42.126 8.534 115.263 o
8 9 6 1.264 0.545 6.537 279.482 o
8 9 7 72.945 100.756 13.800 44.184 o
8 9 8 165.073 138.706 15.616 27.779 o
8 9 9 36.504 39.220 10.350 86.272 o
8 9 10 43.221 50.025 8.625 104.271 o
8 9 11 34.463 39.879 6.746 155.407 o
8 9 12 170.759 192.630 13.699 28.982 o
8 9 13 174.045 163.037 13.474 30.417 o
8 9 14 27.272 39.077 9.688 100.059 o
8 10 0 25.091 13.690 5.417 255.095 o
8 10 1 318.303 312.749 10.411 18.876 o
8 10 2 54.699 54.013 4.675 164.612 o
8 10 3 276.551 278.683 19.247 15.031 o
8 10 4 379.365 332.066 20.700 11.134 o
8 10 5 262.162 275.777 19.066 15.642 o
8 10 6 73.440 86.430 11.258 59.026 o
8 10 7 229.087 230.402 18.158 18.372 o
8 10 8 59.975 38.131 9.805 83.220 o
8 10 10 3.820 5.810 10.713 102.788 o
8 10 11 13.390 13.913 6.147 247.469 o
8 10 12 222.814 212.223 14.301 23.582 o
8 10 13 183.820 206.484 17.250 21.953 o
8 10 14 21.721 18.495 9.727 108.303 o
8 11 0 81.936 70.340 6.173 103.188 o
8 11 1 161.324 170.176 15.434 27.281 o
8 11 2 150.329 153.542 9.242 44.819 o
8 11 3 35.098 31.806 4.846 225.266 o
8 11 4 88.547 101.483 14.345 39.959 o
8 11 5 310.556 292.301 25.421 10.566 o
8 11 7 8.693 10.168 9.079 135.198 o
8 11 8 68.559 52.475 11.258 64.497 o
8 11 9 0.052 1.453 9.624 130.846 o
8 11 10 28.274 28.144 11.621 76.101 o
8 11 11 20.713 18.521 11.076 87.042 o
8 11 12 90.157 82.844 8.940 70.757 o
8 11 13 50.616 54.477 9.304 89.624 o
8 12 0 82.269 75.002 8.865 75.761 o
8 12 1 344.792 354.545 13.217 15.297 o
8 12 2 19.379 9.213 6.919 198.155 o
8 12 3 1.458 1.188 5.969 331.417 o
8 12 4 76.089 71.823 7.590 91.334 o
8 12 5 224.585 236.030 21.426 15.417 o
8 12 6 311.829 299.019 23.060 11.643 o
8 12 7 10.059 13.437 9.987 111.609 o
8 12 8 13.167 12.710 9.805 113.693 o
8 12 9 1.446 -0.363 10.168 116.853 o
8 12 10 111.117 109.109 15.616 33.176 o
8 12 11 137.273 143.064 18.158 24.537 o
8 12 12 19.018 28.689 13.981 56.688 o
8 13 0 167.435 145.729 12.846 33.258 o
8 13 1 24.290 26.692 14.889 49.968 o
8 13 2 12.414 5.629 12.347 75.656 o
8 13 3 167.439 193.905 22.879 16.175 o
8 13 4 91.649 91.133 15.434 36.310 o
8 13 5 270.992 235.849 23.786 12.633 o
8 13 6 272.291 286.672 25.239 11.313 o
8 13 7 1.154 7.808 10.531 107.106 o
8 13 8 0.040 -3.450 12.166 82.234 o
8 13 9 20.585 11.439 11.258 85.916 o
8 13 10 116.159 96.217 15.252 34.350 o
8 13 11 299.701 350.950 28.689 8.948 o
8 14 0 77.771 69.627 11.337 59.478 o
8 14 1 7.869 0.182 15.434 50.187 o
8 14 2 20.605 -24.876 13.618 61.785 o
8 14 3 52.779 57.378 16.160 38.881 o
8 14 4 55.520 47.936 13.800 50.531 o
8 14 5 117.863 119.096 16.705 29.441 o
8 14 6 50.393 30.686 12.166 64.543 o
8 14 7 31.143 37.223 14.163 52.851 o
8 14 8 47.083 52.294 15.252 43.700 o
8 14 9 7.669 -7.081 10.713 102.337 o
8 14 10 120.496 99.304 16.342 30.863 o
9 -8 0 0.297 -8.534 12.892 73.170 o
9 -8 1 12.692 6.174 15.434 49.289 o
9 -7 0 25.608 13.437 14.708 51.815 o
9 -7 1 61.554 60.283 16.523 36.594 o
9 -7 2 68.056 89.880 18.158 29.969 o
9 -7 3 29.276 39.584 16.705 39.479 o
9 -7 4 0.277 -5.266 15.979 47.648 o
9 -6 0 148.401 148.329 19.247 22.066 o
9 -6 1 284.578 330.613 28.507 9.312 o
9 -6 2 66.397 64.459 15.797 38.702 o
9 -6 3 17.586 30.505 14.345 54.175 o
9 -6 4 8.345 24.513 13.800 60.263 o
9 -6 5 85.424 55.199 16.523 34.826 o
9 -6 6 43.769 58.831 18.339 31.848 o
9 -5 0 444.201 441.556 29.052 6.939 o
9 -5 1 384.098 391.986 28.326 7.932 o
9 -5 2 174.137 172.116 22.515 16.651 o
9 -5 3 6.798 4.903 12.347 77.281 o
9 -5 4 16.762 21.426 14.708 52.476 o
9 -5 5 268.462 262.540 27.418 10.440 o
9 -5 6 174.616 185.915 20.881 18.196 o
9 -5 7 114.008 139.069 20.518 21.681 o
9 -4 0 816.961 843.853 24.193 3.837 o
9 -4 1 203.550 184.463 21.426 16.743 o
9 -4 4 148.886 123.817 16.705 27.197 o
9 -4 5 346.907 346.410 27.599 8.826 o
9 -4 6 397.854 420.493 30.323 7.125 o
9 -4 7 201.302 258.183 27.781 11.214 o
9 -4 8 31.576 35.407 16.342 41.058 o
9 -3 0 743.814 771.680 21.322 4.578 o
9 -3 1 132.743 129.111 6.779 60.758 o
9 -3 2 0.061 5.137 6.747 259.341 o
9 -3 3 152.097 149.641 13.559 32.914 o
9 -3 4 37.630 53.717 8.591 107.222 o
9 -3 5 53.910 38.494 11.984 64.243 o
9 -3 6 58.258 57.378 13.981 48.403 o
9 -3 8 1.422 0.363 13.618 65.333 o
9 -3 9 87.210 75.354 15.979 35.623 o
9 -2 0 100.494 97.042 9.436 61.907 o
9 -2 1 48.884 47.569 4.700 180.086 o
9 -2 2 214.253 221.152 13.008 25.609 o
9 -2 3 180.844 202.270 13.223 28.613 o
9 -2 4 512.694 503.094 22.152 7.459 o
9 -2 5 101.932 85.629 9.202 64.612 o
9 -2 6 48.754 47.873 8.319 106.099 o
9 -2 7 26.231 25.239 11.258 81.466 o
9 -2 8 44.755 56.652 13.800 51.527 o
9 -2 9 42.522 41.036 14.163 50.866 o
9 -2 10 243.409 219.870 35.589 7.550 o
9 -1 0 3.866 7.166 7.899 183.203 o
9 -1 1 181.078 189.910 17.250 22.509 o
9 -1 2 2.304 1.966 5.720 352.964 o
9 -1 3 8.848 10.618 3.010 720.792 o
9 -1 4 3.595 6.686 6.342 276.707 o
9 -1 5 66.423 75.668 14.254 44.656 o
9 -1 6 128.761 132.921 15.162 31.855 o
9 -1 7 32.980 28.541 7.434 146.054 o
9 -1 8 184.437 178.108 19.792 19.265 o
9 -1 9 2.004 3.813 11.258 94.472 o
9 -1 10 269.310 276.141 24.876 11.650 o
9 -1 11 5.707 -10.271 10.209 113.419 o
9 0 0 596.096 592.737 13.434 7.348 o
9 0 1 472.674 487.649 11.555 10.489 o
9 0 2 560.823 533.127 12.165 8.401 o
9 0 3 275.501 301.627 8.470 23.066 o
9 0 4 234.752 221.711 16.440 20.121 o
9 0 5 13.689 14.303 3.598 493.934 o
9 0 6 429.587 440.011 12.660 11.739 o
9 0 7 157.916 148.851 7.793 48.161 o
9 0 8 336.301 336.357 15.706 14.566 o
9 0 9 24.325 19.365 8.443 133.857 o
9 0 10 123.602 99.775 13.337 39.465 o
9 0 11 44.998 56.497 5.832 152.271 o
9 0 12 16.114 19.410 10.804 92.656 o
9 1 0 447.747 481.210 11.631 11.089 o
9 1 1 665.352 644.174 16.214 6.045 o
9 1 2 925.131 917.945 27.126 3.139 o
9 1 3 670.211 686.834 16.785 5.763 o
9 1 4 506.137 511.606 11.726 9.562 o
9 1 5 101.246 78.084 7.023 81.657 o
9 1 6 363.842 385.954 12.549 14.420 o
9 1 7 304.129 291.897 10.531 20.096 o
9 1 8 189.846 194.237 10.008 34.099 o
9 1 9 89.209 100.096 7.062 81.854 o
9 1 10 1.213 3.876 4.367 586.128 o
9 1 11 2.706 5.256 5.001 436.248 o
9 1 12 8.882 11.940 7.885 172.903 o
9 2 0 599.225 584.724 13.156 7.392 o
9 2 1 991.574 1003.220 20.419 3.035 o
9 2 2 439.875 425.184 10.306 12.307 o
9 2 3 734.061 728.142 15.138 5.227 o
9 2 4 101.353 93.641 10.430 56.457 o
9 2 5 767.644 777.821 18.262 4.629 o
9 2 6 233.409 230.904 9.638 28.168 o
9 2 7 505.143 518.266 13.848 9.131 o
9 2 8 109.937 112.722 7.127 69.774 o
9 2 9 157.817 151.292 12.655 34.444 o
9 2 10 260.930 248.002 10.974 23.766 o
9 2 11 35.078 43.488 5.958 174.020 o
9 2 12 60.052 84.794 10.395 69.147 o
9 2 13 12.146 6.504 9.579 121.371 o
9 3 0 53.876 55.324 4.021 178.646 o
9 3 1 589.719 579.732 12.748 7.593 o
9 3 2 476.534 476.797 10.941 10.649 o
9 3 3 194.694 185.562 7.086 39.566 o
9 3 4 60.237 43.215 4.621 165.497 o
9 3 5 1596.930 1636.250 29.892 1.282 o
9 3 6 70.020 75.020 4.970 125.831 o
9 3 7 614.074 566.570 19.027 6.573 o
9 3 8 1.799 9.496 3.852 661.857 o
9 3 9 4.307 5.162 4.518 503.845 o
9 3 10 532.993 519.395 15.628 8.359 o
9 3 11 396.972 380.236 13.958 12.934 o
9 3 12 87.391 97.090 8.575 71.838 o
9 3 13 59.075 60.647 7.453 107.338 o
9 4 0 164.542 138.080 8.087 47.035 o
9 4 1 292.364 294.667 10.614 20.620 o
9 4 2 18.333 17.949 4.047 381.264 o
9 4 3 246.865 242.287 9.613 26.513 o
9 4 4 1633.020 1637.330 35.240 1.206 o
9 4 5 178.357 180.526 10.713 34.881 o
9 4 6 532.798 543.035 21.244 7.191 o
9 4 7 3.701 6.917 2.962 960.965 o
9 4 8 47.614 48.482 5.521 161.419 o
9 4 9 294.166 306.247 11.181 19.787 o
9 4 10 341.275 320.613 11.931 16.763 o
9 4 11 354.776 394.411 13.915 13.976 o
9 4 12 41.001 32.675 6.638 154.348 o
9 4 13 0.049 -9.887 6.355 301.224 o
9 5 0 13.354 3.359 8.080 165.350 o
9 5 1 30.055 29.167 5.645 208.968 o
9 5 2 26.270 34.373 5.961 199.041 o
9 5 3 6.309 7.511 4.882 414.764 o
9 5 4 690.510 712.185 22.172 5.020 o
9 5 5 88.478 91.510 8.205 75.257 o
9 5 6 21.905 26.493 8.171 139.716 o
9 5 7 0.061 -1.839 9.987 122.011 o
9 5 8 30.399 28.141 4.173 278.612 o
9 5 9 291.378 311.520 11.057 19.884 o
9 5 10 247.454 248.833 10.881 24.803 o
9 5 11 129.638 138.250 16.840 27.697 o
9 5 12 3.535 0.372 5.578 367.506 o
9 5 13 12.354 14.213 6.764 214.890 o
9 5 14 168.661 151.143 11.060 37.133 o
9 6 0 3.772 9.151 4.988 413.603 o
9 6 1 154.856 164.961 10.904 38.456 o
9 6 2 71.938 58.317 18.248 30.438 o
9 6 3 1187.950 1140.530 32.276 2.078 o
9 6 4 502.014 584.994 19.747 7.577 o
9 6 5 41.485 34.839 5.720 177.479 o
9 6 6 208.297 216.878 12.070 27.606 o
9 6 7 199.426 180.831 14.345 26.111 o
9 6 8 143.311 149.600 14.163 32.292 o
9 6 9 343.099 336.155 12.814 15.905 o
9 6 10 368.975 382.369 12.691 14.250 o
9 6 11 17.353 18.424 5.472 270.245 o
9 6 12 13.705 15.229 6.928 202.968 o
9 6 13 116.971 123.021 14.345 35.674 o
9 6 14 56.517 69.847 8.482 92.664 o
9 7 0 159.372 180.105 17.613 23.333 o
9 7 1 223.616 201.894 16.887 20.600 o
9 7 2 81.838 81.461 13.518 45.561 o
9 7 3 540.407 485.389 33.583 5.257 o
9 7 4 2.029 -0.095 4.965 472.925 o
9 7 5 4.302 5.867 5.072 410.344 o
9 7 6 1.128 4.716 8.897 150.201 o
9 7 7 50.123 35.952 8.171 111.655 o
9 7 8 270.497 288.669 18.884 15.324 o
9 7 9 218.127 190.636 16.705 21.357 o
9 7 10 193.349 204.618 17.976 20.599 o
9 7 11 66.315 62.308 7.719 98.442 o
9 7 12 89.280 82.986 8.540 74.067 o
9 7 13 61.954 58.857 7.664 103.063 o
9 7 14 71.307 92.022 9.222 73.739 o
9 8 0 136.192 153.413 17.613 25.308 o
9 8 1 1259.360 1255.650 50.115 1.524 o
9 8 2 927.762 1039.780 43.033 2.317 o
9 8 3 1051.230 1086.440 44.123 2.033 o
9 8 4 101.117 89.154 11.258 52.624 o
9 8 5 84.593 75.172 10.531 62.421 o
9 8 6 197.700 192.815 15.797 23.619 o
9 8 7 98.202 101.120 13.255 43.005 o
9 8 8 261.174 274.143 19.247 15.558 o
9 8 9 77.697 65.186 10.713 64.392 o
9 8 10 46.349 38.312 10.350 82.496 o
9 8 11 3.296 -0.182 7.445 212.807 o
9 8 12 57.010 63.146 12.892 54.477 o
9 8 13 115.793 119.128 10.639 49.566 o
9 8 14 20.681 43.333 11.079 82.442 o
9 9 0 36.050 31.730 3.980 258.986 o
9 9 1 401.133 454.248 25.784 8.138 o
9 9 2 492.305 427.938 24.694 7.546 o
9 9 3 333.367 329.705 21.244 11.828 o
9 9 4 35.771 26.510 9.260 105.845 o
9 9 5 255.228 252.191 18.158 17.000 o
9 9 6 198.855 195.539 16.705 22.209 o
9 9 7 73.627 89.517 12.347 52.159 o
9 9 8 71.826 81.709 11.258 59.977 o
9 9 9 64.854 46.847 11.076 67.742 o
9 9 10 82.959 93.675 13.800 43.317 o
9 9 11 48.897 48.481 11.802 65.747 o
9 9 12 128.264 118.098 11.712 43.259 o
9 9 13 162.440 145.842 12.646 34.258 o
9 10 0 97.321 89.883 6.496 84.708 o
9 10 1 67.780 89.880 14.889 40.856 o
9 10 3 0.726 1.089 9.260 140.827 o
9 10 4 2.272 13.437 9.079 139.374 o
9 10 5 104.459 76.988 11.439 52.248 o
9 10 6 331.621 318.811 23.605 10.847 o
9 10 8 49.099 34.318 10.531 80.150 o
9 10 9 8.472 9.442 9.624 121.859 o
9 10 10 48.961 66.275 12.892 55.688 o
9 10 11 225.539 214.423 22.879 14.486 o
9 10 12 25.425 24.513 11.621 77.538 o
9 10 13 53.034 80.983 16.342 37.103 o
9 11 0 113.841 118.945 11.465 46.487 o
9 11 1 111.233 109.836 9.337 57.773 o
9 11 2 39.703 38.312 11.984 67.830 o
9 11 3 24.290 3.813 10.713 93.890 o
9 11 4 46.002 43.578 10.895 75.733 o
9 11 5 164.832 186.460 19.973 19.617 o
9 11 6 93.564 84.433 13.981 41.794 o
9 11 7 20.814 21.789 9.987 103.190 o
9 11 8 20.662 14.345 10.168 102.068 o
9 11 9 0.354 -1.089 9.987 121.819 o
9 11 10 125.923 89.517 14.345 36.486 o
9 11 11 436.500 498.008 31.413 6.266 o
9 11 12 32.481 16.705 12.892 64.018 o
9 12 0 99.027 93.479 10.155 58.587 o
9 12 1 0.468 -9.188 6.718 268.197 o
9 12 2 87.120 55.199 13.618 46.223 o
9 12 3 102.409 91.678 14.889 37.047 o
9 12 4 98.417 79.712 14.163 40.772 o
9 12 5 116.716 135.619 16.342 29.799 o
9 12 6 80.790 69.543 12.892 49.728 o
9 12 7 25.823 20.155 10.895 87.247 o
9 12 8 4.353 -6.174 9.442 133.028 o
9 12 9 8.424 -3.632 9.442 129.845 o
9 12 10 67.959 73.538 13.800 46.777 o
9 12 11 152.351 140.885 18.158 23.814 o
9 13 0 3.568 -5.340 12.166 81.190 o
9 13 1 1.629 -13.330 9.276 140.043 o
9 13 2 0.363 -1.816 12.892 73.154 o
9 13 3 75.568 102.572 17.613 30.564 o
9 13 4 184.338 167.576 23.605 15.393 o
9 13 5 48.912 25.965 12.166 65.470 o
9 13 6 31.662 38.857 13.800 55.068 o
9 13 7 1.155 -3.813 11.439 92.583 o
9 13 8 20.249 24.876 12.347 71.067 o
9 13 9 53.643 43.397 13.437 53.394 o
9 13 10 77.961 54.654 13.618 47.606 o
9 14 2 44.446 23.060 15.252 45.672 o
9 14 3 105.192 79.530 16.523 32.293 o
9 14 4 142.257 101.483 15.979 30.034 o
9 14 5 9.198 -9.624 12.347 77.296 o
9 14 6 6.769 16.342 13.437 64.467 o
9 14 7 98.395 114.375 17.794 28.292 o
9 14 8 35.370 15.979 14.163 53.825 o
10 -7 0 202.760 201.531 23.968 14.280 o
10 -6 0 141.088 128.356 19.973 21.675 o
10 -6 1 40.227 42.489 15.252 45.039 o
10 -6 2 26.822 11.258 16.160 43.498 o
10 -6 3 29.532 19.792 17.068 38.721 o
10 -5 0 233.712 235.304 25.965 11.969 o
10 -5 1 128.922 127.630 17.431 26.838 o
10 -5 2 0.687 -8.716 13.437 67.285 o
10 -5 3 11.812 8.897 14.889 52.758 o
10 -5 4 42.668 69.543 17.613 33.891 o
10 -5 5 59.120 47.391 17.250 34.732 o
10 -4 0 90.555 112.377 17.794 28.834 o
10 -4 1 70.239 86.249 16.705 34.209 o
10 -4 2 24.276 20.337 13.981 56.512 o
10 -4 3 34.256 40.673 13.437 57.016 o
10 -4 4 183.045 168.121 19.610 19.730 o
10 -4 5 140.098 131.624 18.339 24.361 o
10 -4 6 47.782 31.594 15.434 43.897 o
10 -4 7 0.091 -12.166 16.705 43.613 o
10 -3 0 3.015 1.222 4.699 506.326 o
10 -3 1 1.241 -2.847 4.106 694.602 o
10 -3 2 148.225 129.990 16.523 27.408 o
10 -3 3 85.029 55.744 13.800 45.619 o
10 -3 4 365.699 378.368 28.689 8.083 o
10 -3 5 119.931 132.169 17.431 27.245 o
10 -3 6 0.191 1.816 13.618 65.428 o
10 -3 7 0.305 -1.816 13.981 62.219 o
10 -3 8 127.378 114.375 19.792 22.830 o
10 -2 0 67.053 50.525 5.901 128.261 o
10 -2 1 181.822 195.835 10.231 34.535 o
10 -2 2 209.395 184.950 10.453 31.613 o
10 -2 3 278.514 248.431 18.358 16.104 o
10 -2 4 347.322 369.226 46.120 4.400 o
10 -2 5 8.430 10.073 8.503 152.671 o
10 -2 6 71.381 42.852 14.163 46.629 o
10 -2 7 19.067 8.716 12.710 69.647 o
10 -2 8 88.997 108.383 18.158 28.175 o
10 -2 9 25.014 36.860 15.797 44.238 o
10 -1 0 254.148 239.978 10.878 24.640 o
10 -1 1 148.896 132.458 8.695 48.935 o
10 -1 2 376.354 339.610 13.141 14.510 o
10 -1 3 526.323 539.924 20.451 7.426 o
10 -1 4 559.354 506.113 34.590 4.951 o
10 -1 5 17.609 16.694 8.190 148.786 o
10 -1 6 23.783 36.134 12.710 65.394 o
10 -1 7 237.258 248.462 17.517 18.329 o
10 -1 8 92.538 80.983 16.705 32.684 o
10 -1 9 163.463 165.942 19.973 20.055 o
10 -1 10 8.828 8.897 15.071 51.919 o
10 0 0 26.332 27.378 5.469 228.215 o
10 0 1 14.309 15.683 3.870 443.480 o
10 0 2 11.051 21.636 3.960 434.990 o
10 0 3 236.027 247.763 8.570 28.412 o
10 0 4 3.395 18.814 5.196 357.414 o
10 0 5 78.514 79.087 6.363 100.481 o
10 0 6 4.070 6.624 4.383 523.995 o
10 0 7 101.016 109.243 10.706 53.323 o
10 0 8 28.725 18.933 6.517 188.015 o
10 0 9 94.964 73.175 17.976 29.315 o
10 0 10 77.080 61.414 11.079 62.428 o
10 1 0 62.415 59.034 4.925 144.835 o
10 1 1 780.752 736.220 16.642 4.780 o
10 1 2 408.184 420.147 11.057 13.056 o
10 1 3 413.740 426.705 12.577 12.336 o
10 1 4 436.175 431.624 11.149 12.098 o
10 1 5 309.095 291.541 10.610 19.781 o
10 1 6 182.383 186.416 14.005 27.738 o
10 1 7 222.017 211.214 12.254 26.459 o
10 1 8 12.245 8.499 8.765 141.546 o
10 1 9 8.290 5.193 4.829 415.540 o
10 1 10 143.177 140.565 23.151 17.209 o
10 1 11 86.849 74.064 7.272 87.938 o
10 2 0 69.449 55.100 4.978 137.567 o
10 2 1 422.111 395.442 12.868 12.434 o
10 2 2 308.815 311.510 9.382 20.047 o
10 2 3 108.382 103.667 11.122 50.380 o
10 2 4 692.427 685.547 15.076 5.729 o
10 2 5 367.939 353.458 16.528 12.997 o
10 2 6 450.406 454.799 13.189 10.940 o
10 2 7 134.052 133.971 13.906 34.618 o
10 2 8 72.596 70.851 5.328 120.729 o
10 2 9 118.536 109.715 6.959 68.040 o
10 2 10 97.491 90.127 7.930 73.928 o
10 2 11 264.451 292.706 14.731 18.773 o
10 2 12 9.918 8.332 6.959 216.550 o
10 3 0 3.951 8.612 5.062 404.051 o
10 3 1 89.567 95.262 5.946 91.956 o
10 3 2 25.600 20.762 4.298 309.325 o
10 3 3 120.920 119.813 7.810 61.244 o
10 3 4 686.749 686.551 14.815 5.794 o
10 3 5 247.920 244.714 8.177 27.862 o
10 3 6 557.085 566.024 12.690 8.140 o
10 3 7 4.783 -3.928 3.267 917.720 o
10 3 8 6.635 11.989 3.893 550.409 o
10 3 9 214.399 217.027 14.179 24.125 o
10 3 10 271.723 277.370 12.079 21.108 o
10 3 11 128.120 133.754 9.283 51.104 o
10 3 12 14.749 24.517 7.561 167.817 o
10 4 0 282.742 270.717 11.334 21.305 o
10 4 1 149.410 144.327 9.499 45.024 o
10 4 2 18.701 18.679 4.831 309.522 o
10 4 3 1488.990 1474.940 32.893 1.434 o
10 4 4 21.619 29.842 5.309 246.347 o
10 4 5 519.728 516.656 15.329 8.631 o
10 4 6 77.975 76.210 7.412 90.875 o
10 4 7 0.074 -0.352 2.935 1406.410 o
10 4 8 148.063 148.004 7.758 50.542 o
10 4 9 300.845 282.177 10.436 20.623 o
10 4 10 411.769 408.572 14.155 12.102 o
10 4 11 198.178 183.110 13.933 26.788 o
10 4 12 0.156 -5.214 7.613 209.741 o
10 5 0 262.077 244.166 12.613 22.145 o
10 5 1 153.326 143.668 9.519 44.320 o
10 5 2 271.491 285.869 11.502 21.379 o
10 5 3 508.022 531.494 15.710 8.624 o
10 5 4 52.235 61.543 6.277 131.657 o
10 5 5 4.293 4.345 4.549 502.895 o
10 5 6 59.043 50.409 5.793 139.051 o
10 5 7 49.712 52.252 11.439 68.136 o
10 5 8 98.032 98.510 9.220 63.721 o
10 5 9 221.277 217.900 9.850 29.657 o
10 5 10 204.769 198.580 10.778 30.834 o
10 5 11 69.214 71.946 7.357 97.937 o
10 5 12 3.366 -2.328 15.071 53.168 o
10 5 13 101.064 102.843 9.310 61.656 o
10 6 0 23.855 18.339 8.897 123.956 o
10 6 1 191.887 224.773 18.884 19.154 o
10 6 2 344.062 368.381 21.789 10.993 o
10 6 3 598.606 607.578 21.085 6.248 o
10 6 4 17.955 19.336 5.992 235.707 o
10 6 5 1.269 2.047 5.608 372.502 o
10 6 6 6.368 0.622 8.262 169.332 o
10 6 7 9.606 0.726 6.718 240.589 o
10 6 8 61.814 57.214 7.500 105.948 o
10 6 9 38.876 40.035 7.182 139.212 o
10 6 10 3.158 3.354 13.800 63.054 o
10 6 11 16.827 12.107 6.989 197.115 o
10 6 12 48.889 53.248 7.296 120.768 o
10 6 13 47.171 56.327 8.295 104.716 o
10 7 0 0.572 -16.705 8.352 173.718 o
10 7 1 169.472 200.986 18.702 20.786 o
10 7 2 259.949 231.128 18.521 16.889 o
10 7 3 72.036 75.354 11.076 61.952 o
10 7 4 81.718 85.885 11.984 52.968 o
10 7 5 218.784 220.415 17.068 20.184 o
10 7 6 204.057 218.781 16.705 21.357 o
10 7 7 7.000 4.903 7.445 200.894 o
10 7 8 146.443 163.945 16.705 26.082 o
10 7 9 49.701 48.299 9.805 85.423 o
10 7 10 0.384 -7.808 9.079 147.313 o
10 7 11 83.867 77.751 10.507 62.432 o
10 7 12 16.218 26.834 7.293 173.529 o
10 7 13 171.122 193.369 19.247 20.164 o
10 8 0 198.434 203.710 21.426 16.611 o
10 8 1 42.132 47.754 10.895 76.328 o
10 8 2 217.620 220.052 19.429 17.708 o
10 8 3 5.569 -1.634 8.171 174.435 o
10 8 4 0.006 -3.450 7.626 209.288 o
10 8 5 185.565 186.097 16.705 23.165 o
10 8 6 166.190 149.782 15.616 27.310 o
10 8 7 17.374 21.971 8.716 132.099 o
10 8 8 13.789 9.624 8.534 146.273 o
10 8 9 69.442 62.462 11.439 61.653 o
10 8 10 19.478 1.271 11.802 80.844 o
10 8 11 152.778 182.647 20.700 19.206 o
10 8 12 41.966 45.757 13.618 53.998 o
10 8 13 53.788 64.598 11.478 65.060 o
10 9 0 431.114 468.593 29.052 6.935 o
10 9 1 304.810 300.109 23.423 11.577 o
10 9 3 31.320 27.236 10.895 83.792 o
10 9 4 395.935 361.844 23.968 9.361 o
10 9 5 394.529 406.330 24.694 8.837 o
10 9 6 528.342 513.442 27.963 6.164 o
10 9 8 6.265 -9.442 8.716 153.376 o
10 9 9 0.793 11.621 9.442 131.257 o
10 9 10 76.371 72.267 13.073 49.284 o
10 9 11 399.254 446.459 27.963 7.604 o
10 9 12 65.133 55.925 13.800 48.474 o
10 10 0 55.307 57.923 13.437 51.900 o
10 10 1 64.713 63.370 13.800 47.986 o
10 10 2 265.281 263.630 23.242 12.808 o
10 10 3 21.890 27.418 11.258 82.596 o
10 10 4 169.736 153.413 19.247 21.043 o
10 10 5 296.140 291.756 22.697 12.214 o
10 10 6 303.378 307.190 23.242 11.632 o
10 10 7 309.522 311.548 23.423 11.386 o
10 10 8 4.820 -6.900 9.442 132.658 o
10 10 9 0.636 -0.545 8.897 153.111 o
10 10 10 151.095 173.750 21.426 18.516 o
10 10 11 231.815 289.032 24.876 12.200 o
10 10 12 67.616 64.459 14.889 42.322 o
10 11 0 56.301 46.847 15.071 43.824 o
10 11 1 14.393 15.616 12.166 75.842 o
10 11 2 36.868 23.605 12.347 67.078 o
10 11 3 7.918 4.721 11.258 91.959 o
10 11 4 121.412 134.711 19.792 22.651 o
10 11 5 16.704 1.634 10.895 94.763 o
10 11 6 112.946 84.251 13.618 40.767 o
10 11 7 6.409 7.081 10.895 98.055 o
10 11 8 14.512 0.363 9.987 112.847 o
10 11 9 43.809 33.410 12.529 62.763 o
10 11 10 119.022 119.459 16.887 28.922 o
10 11 11 28.507 27.599 13.073 62.169 o
10 12 0 39.483 19.066 14.163 52.963 o
10 12 1 36.414 33.592 14.889 47.978 o
10 12 2 6.767 -7.445 13.437 66.076 o
10 12 3 22.753 11.076 12.166 74.158 o
10 12 4 53.909 33.047 12.166 63.428 o
10 12 5 43.987 42.307 12.529 61.743 o
10 12 6 4.045 4.721 11.984 82.753 o
10 12 7 18.172 26.873 12.529 69.503 o
10 12 8 12.936 12.529 11.076 91.237 o
10 12 9 134.774 127.811 17.613 26.120 o
10 12 10 72.748 69.725 15.071 40.679 o
10 13 1 11.933 13.073 14.889 52.468 o
10 13 2 19.540 -25.784 12.529 72.497 o
10 13 3 56.965 47.391 16.160 38.955 o
10 13 4 9.773 -6.355 12.347 77.138 o
10 13 5 28.968 17.431 12.347 69.797 o
10 13 6 5.674 -1.816 11.076 96.794 o
10 13 7 20.486 23.605 12.166 73.070 o
10 13 8 73.209 86.249 15.797 37.025 o
11 -5 0 0.966 1.634 14.708 56.024 o
11 -5 1 16.017 22.697 15.797 45.911 o
11 -5 2 2.802 -5.084 15.616 49.612 o
11 -4 0 13.505 15.616 14.526 54.590 o
11 -4 1 5.768 14.889 14.163 58.556 o
11 -4 2 5.254 13.618 13.981 60.226 o
11 -4 3 59.974 47.210 16.342 37.975 o
11 -4 4 146.619 127.085 19.792 21.754 o
11 -3 0 27.293 27.781 13.255 60.905 o
11 -3 1 97.743 76.625 15.797 35.225 o
11 -3 2 34.288 36.497 14.163 52.431 o
11 -3 3 250.971 271.801 28.689 9.996 o
11 -3 4 122.122 143.064 19.792 22.444 o
11 -3 5 10.553 1.271 15.616 48.692 o
11 -3 6 0.230 22.879 16.523 43.561 o
11 -2 0 13.596 1.615 5.926 282.506 o
11 -2 1 364.889 369.428 20.870 10.982 o
11 -2 2 233.848 239.392 18.616 17.579 o
11 -2 3 341.664 266.113 32.675 7.588 o
11 -2 4 1.704 7.445 14.345 58.324 o
11 -2 5 72.918 82.254 16.160 35.962 o
11 -2 6 68.431 79.167 16.523 35.237 o
11 -2 7 200.795 165.579 21.426 17.105 o
11 -1 0 3.528 -0.009 6.181 303.506 o
11 -1 1 808.107 802.810 33.299 3.391 o
11 -1 2 566.991 558.972 17.296 7.375 o
11 -1 3 596.869 566.795 45.575 3.458 o
11 -1 4 95.566 91.678 11.425 52.635 o
11 -1 5 28.370 25.217 10.207 94.942 o
11 -1 6 197.547 199.320 19.140 19.135 o
11 -1 7 114.357 131.987 19.429 23.647 o
11 -1 8 105.017 117.461 19.066 25.112 o
11 0 0 7.903 2.116 5.834 312.626 o
11 0 1 172.546 171.250 10.662 36.292 o
11 0 2 478.840 441.083 12.622 10.614 o
11 0 3 86.553 125.347 9.996 58.607 o
11 0 4 78.730 88.865 13.541 45.373 o
11 0 5 117.274 132.777 8.844 55.635 o
11 0 6 382.388 398.806 23.001 9.625 o
11 0 7 158.885 158.861 19.792 20.616 o
11 0 8 162.564 163.400 20.337 19.662 o
11 0 9 1.470 28.326 16.342 44.147 o
11 1 0 42.079 54.702 6.227 148.494 o
11 1 1 8.960 23.228 6.277 238.949 o
11 1 2 326.518 326.612 11.248 17.656 o
11 1 3 0.764 2.220 5.070 455.683 o
11 1 4 12.501 11.558 4.365 416.122 o
11 1 5 5.540 7.371 5.104 391.472 o
11 1 6 36.636 47.233 6.516 153.583 o
11 1 7 7.639 9.520 6.102 276.283 o
11 1 8 0.418 -17.794 13.437 67.338 o
11 1 9 33.502 18.974 6.105 194.488 o
11 1 10 64.874 83.156 15.062 40.844 o
11 2 0 375.786 371.244 11.713 14.617 o
11 2 1 19.561 19.394 5.637 250.960 o
11 2 2 0.193 3.345 5.897 340.250 o
11 2 3 508.314 483.149 14.123 9.322 o
11 2 4 87.040 90.202 7.096 85.148 o
11 2 5 250.985 236.944 11.553 24.234 o
11 2 6 55.948 58.735 10.634 72.514 o
11 2 7 0.746 -6.519 4.812 516.666 o
11 2 8 158.534 160.002 9.420 42.306 o
11 2 9 96.847 73.309 6.972 85.484 o
11 2 10 265.020 261.218 24.231 12.232 o
11 3 0 186.451 201.431 8.992 36.023 o
11 3 1 85.990 75.095 5.927 101.127 o
11 3 2 92.308 80.685 6.673 88.478 o
11 3 3 584.088 577.869 13.914 7.531 o
11 3 4 56.186 56.739 5.071 152.301 o
11 3 5 161.950 149.544 12.296 34.966 o
11 3 6 37.052 39.215 4.476 223.832 o
11 3 7 0.722 -1.018 4.298 645.371 o
11 3 8 115.946 123.851 13.131 39.615 o
11 3 9 247.195 236.123 12.818 23.097 o
11 3 10 131.342 129.045 9.389 50.495 o
11 3 11 162.462 165.284 10.639 38.078 o
11 4 0 25.930 28.188 7.979 139.760 o
11 4 1 131.815 124.422 9.608 50.022 o
11 4 2 898.413 871.954 22.620 3.520 o
11 4 3 391.045 409.204 14.687 12.430 o
11 4 4 358.668 356.302 13.870 14.475 o
11 4 5 12.737 1.104 6.103 273.046 o
11 4 6 0.477 -5.899 6.120 322.779 o
11 4 7 5.639 10.222 6.416 258.663 o
11 4 8 141.728 124.723 10.932 43.326 o
11 4 9 228.068 231.122 16.347 20.316 o
11 4 10 115.713 115.006 9.864 53.480 o
11 4 11 31.020 20.857 10.180 95.121 o
11 5 0 3.665 -4.041 7.458 211.307 o
11 5 1 222.747 242.752 14.963 21.873 o
11 5 2 362.449 339.769 21.426 11.074 o
11 5 3 420.334 468.544 19.934 9.474 o
11 5 4 58.539 57.467 8.110 99.757 o
11 5 5 2.390 7.448 6.113 299.134 o
11 5 6 162.650 148.903 9.746 41.639 o
11 5 7 2.724 1.266 6.449 280.487 o
11 5 8 104.497 88.196 8.989 64.747 o
11 5 9 220.484 215.078 14.241 23.717 o
11 5 10 15.279 16.375 6.168 237.290 o
11 5 11 4.545 5.175 18.248 36.133 o
11 6 0 78.052 100.938 14.526 40.509 o
11 6 1 55.393 45.212 11.076 70.751 o
11 6 2 432.031 457.880 26.328 7.634 o
11 6 3 23.292 33.410 10.168 95.996 o
11 6 4 24.105 21.801 8.540 130.618 o
11 6 5 94.314 84.364 9.048 68.280 o
11 6 6 72.345 68.177 8.829 81.633 o
11 6 7 46.569 56.217 8.364 104.119 o
11 6 8 17.879 16.855 7.085 186.858 o
11 6 9 71.610 75.021 9.203 77.035 o
11 6 10 8.435 -0.765 7.658 192.474 o
11 6 11 140.388 142.949 13.406 34.843 o
11 7 0 24.344 23.423 14.889 50.173 o
11 7 1 94.621 74.809 12.710 47.913 o
11 7 2 332.590 339.874 23.605 10.652 o
11 7 3 7.818 -3.632 8.171 171.386 o
11 7 4 14.691 4.539 9.079 132.510 o
11 7 5 31.743 38.857 11.258 77.334 o
11 7 6 105.055 88.609 12.347 46.755 o
11 7 7 66.684 49.026 10.531 71.545 o
11 7 8 1.937 -9.016 7.085 237.562 o
11 7 9 20.562 22.480 8.289 139.929 o
11 7 10 39.426 32.321 13.618 55.563 o
11 7 11 80.678 122.014 11.690 51.224 o
11 8 0 6.453 0.182 10.895 99.574 o
11 8 1 62.547 84.614 14.889 41.746 o
11 8 2 153.954 160.676 21.244 18.857 o
11 8 4 139.237 151.416 17.613 25.194 o
11 8 5 67.389 79.349 12.892 51.174 o
11 8 6 236.686 230.402 20.881 15.614 o
11 8 8 51.119 56.652 13.800 50.538 o
11 8 9 21.834 11.802 10.531 96.061 o
11 8 10 84.029 80.983 13.437 45.656 o
11 8 11 180.179 204.349 23.605 15.061 o
11 9 0 200.859 192.452 23.786 14.570 o
11 9 1 88.699 83.707 14.708 39.580 o
11 9 2 82.087 69.362 14.163 43.447 o
11 9 3 10.787 2.542 11.621 85.916 o
11 9 4 47.890 42.126 12.529 60.915 o
11 9 5 82.945 79.530 13.255 46.774 o
11 9 6 36.746 16.705 10.531 88.467 o
11 9 7 6.885 16.342 9.987 112.631 o
11 9 8 3.474 -1.453 10.531 107.927 o
11 9 9 67.462 78.986 13.437 48.281 o
11 9 10 198.294 198.263 22.152 16.000 o
11 9 11 37.022 33.228 13.437 57.188 o
11 10 0 56.820 48.481 16.342 38.198 o
11 10 1 0.633 -9.805 11.621 89.912 o
11 10 2 115.156 83.888 15.797 33.390 o
11 10 3 164.623 157.953 22.515 17.104 o
11 10 4 366.205 349.860 26.873 8.828 o
11 10 5 282.471 265.627 23.786 12.121 o
11 10 6 103.156 96.762 14.163 39.207 o
11 10 7 6.894 17.794 11.258 89.835 o
11 10 8 35.691 44.304 12.529 63.360 o
11 10 9 287.355 291.211 24.513 11.402 o
11 10 10 237.031 270.348 24.513 12.501 o
11 11 0 67.924 74.446 16.523 35.473 o
11 11 1 0.058 1.089 14.345 59.065 o
11 11 2 28.192 37.041 14.526 50.987 o
11 11 3 56.688 29.597 13.618 52.897 o
11 11 4 75.472 77.533 15.797 37.220 o
11 11 5 232.535 236.394 24.876 12.670 o
11 11 6 6.703 3.087 11.984 82.183 o
11 11 7 32.552 30.142 12.529 65.692 o
11 11 8 119.350 153.232 22.334 18.675 o
11 11 9 209.805 210.428 24.694 13.483 o
11 12 1 16.601 -6.718 15.071 51.501 o
11 12 2 123.171 151.779 19.973 21.927 o
11 12 3 30.473 8.897 13.073 63.687 o
11 12 4 100.127 118.551 17.250 29.352 o
11 12 5 0.286 -9.987 11.802 87.289 o
11 12 6 17.243 13.981 12.892 67.661 o
11 12 7 6.551 8.716 12.710 72.655 o
11 12 8 110.069 160.858 23.242 17.703 o
12 -3 0 11.245 -2.724 15.252 50.971 o
12 -3 1 184.846 215.876 24.513 14.072 o
12 -3 2 226.626 256.185 31.049 9.280 o
12 -2 0 13.995 29.597 15.434 47.800 o
12 -2 1 165.662 155.229 21.426 18.347 o
12 -2 2 412.450 401.973 34.499 6.116 o
12 -2 3 26.764 40.673 16.160 42.099 o
12 -2 4 2.346 -11.076 15.434 50.831 o
12 -1 0 249.371 262.177 30.142 9.410 o
12 -1 1 42.872 27.781 15.797 42.867 o
12 -1 2 406.588 395.254 33.410 6.416 o
12 -1 3 19.616 12.892 14.708 52.669 o
12 -1 4 2.082 -8.171 15.071 53.330 o
12 -1 5 188.574 166.124 21.063 17.861 o
12 -1 6 168.387 160.313 22.334 17.163 o
12 0 0 184.290 151.581 16.796 24.053 o
12 0 1 2.834 -6.829 10.911 100.950 o
12 0 2 7.604 -1.634 13.437 65.910 o
12 0 3 99.066 88.246 17.431 29.968 o
12 0 4 67.918 89.880 16.705 34.248 o
12 0 5 220.468 303.195 29.778 9.665 o
12 0 6 201.685 200.805 23.242 14.913 o
12 0 7 37.609 58.467 18.521 31.667 o
12 1 0 103.629 116.259 9.356 58.831 o
12 1 1 15.577 15.454 5.630 271.389 o
12 1 2 62.320 58.339 6.336 122.217 o
12 1 3 124.704 149.714 12.512 38.856 o
12 1 4 93.794 139.378 29.234 12.477 o
12 1 5 61.554 71.803 14.617 43.832 o
12 1 6 98.237 123.838 23.696 17.918 o
12 1 7 70.434 123.453 16.887 32.221 o
12 1 8 21.465 38.131 15.979 43.619 o
12 2 0 41.535 53.609 7.608 121.359 o
12 2 1 1.421 1.703 5.296 415.849 o
12 2 2 137.670 145.134 9.542 47.006 o
12 2 3 27.017 33.577 6.545 177.228 o
12 2 4 54.118 78.024 7.611 102.603 o
12 2 5 41.794 51.173 8.385 108.635 o
12 2 6 0.157 11.017 15.706 48.737 o
12 2 7 15.368 -4.542 7.055 208.839 o
12 2 8 1.136 -2.126 6.493 284.640 o
12 3 0 2.966 9.723 6.057 297.238 o
12 3 1 23.153 20.131 6.810 185.723 o
12 3 2 466.060 426.869 12.251 11.142 o
12 3 3 225.677 241.920 12.886 24.240 o
12 3 4 154.354 171.853 15.345 27.890 o
12 3 5 1.676 -8.284 5.916 339.084 o
12 3 6 72.496 57.456 8.744 84.846 o
12 3 7 5.478 2.714 6.721 248.957 o
12 3 8 93.151 84.148 8.661 71.478 o
12 3 9 87.120 61.168 9.593 70.610 o
12 4 0 1.417 14.032 8.158 171.087 o
12 4 1 69.877 77.965 9.953 70.699 o
12 4 2 177.102 204.660 15.574 24.843 o
12 4 3 114.892 109.920 10.514 51.229 o
12 4 4 0.697 -8.796 6.738 265.913 o
12 4 5 0.239 2.917 6.032 326.325 o
12 4 6 94.907 69.339 8.881 71.916 o
12 4 7 67.826 72.835 23.505 19.573 o
12 4 8 40.090 30.565 13.437 56.876 o
12 4 9 200.932 201.579 14.571 24.949 o
12 5 0 148.411 176.669 19.156 21.586 o
12 5 1 171.135 175.320 15.920 25.578 o
12 5 2 674.342 705.988 25.698 4.805 o
12 5 3 3.437 2.559 7.750 194.397 o
12 5 4 5.022 -0.527 7.658 198.384 o
12 5 5 64.843 57.122 8.866 87.237 o
12 5 6 142.132 150.428 16.705 26.777 o
12 5 7 155.325 127.761 12.634 36.101 o
12 5 8 63.375 76.764 9.587 76.389 o
12 5 9 44.543 56.593 9.304 92.086 o
12 5 10 1.441 -3.957 8.432 169.354 o
12 6 0 25.091 24.785 10.441 93.043 o
12 6 1 248.075 246.380 27.418 10.837 o
12 6 2 199.363 204.236 20.881 17.113 o
12 6 3 39.265 43.608 9.073 101.719 o
12 6 4 93.663 87.452 10.425 59.129 o
12 6 5 42.430 40.309 8.682 106.986 o
12 6 6 210.806 213.892 15.619 22.518 o
12 6 7 110.846 104.998 10.895 50.813 o
12 6 8 63.730 65.837 9.507 79.138 o
12 6 9 0.081 -1.315 8.393 172.687 o
12 6 10 100.526 106.115 14.501 37.798 o
12 7 0 76.171 82.787 11.889 54.931 o
12 7 1 77.437 55.170 10.105 70.711 o
12 7 2 55.724 46.556 10.164 79.348 o
12 7 3 0.136 -2.047 8.988 150.544 o
12 7 4 19.417 27.418 15.071 49.435 o
12 7 5 170.796 137.072 18.158 22.985 o
12 7 6 94.254 115.646 18.339 27.250 o
12 7 7 30.633 47.573 15.797 43.106 o
12 7 8 53.952 50.776 10.379 77.008 o
12 7 9 87.687 76.787 10.946 58.742 o
12 7 10 80.990 68.451 10.459 64.857 o
12 8 0 108.751 114.919 16.523 30.692 o
12 8 1 4.963 1.997 12.347 78.186 o
12 8 2 0.435 -0.726 11.802 87.239 o
12 8 3 10.245 5.810 11.258 90.847 o
12 8 4 43.467 32.684 12.529 62.920 o
12 8 5 270.016 281.406 23.605 12.315 o
12 8 6 67.113 55.381 13.255 51.211 o
12 8 7 103.585 102.572 15.252 35.223 o
12 8 8 2.075 -6.285 8.887 151.983 o
12 8 9 49.740 44.682 10.469 78.693 o
12 9 0 90.725 94.038 16.887 31.811 o
12 9 1 21.795 9.442 13.981 57.813 o
12 9 2 51.245 57.559 14.526 46.485 o
12 9 3 4.642 -5.992 12.892 72.150 o
12 9 4 107.183 119.277 16.705 30.189 o
12 9 5 64.553 68.817 14.163 45.792 o
12 9 6 16.822 7.808 12.529 72.198 o
12 9 7 35.916 24.876 12.710 63.945 o
12 9 8 47.756 38.494 13.073 57.310 o
12 9 9 184.177 198.807 23.786 14.874 o
12 10 0 20.701 15.071 13.981 57.530 o
12 10 1 11.398 0.182 14.163 58.833 o
12 10 2 72.674 78.622 17.613 31.546 o
12 10 3 61.383 50.478 14.889 43.873 o
12 10 4 164.381 173.205 24.331 15.116 o
12 10 5 5.691 -16.523 11.621 88.124 o
12 10 6 6.567 10.531 13.073 68.607 o
12 10 7 12.699 -1.816 12.347 76.341 o
12 10 8 86.178 76.443 14.889 39.565 o
12 11 2 128.860 123.817 19.066 23.812 o
12 11 3 54.571 20.700 15.252 44.644 o
12 11 4 160.640 186.642 25.784 13.808 o
12 11 5 30.126 12.710 14.163 54.886 o
12 11 6 75.918 65.912 15.616 38.403 o
13 -1 0 130.746 136.164 21.971 19.059 o
13 0 0 59.644 75.172 19.429 27.580 o
13 0 1 11.271 3.813 15.979 46.356 o
13 0 2 65.780 80.075 19.973 25.921 o
13 0 3 92.810 87.156 19.066 26.474 o
13 1 0 0.384 -29.415 14.526 57.632 o
13 1 1 16.454 8.171 17.431 38.598 o
13 1 2 234.280 274.506 31.231 9.035 o
13 1 3 112.459 137.956 16.705 29.161 o
13 1 4 102.208 128.286 34.036 9.494 o
13 1 5 9.588 24.513 17.794 37.007 o
13 2 0 0.153 -2.625 9.797 126.725 o
13 2 1 92.717 102.560 16.878 31.380 o
13 2 2 265.945 328.590 19.688 14.322 o
13 2 3 62.380 100.401 34.853 9.430 o
13 2 4 5.301 10.707 8.881 143.689 o
13 2 5 5.249 35.744 22.334 23.782 o
13 2 6 32.383 43.480 23.514 20.788 o
13 3 0 0.790 9.605 10.981 98.466 o
13 3 1 139.821 110.925 19.429 22.976 o
13 3 2 385.834 450.642 22.245 9.435 o
13 3 3 71.821 81.575 10.469 65.530 o
13 3 4 25.120 37.008 9.101 112.134 o
13 3 5 3.302 16.459 13.073 68.673 o
13 3 6 0.793 21.310 8.829 144.510 o
13 4 0 20.262 23.474 17.068 39.301 o
13 4 1 52.853 49.537 11.061 71.003 o
13 4 2 217.467 233.026 17.449 19.538 o
13 4 3 39.403 45.886 10.010 87.930 o
13 4 4 0.002 6.307 8.989 147.541 o
13 4 5 32.634 34.986 10.895 81.878 o
13 4 6 108.442 104.461 11.149 50.167 o
13 4 7 52.011 34.644 9.669 89.097 o
13 5 0 40.520 25.784 17.431 36.227 o
13 5 1 87.062 89.974 12.487 48.996 o
13 5 2 2.648 4.070 14.241 59.282 o
13 5 3 48.335 65.738 14.163 48.245 o
13 5 4 19.009 15.777 9.416 117.096 o
13 5 5 73.120 66.072 10.685 65.756 o
13 5 6 60.708 40.848 9.908 81.239 o
13 5 7 79.387 51.182 15.343 39.857 o
13 6 0 286.171 279.522 21.819 13.068 o
13 6 1 15.006 16.727 10.851 92.959 o
13 6 2 0.158 4.091 10.072 118.612 o
13 6 3 19.141 9.785 10.315 101.459 o
13 6 4 111.283 104.206 12.072 45.654 o
13 6 5 289.734 252.654 20.190 14.366 o
13 6 6 92.570 96.344 17.695 29.456 o
13 6 7 133.622 118.260 14.116 34.879 o
13 7 0 63.700 57.418 12.164 58.487 o
13 7 1 91.846 97.442 13.284 44.028 o
13 7 2 35.395 24.478 23.151 21.571 o
13 7 3 3.254 -13.344 9.891 122.237 o
13 7 4 212.917 207.150 20.700 16.826 o
13 7 5 117.014 101.965 12.677 42.565 o
13 7 6 60.749 46.715 10.816 71.243 o
13 7 7 130.507 121.586 12.766 39.113 o
13 8 0 0.592 10.069 11.429 91.066 o
13 8 1 72.543 81.592 12.752 50.855 o
13 8 2 29.001 18.870 10.645 89.677 o
13 8 3 28.387 28.445 13.618 57.818 o
13 8 4 198.595 222.346 20.246 17.491 o
13 8 5 9.715 -4.358 10.164 112.063 o
13 8 6 26.771 19.558 19.610 29.997 o
13 8 7 6.241 12.375 10.753 99.385 o
13 9 2 5.306 0.726 13.981 61.307 o
13 9 3 100.606 102.027 18.521 26.872 o
13 9 4 40.326 41.944 15.434 44.148 o
13 9 5 15.854 -7.989 13.800 61.097 o
;
_olex2_submission_special_instructions 'No special instructions were received'
loop_
_space_group_symop_id
_space_group_symop_operation_xyz
1 x,y,z
2 -x,-y,-z
loop_
_atom_site_label
_atom_site_type_symbol
_atom_site_fract_x
_atom_site_fract_y
_atom_site_fract_z
_atom_site_U_iso_or_equiv
_atom_site_adp_type
_atom_site_occupancy
_atom_site_refinement_flags_posn
Zn1 Zn 1.41320(2) 0.43421(2) -0.090629(19) 0.02482(9) Uani 1.000000 .
O7 O 1.5927(3) 0.3409(3) -0.5910(3) 0.1052(10) Uani 1.000000 .
O1 O 1.55421(16) 0.51925(16) -0.16220(14) 0.0367(4) Uani 1.000000 .
O6 O 1.4001(4) 0.6391(5) -0.6154(3) 0.1485(16) Uani 1.000000 .
N4 N 1.5298(4) 0.0032(3) -0.3449(3) 0.0918(11) Uani 1.000000 .
O2 O 1.61758(16) 0.62118(15) -0.07193(13) 0.0355(4) Uani 1.000000 .
O4 O 1.63681(18) 0.55954(17) -0.75391(14) 0.0422(4) Uani 1.000000 .
O5 O 1.4247(5) -0.1326(4) -0.3519(4) 0.1558(18) Uani 1.000000 .
O3 O 1.75593(19) 0.64709(17) -0.88806(14) 0.0436(4) Uani 1.000000 .
C32 C 1.5252(6) -0.1019(4) -0.3476(5) 0.1154(18) Uani 1.000000 .
H32 H 1.6049(6) -0.1594(4) -0.3463(5) 0.138(2) Uiso 1.000000 R
N2 N 1.26265(18) 0.59753(16) -0.09406(15) 0.0298(4) Uani 1.000000 .
C33 C 1.6514(7) 0.0262(8) -0.3411(7) 0.191(4) Uani 1.000000 .
H33a H 1.7195(13) -0.027(5) -0.371(6) 0.286(5) Uiso 1.000000 GR
H33b H 1.648(3) 0.108(2) -0.383(5) 0.286(5) Uiso 1.000000 GR
H33c H 1.669(4) 0.014(7) -0.2673(9) 0.286(5) Uiso 1.000000 GR
N3 N 0.55789(19) 1.26297(18) -0.07158(16) 0.0350(4) Uani 1.000000 .
C31 C 1.4122(7) 0.0916(6) -0.3486(7) 0.187(3) Uani 1.000000 .
H31a H 1.396(4) 0.142(4) -0.4220(10) 0.281(5) Uiso 1.000000 GR
H31b H 1.3416(12) 0.0542(7) -0.322(6) 0.281(5) Uiso 1.000000 GR
H31c H 1.417(3) 0.140(4) -0.305(5) 0.281(5) Uiso 1.000000 GR
N1 N 2.00010(19) 0.68771(18) -0.48377(16) 0.0330(4) Uani 1.000000 .
C4 C 1.8187(2) 0.6201(2) -0.41598(17) 0.0269(4) Uani 1.000000 .
C13 C 1.7691(2) 0.6006(2) -0.59972(18) 0.0294(5) Uani 1.000000 .
H13 H 1.6968(2) 0.5697(2) -0.57480(18) 0.0353(6) Uiso 1.000000 R
C23 C 1.1455(2) 0.5913(2) -0.04293(19) 0.0316(5) Uani 1.000000 .
H23 H 1.1327(2) 0.5155(2) -0.00742(19) 0.0380(6) Uiso 1.000000 R
C3 C 1.7256(2) 0.5886(2) -0.33579(17) 0.0269(4) Uani 1.000000 .
H3 H 1.6618(2) 0.5562(2) -0.34850(17) 0.0323(5) Uiso 1.000000 R
C2 C 1.7293(2) 0.6062(2) -0.23609(17) 0.0283(5) Uani 1.000000 .
C1 C 1.6256(2) 0.57954(19) -0.15013(17) 0.0251(4) Uani 1.000000 .
C22 C 1.0445(2) 0.6899(2) -0.04013(19) 0.0314(5) Uani 1.000000 .
H22 H 0.9659(2) 0.6804(2) -0.00329(19) 0.0377(6) Uiso 1.000000 R
C7 C 1.8280(2) 0.6521(2) -0.21638(18) 0.0345(5) Uani 1.000000 .
H7 H 1.8278(2) 0.6648(2) -0.14982(18) 0.0414(6) Uiso 1.000000 R
C21 C 1.0613(2) 0.8054(2) -0.0937(2) 0.0347(5) Uani 1.000000 .
C5 C 1.9187(2) 0.6631(2) -0.39306(18) 0.0291(5) Uani 1.000000 .
C8 C 1.8383(2) 0.6237(2) -0.52867(17) 0.0272(4) Uani 1.000000 .
C14 C 1.7304(2) 0.6096(2) -0.78855(19) 0.0344(5) Uani 1.000000 .
C6 C 1.9255(2) 0.6790(2) -0.29297(19) 0.0362(5) Uani 1.000000 .
H6 H 1.9925(2) 0.7064(2) -0.27840(19) 0.0434(6) Uiso 1.000000 R
C9 C 1.9503(2) 0.6670(2) -0.56740(18) 0.0296(5) Uani 1.000000 .
C12 C 1.8091(2) 0.6241(2) -0.70877(18) 0.0321(5) Uani 1.000000 .
C19 C 1.2787(2) 0.7072(2) -0.1447(2) 0.0384(6) Uani 1.000000 .
H19 H 1.3586(2) 0.7138(2) -0.1803(2) 0.0461(7) Uiso 1.000000 R
C25 C 0.8440(3) 0.9270(2) -0.0451(2) 0.0441(6) Uani 1.000000 .
H25 H 0.8231(3) 0.8571(2) -0.0007(2) 0.0529(8) Uiso 1.000000 R
C24 C 0.9597(3) 0.9160(2) -0.0965(2) 0.0459(7) Uani 1.000000 .
H24 H 0.9786(3) 0.9873(2) -0.1396(2) 0.0551(8) Uiso 1.000000 R
C11 C 1.9228(3) 0.6642(2) -0.7438(2) 0.0402(6) Uani 1.000000 .
H11 H 1.9503(3) 0.6772(2) -0.8161(2) 0.0482(7) Uiso 1.000000 R
C16 C 2.0497(2) 0.8784(2) -0.4969(2) 0.0383(6) Uani 1.000000 .
C26 C 0.7462(2) 1.0425(2) -0.0535(2) 0.0413(6) Uani 1.000000 .
C28 C 0.5461(3) 1.1615(2) 0.0025(2) 0.0461(7) Uani 1.000000 .
H28 H 0.4732(3) 1.1648(2) 0.0496(2) 0.0553(8) Uiso 1.000000 R
C20 C 1.1820(3) 0.8111(2) -0.1464(2) 0.0435(6) Uani 1.000000 .
H20 H 1.1976(3) 0.8857(2) -0.1832(2) 0.0523(8) Uiso 1.000000 R
C15 C 2.1032(2) 0.7471(2) -0.4924(2) 0.0400(6) Uani 1.000000 .
H15a H 2.1590(2) 0.7052(2) -0.4307(2) 0.0480(7) Uiso 1.000000 R
H15b H 2.1569(2) 0.7420(2) -0.5572(2) 0.0480(7) Uiso 1.000000 R
C10 C 1.9951(2) 0.6849(2) -0.6745(2) 0.0398(6) Uani 1.000000 .
H10 H 2.0712(2) 0.7101(2) -0.6986(2) 0.0477(7) Uiso 1.000000 R
C27 C 0.6360(3) 1.0516(2) 0.0134(2) 0.0470(7) Uani 1.000000 .
H27 H 0.6220(3) 0.9832(2) 0.0663(2) 0.0564(8) Uiso 1.000000 R
C18 C 1.9438(3) 0.9525(3) -0.5586(3) 0.0588(8) Uani 1.000000 .
H18 H 1.9042(3) 0.9214(3) -0.5987(3) 0.0706(10) Uiso 1.000000 R
C17 C 2.1050(3) 0.9275(3) -0.4379(3) 0.0565(8) Uani 1.000000 .
H17 H 2.1760(3) 0.8795(3) -0.3951(3) 0.0678(9) Uiso 1.000000 R
C29 C 0.6633(3) 1.2544(3) -0.1363(3) 0.0689(11) Uani 1.000000 .
H29 H 0.6740(3) 1.3239(3) -0.1894(3) 0.0827(13) Uiso 1.000000 R
C30 C 0.7581(3) 1.1489(3) -0.1295(3) 0.0812(14) Uani 1.000000 .
H30 H 0.8311(3) 1.1489(3) -0.1765(3) 0.0974(17) Uiso 1.000000 R
loop_
_atom_site_aniso_label
_atom_site_aniso_U_11
_atom_site_aniso_U_22
_atom_site_aniso_U_33
_atom_site_aniso_U_12
_atom_site_aniso_U_13
_atom_site_aniso_U_23
Zn1 0.02416(14) 0.02816(15) 0.02250(14) -0.00340(10) 0.00252(9) -0.01235(10)
O7 0.089(2) 0.127(3) 0.092(2) -0.032(2) -0.0277(17) -0.0118(19)
O1 0.0335(9) 0.0460(10) 0.0370(10) -0.0173(8) 0.0115(7) -0.0195(8)
O6 0.109(3) 0.232(5) 0.134(3) -0.063(3) 0.023(2) -0.090(3)
N4 0.098(3) 0.064(2) 0.109(3) -0.025(2) -0.004(2) -0.0173(19)
O2 0.0422(9) 0.0394(9) 0.0246(8) -0.0079(8) 0.0051(7) -0.0137(7)
O4 0.0440(10) 0.0546(11) 0.0368(10) -0.0167(9) -0.0057(8) -0.0207(8)
O5 0.141(3) 0.144(4) 0.184(4) -0.092(3) -0.026(3) 0.004(3)
O3 0.0552(11) 0.0519(11) 0.0250(9) -0.0095(9) -0.0047(8) -0.0163(8)
C32 0.113(4) 0.067(3) 0.146(5) -0.028(3) -0.022(4) 0.006(3)
N2 0.0284(9) 0.0278(10) 0.0302(10) -0.0024(8) 0.0021(7) -0.0102(8)
C33 0.155(6) 0.216(9) 0.248(10) -0.100(7) -0.027(6) -0.082(7)
N3 0.0338(10) 0.0309(10) 0.0337(11) 0.0022(8) 0.0033(8) -0.0117(9)
C31 0.174(7) 0.131(6) 0.206(8) 0.042(5) 0.010(6) -0.060(5)
N1 0.0328(10) 0.0445(12) 0.0289(10) -0.0212(9) 0.0040(8) -0.0129(9)
C4 0.0281(11) 0.0309(11) 0.0243(11) -0.0102(9) 0.0002(8) -0.0102(9)
C13 0.0290(11) 0.0346(12) 0.0288(12) -0.0107(9) 0.0022(9) -0.0141(10)
C23 0.0317(11) 0.0285(11) 0.0320(12) -0.0055(9) 0.0042(9) -0.0094(9)
C3 0.0265(10) 0.0319(11) 0.0268(11) -0.0113(9) 0.0005(8) -0.0120(9)
C2 0.0280(11) 0.0330(12) 0.0246(11) -0.0087(9) 0.0016(8) -0.0098(9)
C1 0.0237(10) 0.0253(10) 0.0225(11) -0.0006(8) -0.0006(8) -0.0071(8)
C22 0.0263(11) 0.0356(12) 0.0309(12) -0.0042(9) 0.0035(9) -0.0130(10)
C7 0.0409(13) 0.0441(14) 0.0239(12) -0.0149(11) -0.0013(9) -0.0142(10)
C21 0.0310(12) 0.0321(12) 0.0388(14) -0.0012(10) -0.0005(10) -0.0141(10)
C5 0.0286(11) 0.0347(12) 0.0278(12) -0.0135(9) 0.0013(8) -0.0109(9)
C8 0.0276(11) 0.0313(11) 0.0250(11) -0.0094(9) 0.0025(8) -0.0115(9)
C14 0.0368(13) 0.0357(12) 0.0308(13) 0.0003(10) -0.0065(10) -0.0171(10)
C6 0.0369(13) 0.0502(15) 0.0314(13) -0.0231(11) -0.0017(10) -0.0152(11)
C9 0.0307(11) 0.0347(12) 0.0268(12) -0.0126(10) 0.0017(9) -0.0113(9)
C12 0.0367(12) 0.0358(12) 0.0256(12) -0.0075(10) -0.0013(9) -0.0134(10)
C19 0.0279(12) 0.0340(13) 0.0470(15) -0.0048(10) 0.0081(10) -0.0100(11)
C25 0.0433(14) 0.0305(13) 0.0478(16) 0.0021(11) 0.0049(12) -0.0102(11)
C24 0.0393(14) 0.0293(13) 0.0623(18) -0.0020(11) 0.0054(12) -0.0133(12)
C11 0.0478(14) 0.0520(15) 0.0238(12) -0.0188(12) 0.0084(10) -0.0141(11)
C16 0.0380(13) 0.0483(15) 0.0356(13) -0.0268(12) 0.0025(10) -0.0100(11)
C26 0.0369(13) 0.0346(13) 0.0435(15) 0.0006(11) 0.0051(11) -0.0109(11)
C28 0.0377(14) 0.0377(14) 0.0569(18) -0.0078(11) 0.0172(12) -0.0149(13)
C20 0.0387(14) 0.0291(12) 0.0558(17) -0.0085(11) 0.0070(12) -0.0068(11)
C15 0.0328(12) 0.0548(16) 0.0403(14) -0.0239(12) 0.0030(10) -0.0158(12)
C10 0.0377(13) 0.0560(16) 0.0330(13) -0.0255(12) 0.0108(10) -0.0160(12)
C27 0.0417(14) 0.0302(13) 0.0579(18) -0.0043(11) 0.0109(12) -0.0070(12)
C18 0.0631(19) 0.0585(19) 0.069(2) -0.0207(16) -0.0286(16) -0.0253(16)
C17 0.0564(18) 0.0559(18) 0.064(2) -0.0163(15) -0.0285(15) -0.0164(15)
C29 0.072(2) 0.0348(15) 0.063(2) 0.0087(14) 0.0386(17) 0.0007(14)
C30 0.071(2) 0.0393(16) 0.084(3) 0.0142(15) 0.052(2) 0.0030(16)
loop_
_atom_type_symbol
_atom_type_scat_dispersion_real
_atom_type_scat_dispersion_imag
_atom_type_scat_Cromer_Mann_a1
_atom_type_scat_Cromer_Mann_a2
_atom_type_scat_Cromer_Mann_a3
_atom_type_scat_Cromer_Mann_a4
_atom_type_scat_Cromer_Mann_b1
_atom_type_scat_Cromer_Mann_b2
_atom_type_scat_Cromer_Mann_b3
_atom_type_scat_Cromer_Mann_b4
_atom_type_scat_Cromer_Mann_c
_atom_type_scat_source
_atom_type_scat_dispersion_source
H 0.00000 0.00000 0.49300 0.32291 0.14019 0.04081 10.51090 26.12570 3.14236
57.79970 0.0030380000826
'International Tables Volume C Table 6.1.1.4 (pp. 500-502)'
'Henke, Gullikson and Davis, At. Data and Nucl. Data Tables, 1993, 54, 2'
C 0.00347 0.00161 2.31000 1.02000 1.58860 0.86500 20.84390 10.20750 0.56870
51.65120 0.215599998832
'International Tables Volume C Table 6.1.1.4 (pp. 500-502)'
'Henke, Gullikson and Davis, At. Data and Nucl. Data Tables, 1993, 54, 2'
Zn 0.31207 1.46666 14.07430 7.03180 5.16520 2.41000 3.26550 0.23330 10.31630
58.70970 1.30410003662
'International Tables Volume C Table 6.1.1.4 (pp. 500-502)'
'Henke, Gullikson and Davis, At. Data and Nucl. Data Tables, 1993, 54, 2'
O 0.01158 0.00611 3.04850 2.28680 1.54630 0.86700 13.27710 5.70110 0.32390
32.90890 0.250800013542
'International Tables Volume C Table 6.1.1.4 (pp. 500-502)'
'Henke, Gullikson and Davis, At. Data and Nucl. Data Tables, 1993, 54, 2'
N 0.00653 0.00323 12.21260 3.13220 2.01250 1.16630 0.00570 9.89330 28.99750
0.58260 -11.5290002823
'International Tables Volume C Table 6.1.1.4 (pp. 500-502)'
'Henke, Gullikson and Davis, At. Data and Nucl. Data Tables, 1993, 54, 2'
loop_
_geom_angle_atom_site_label_1
_geom_angle_atom_site_label_2
_geom_angle_atom_site_label_3
_geom_angle
_geom_angle_site_symmetry_1
_geom_angle_site_symmetry_3
_geom_angle_publ_flag
O2 Zn1 O1 122.75(7) 2_865 . ?
O4 Zn1 O1 89.39(7) 2_864 . ?
O4 Zn1 O2 147.79(7) 2_864 2_865 ?
O3 Zn1 O1 147.62(6) 2_864 . ?
O3 Zn1 O2 89.60(6) 2_864 2_865 ?
O3 Zn1 O4 58.23(6) 2_864 2_864 ?
N2 Zn1 O1 94.86(7) . . ?
N2 Zn1 O2 87.80(7) . 2_865 ?
N2 Zn1 O4 91.73(7) . 2_864 ?
N2 Zn1 O3 86.99(7) . 2_864 ?
N3 Zn1 O1 89.11(7) 1_645 . ?
N3 Zn1 O2 86.90(7) 1_645 2_865 ?
N3 Zn1 O4 92.06(7) 1_645 2_864 ?
N3 Zn1 O3 91.67(7) 1_645 2_864 ?
N3 Zn1 N2 174.54(7) 1_645 . ?
C1 O1 Zn1 144.47(15) . . ?
C33 N4 C32 120.3(5) . . ?
C31 N4 C32 118.1(5) . . ?
C31 N4 C33 121.6(6) . . ?
C1 O2 Zn1 137.54(15) . 2_865 ?
C14 O4 Zn1 95.51(14) . 2_864 ?
C14 O3 Zn1 85.36(15) . 2_864 ?
O5 C32 N4 126.3(6) . . ?
H32 C32 N4 116.9(3) . . ?
H32 C32 O5 116.9(4) . . ?
C23 N2 Zn1 119.85(15) . . ?
C19 N2 Zn1 123.21(15) . . ?
C19 N2 C23 116.95(19) . . ?
H33a C33 N4 109.5 . . ?
H33b C33 N4 109.5 . . ?
H33b C33 H33a 109.5 . . ?
H33c C33 N4 109.5 . . ?
H33c C33 H33a 109.5 . . ?
H33c C33 H33b 109.5 . . ?
C28 N3 Zn1 123.28(16) . 1_465 ?
C29 N3 Zn1 120.55(18) . 1_465 ?
C29 N3 C28 116.2(2) . . ?
H31a C31 N4 109.5 . . ?
H31b C31 N4 109.5 . . ?
H31b C31 H31a 109.5 . . ?
H31c C31 N4 109.5 . . ?
H31c C31 H31a 109.5 . . ?
H31c C31 H31b 109.5 . . ?
C9 N1 C5 108.29(18) . . ?
C15 N1 C5 123.80(19) . . ?
C15 N1 C9 126.89(19) . . ?
C5 C4 C3 119.5(2) . . ?
C8 C4 C3 134.0(2) . . ?
C8 C4 C5 106.40(19) . . ?
C8 C13 H13 120.24(13) . . ?
C12 C13 H13 120.24(13) . . ?
C12 C13 C8 119.5(2) . . ?
H23 C23 N2 117.98(13) . . ?
C22 C23 N2 124.0(2) . . ?
C22 C23 H23 117.98(14) . . ?
H3 C3 C4 120.51(12) . . ?
C2 C3 C4 119.0(2) . . ?
C2 C3 H3 120.51(13) . . ?
C1 C2 C3 120.19(19) . . ?
C7 C2 C3 120.2(2) . . ?
C7 C2 C1 119.54(19) . . ?
O2 C1 O1 125.6(2) . . ?
C2 C1 O1 117.61(19) . . ?
C2 C1 O2 116.79(19) . . ?
H22 C22 C23 120.49(14) . . ?
C21 C22 C23 119.0(2) . . ?
C21 C22 H22 120.49(13) . . ?
H7 C7 C2 119.00(13) . . ?
C6 C7 C2 122.0(2) . . ?
C6 C7 H7 119.00(13) . . ?
C24 C21 C22 123.4(2) . . ?
C20 C21 C22 116.7(2) . . ?
C20 C21 C24 119.9(2) . . ?
C4 C5 N1 109.52(19) . . ?
C6 C5 N1 128.2(2) . . ?
C6 C5 C4 122.3(2) . . ?
C13 C8 C4 134.1(2) . . ?
C9 C8 C4 106.47(18) . . ?
C9 C8 C13 119.4(2) . . ?
O3 C14 O4 120.8(2) . . ?
C12 C14 O4 119.0(2) . . ?
C12 C14 O3 120.2(2) . . ?
C5 C6 C7 116.9(2) . . ?
H6 C6 C7 121.55(13) . . ?
H6 C6 C5 121.55(13) . . ?
C8 C9 N1 109.24(19) . . ?
C10 C9 N1 129.0(2) . . ?
C10 C9 C8 121.7(2) . . ?
C14 C12 C13 120.6(2) . . ?
C11 C12 C13 119.5(2) . . ?
C11 C12 C14 119.9(2) . . ?
H19 C19 N2 118.58(13) . . ?
C20 C19 N2 122.8(2) . . ?
C20 C19 H19 118.58(14) . . ?
C24 C25 H25 117.91(16) . . ?
C26 C25 H25 117.91(15) . . ?
C26 C25 C24 124.2(3) . . ?
C25 C24 C21 127.7(3) . . ?
H24 C24 C21 116.17(15) . . ?
H24 C24 C25 116.17(16) . . ?
H11 C11 C12 118.95(13) . . ?
C10 C11 C12 122.1(2) . . ?
C10 C11 H11 118.95(14) . . ?
C18 C16 C15 121.7(2) . . ?
C17 C16 C15 120.7(2) . . ?
C17 C16 C18 117.6(3) . . ?
C27 C26 C25 122.0(2) . . ?
C30 C26 C25 122.5(2) . . ?
C30 C26 C27 115.5(2) . . ?
H28 C28 N3 118.16(13) . . ?
C27 C28 N3 123.7(2) . . ?
C27 C28 H28 118.16(16) . . ?
C19 C20 C21 120.5(2) . . ?
H20 C20 C21 119.76(15) . . ?
H20 C20 C19 119.76(14) . . ?
C16 C15 N1 112.5(2) . . ?
H15a C15 N1 109.09(14) . . ?
H15a C15 C16 109.09(14) . . ?
H15b C15 N1 109.09(13) . . ?
H15b C15 C16 109.09(13) . . ?
H15b C15 H15a 107.8 . . ?
C11 C10 C9 117.7(2) . . ?
H10 C10 C9 121.16(14) . . ?
H10 C10 C11 121.16(14) . . ?
C28 C27 C26 120.3(2) . . ?
H27 C27 C26 119.86(15) . . ?
H27 C27 C28 119.86(16) . . ?
H18 C18 C16 119.33(17) . . ?
C17 C18 C16 121.3(3) 2_974 . ?
C17 C18 H18 119.33(16) 2_974 . ?
C18 C17 C16 121.0(3) 2_974 . ?
H17 C17 C16 119.48(18) . . ?
H17 C17 C18 119.48(16) . 2_974 ?
H29 C29 N3 118.19(15) . . ?
C30 C29 N3 123.6(3) . . ?
C30 C29 H29 118.19(17) . . ?
C29 C30 C26 120.7(3) . . ?
H30 C30 C26 119.63(15) . . ?
H30 C30 C29 119.63(17) . . ?
loop_
_geom_bond_atom_site_label_1
_geom_bond_atom_site_label_2
_geom_bond_distance
_geom_bond_site_symmetry_2
_geom_bond_publ_flag
Zn1 O1 2.0280(16) . ?
Zn1 O2 2.0256(16) 2_865 ?
Zn1 O4 2.1330(17) 2_864 ?
Zn1 O3 2.3670(19) 2_864 ?
Zn1 N2 2.1565(18) . ?
Zn1 N3 2.1660(19) 1_645 ?
O1 C1 1.249(3) . ?
N4 C32 1.303(6) . ?
N4 C33 1.409(7) . ?
N4 C31 1.392(7) . ?
O2 C1 1.262(3) . ?
O4 C14 1.275(3) . ?
O5 C32 1.242(6) . ?
O3 C14 1.254(3) . ?
C32 H32 0.9300 . ?
N2 C23 1.350(3) . ?
N2 C19 1.333(3) . ?
C33 H33a 0.9600 . ?
C33 H33b 0.9600 . ?
C33 H33c 0.9600 . ?
N3 C28 1.327(3) . ?
N3 C29 1.320(3) . ?
C31 H31a 0.9600 . ?
C31 H31b 0.9600 . ?
C31 H31c 0.9600 . ?
N1 C5 1.383(3) . ?
N1 C9 1.389(3) . ?
N1 C15 1.451(3) . ?
C4 C3 1.389(3) . ?
C4 C5 1.410(3) . ?
C4 C8 1.449(3) . ?
C13 H13 0.9300 . ?
C13 C8 1.390(3) . ?
C13 C12 1.396(3) . ?
C23 H23 0.9300 . ?
C23 C22 1.369(3) . ?
C3 H3 0.9300 . ?
C3 C2 1.392(3) . ?
C2 C1 1.500(3) . ?
C2 C7 1.405(3) . ?
C22 H22 0.9300 . ?
C22 C21 1.404(3) . ?
C7 H7 0.9300 . ?
C7 C6 1.383(3) . ?
C21 C24 1.458(3) . ?
C21 C20 1.390(3) . ?
C5 C6 1.395(3) . ?
C8 C9 1.411(3) . ?
C14 C12 1.494(3) . ?
C6 H6 0.9300 . ?
C9 C10 1.390(3) . ?
C12 C11 1.403(3) . ?
C19 H19 0.9300 . ?
C19 C20 1.378(3) . ?
C25 H25 0.9300 . ?
C25 C24 1.321(4) . ?
C25 C26 1.469(3) . ?
C24 H24 0.9300 . ?
C11 H11 0.9300 . ?
C11 C10 1.379(4) . ?
C16 C15 1.516(4) . ?
C16 C18 1.381(4) . ?
C16 C17 1.379(4) . ?
C26 C27 1.374(4) . ?
C26 C30 1.382(4) . ?
C28 H28 0.9300 . ?
C28 C27 1.379(4) . ?
C20 H20 0.9300 . ?
C15 H15a 0.9700 . ?
C15 H15b 0.9700 . ?
C10 H10 0.9300 . ?
C27 H27 0.9300 . ?
C18 H18 0.9300 . ?
C18 C17 1.390(4) 2_974 ?
C17 H17 0.9300 . ?
C29 H29 0.9300 . ?
C29 C30 1.371(4) . ?
C30 H30 0.9300 . ?
