#------------------------------------------------------------------------------
#$Date: 2020-07-06 05:53:27 +0300 (Mon, 06 Jul 2020) $
#$Revision: 253855 $
#$URL: file:///home/coder/svn-repositories/cod/cif/7/70/44/7704477.cif $
#------------------------------------------------------------------------------
#
# This file is available in the Crystallography Open Database (COD),
# http://www.crystallography.net/
#
# All data on this site have been placed in the public domain by the
# contributors.
#
data_7704477
loop_
_publ_author_name
'Karmakar, Anirban'
'Soliman, Mohamed M. A.'
'R\'ubio, Guilherme M D M'
'Guedes da Silva, M F\'atima C'
'Pombeiro, Armando J. L.'
_publ_section_title
;
 Synthesis and catalytic activities of a Zn(ii) based metallomacrocycle
 and a metal-organic framework towards one-pot deacetalization-Knoevenagel
 tandem reactions under different strategies: a comparative study.
;
_journal_issue                   24
_journal_name_full
'Dalton transactions (Cambridge, England : 2003)'
_journal_page_first              8075
_journal_page_last               8085
_journal_paper_doi               10.1039/d0dt01312a
_journal_volume                  49
_journal_year                    2020
_chemical_formula_sum            'C60 H84 N12 O26 Zn2'
_chemical_formula_weight         1520.13
_space_group_crystal_system      triclinic
_space_group_IT_number           2
_space_group_name_Hall           '-P 1'
_space_group_name_H-M_alt        'P -1'
_atom_sites_solution_hydrogens   mixed
_audit_creation_method           SHELXL-2014/6
_audit_update_record
;
2020-02-13 deposited with the CCDC.	2020-05-20 downloaded from the CCDC.
;
_cell_angle_alpha                81.687(3)
_cell_angle_beta                 89.129(2)
_cell_angle_gamma                85.846(3)
_cell_formula_units_Z            1
_cell_length_a                   7.0336(6)
_cell_length_b                   16.5823(15)
_cell_length_c                   18.4251(15)
_cell_measurement_reflns_used    9130
_cell_measurement_temperature    296(2)
_cell_measurement_theta_max      26.40
_cell_measurement_theta_min      2.58
_cell_volume                     2120.8(3)
_computing_cell_refinement       'Bruker SAINT'
_computing_data_collection       'Bruker APEX2'
_computing_data_reduction        'Bruker SAINT'
_computing_molecular_graphics    'Mercury CSD 3.5.1, 2008'
_computing_publication_material  'WinGX publication routines (Farrugia, 1999)'
_computing_structure_refinement  'SHELXL-2014/6 (Sheldrick, 2014)'
_computing_structure_solution    'SIR97 (Giacovazzo et al, 1999)'
_diffrn_ambient_temperature      296(2)
_diffrn_measured_fraction_theta_full 0.990
_diffrn_measured_fraction_theta_max 0.981
_diffrn_measurement_device_type  'Bruker APEX-II CCD'
_diffrn_measurement_method       '\f and \w scans'
_diffrn_radiation_type           MoK\a
_diffrn_radiation_wavelength     0.71073
_diffrn_reflns_av_R_equivalents  0.0466
_diffrn_reflns_av_unetI/netI     0.0409
_diffrn_reflns_Laue_measured_fraction_full 0.990
_diffrn_reflns_Laue_measured_fraction_max 0.981
_diffrn_reflns_limit_h_max       8
_diffrn_reflns_limit_h_min       -8
_diffrn_reflns_limit_k_max       20
_diffrn_reflns_limit_k_min       -19
_diffrn_reflns_limit_l_max       22
_diffrn_reflns_limit_l_min       -22
_diffrn_reflns_number            30461
_diffrn_reflns_point_group_measured_fraction_full 0.990
_diffrn_reflns_point_group_measured_fraction_max 0.981
_diffrn_reflns_theta_full        25.242
_diffrn_reflns_theta_max         25.499
_diffrn_reflns_theta_min         2.234
_diffrn_source                   'fine-focus sealed tube'
_exptl_absorpt_coefficient_mu    0.639
_exptl_absorpt_correction_T_max  0.9
_exptl_absorpt_correction_T_min  0.8
_exptl_absorpt_correction_type   multi-scan
_exptl_absorpt_process_details   SADABS
_exptl_crystal_colour            colourless
_exptl_crystal_density_diffrn    1.190
_exptl_crystal_description       plate
_exptl_crystal_F_000             796
_exptl_crystal_size_max          0.310
_exptl_crystal_size_mid          0.230
_exptl_crystal_size_min          0.110
_refine_diff_density_max         2.363
_refine_diff_density_min         -0.991
_refine_diff_density_rms         0.124
_refine_ls_extinction_method     none
_refine_ls_goodness_of_fit_ref   1.049
_refine_ls_hydrogen_treatment    mixed
_refine_ls_matrix_type           full
_refine_ls_number_parameters     495
_refine_ls_number_reflns         7766
_refine_ls_number_restraints     28
_refine_ls_restrained_S_all      1.056
_refine_ls_R_factor_all          0.0908
_refine_ls_R_factor_gt           0.0799
_refine_ls_shift/su_max          0.000
_refine_ls_shift/su_mean         0.000
_refine_ls_structure_factor_coef Fsqd
_refine_ls_weighting_details
'w=1/[\s^2^(Fo^2^)+(0.0895P)^2^+14.2005P] where P=(Fo^2^+2Fc^2^)/3'
_refine_ls_weighting_scheme      calc
_refine_ls_wR_factor_gt          0.2076
_refine_ls_wR_factor_ref         0.2149
_reflns_Friedel_coverage         0.000
_reflns_number_gt                6642
_reflns_number_total             7766
_reflns_threshold_expression     'I > 2\s(I)'
_cod_data_source_file            d0dt01312a2.cif
_cod_data_source_block           1
_cod_depositor_comments
'Adding full bibliography for 7704477--7704478.cif.'
_cod_database_code               7704477
_shelx_space_group_comment
;
The symmetry employed for this shelxl refinement is uniquely defined
by the following loop, which should always be used as a source of
symmetry information in preference to the above space-group names.
They are only intended as comments.
;
_shelx_estimated_absorpt_t_min   0.827
_shelx_estimated_absorpt_t_max   0.933
_shelxl_version_number           2014/6
_shelx_res_file
;
TITL AK_4AZn_P1_a.res in P-1
CELL  0.71073   7.0336  16.5823  18.4251   81.687   89.129   85.846
ZERR     1.00   0.0006   0.0015   0.0015    0.003    0.002    0.003
LATT   1
SFAC  C    H    N    O    ZN
UNIT  60 84 12 26 2
MERG   2
ABIN
ISOR     0.0050 C24 C23
DFIX     0.900   0.020 H11A O11
DFIX     0.900   0.020 O11 H11B
ISOR    0.01  0.20  C22
DFIX     0.900   0.020 H10B O10
DFIX     0.900   0.020 H10A O10
DFIX     0.900   0.020 O13 H13B
DFIX     0.900   0.020 O13 H13A
DANG     1.400   0.040 H13B H13A
DFIX     0.900   0.020 O12 H12B
DFIX     0.900   0.020 O12 H12A
HTAB C6 O3
HTAB C20 O9
HTAB C4 O9
HTAB C16 O4
EQIV $1 -x+1, -y+1, -z
HTAB C25 O3_$1
EQIV $2 -x+1, -y, -z
HTAB O12 O2_$2
EQIV $3 x-1, y, z
HTAB O12 O8_$3
HTAB N1 O9
HTAB N3 O9
EQIV $4 x+1, y, z
HTAB O11 O6_$4
HTAB O11 O10
HTAB O10 O6
EQIV $5 x, y, z+1
HTAB O10 O7_$5
HTAB O13 O2_$2
EQIV $6 -x+2, -y, -z+1
HTAB O13 O11_$6
DANG     1.400   0.040 H12B H12A
FMAP   2
PLAN   40
SIZE     0.110   0.230   0.310
ACTA
BOND   $H
L.S.  40
TEMP    23.00
WGHT    0.089500   14.200500
FVAR       0.60914
ZN01  5    0.519181   -0.086583    0.133544    11.00000    0.02564    0.01610 =
         0.01256   -0.00241   -0.00114    0.00013
O5    4    0.467003    0.165544    0.776051    11.00000    0.04362    0.02496 =
         0.01664    0.00229   -0.00012    0.00311
O1    4    0.493990    0.012879    0.180334    11.00000    0.05010    0.01598 =
         0.01721   -0.00474   -0.00250    0.00013
O2    4    0.487741    0.080952    0.066564    11.00000    0.03035    0.02214 =
         0.01544   -0.00648   -0.00133   -0.00076
O4    4    0.175317    0.557074    0.521728    11.00000    0.03941    0.02100 =
         0.02366   -0.01018   -0.00072    0.00273
O9    4    0.523842    0.325022    0.401557    11.00000    0.02755    0.04305 =
         0.02068   -0.00959   -0.00256    0.00516
O3    4    0.196927    0.459018    0.166141    11.00000    0.04079    0.03156 =
         0.01763   -0.00429   -0.00449    0.00781
O6    4    0.379500    0.271785    0.834071    11.00000    0.03523    0.03671 =
         0.01752   -0.00801    0.00101   -0.00462
O12   4    0.285991   -0.095843    0.074055    11.00000    0.04044    0.03847 =
         0.03452   -0.00196   -0.00239   -0.00241
O13   4    0.749510   -0.088077    0.068131    11.00000    0.03979    0.04744 =
         0.03184   -0.00020   -0.00359    0.00425
N2    3    0.247621    0.483114    0.352023    11.00000    0.01871    0.01594 =
         0.01649   -0.00173    0.00064   -0.00015
N3    3    0.311491    0.434320    0.495663    11.00000    0.02413    0.01471 =
         0.01885   -0.00449   -0.00182    0.00372
O7    4    0.650046    0.406536    0.021543    11.00000    0.04554    0.03479 =
         0.02813   -0.00954    0.00207   -0.00950
O8    4    0.996982    0.046438    0.089606    11.00000    0.03795    0.03175 =
         0.07593   -0.01819    0.00331   -0.00212
N1    3    0.346790    0.373260    0.260033    11.00000    0.02657    0.01753 =
         0.01714   -0.00530   -0.00120    0.00134
N4    3    0.944377    0.165671    0.136930    11.00000    0.02832    0.04033 =
         0.03154   -0.00765   -0.00539   -0.00316
N5    3    0.760234    0.518100    0.059858    11.00000    0.02664    0.02960 =
         0.03016   -0.00770   -0.00015   -0.00421
C9    1    0.226659    0.508085    0.279995    11.00000    0.01958    0.01932 =
         0.01939    0.00020   -0.00015    0.00013
C18   1    0.385219    0.292155    0.704100    11.00000    0.01802    0.02326 =
         0.01624   -0.00340    0.00044   -0.00247
C2    1    0.448266    0.156559    0.166497    11.00000    0.02108    0.01902 =
         0.01477   -0.00698    0.00223   -0.00305
C5    1    0.382237    0.301975    0.226634    11.00000    0.01918    0.02168 =
         0.01761   -0.00627    0.00043   -0.00281
C15   1    0.333444    0.389858    0.566942    11.00000    0.01907    0.01793 =
         0.01558   -0.00156   -0.00059   -0.00175
C8    1    0.255765    0.444467    0.229729    11.00000    0.02078    0.02069 =
         0.01663   -0.00069   -0.00087   -0.00116
C13   1    0.214746    0.539088    0.397140    11.00000    0.01765    0.01854 =
         0.01963   -0.00324   -0.00137   -0.00229
C1    1    0.478523    0.079272    0.134506    11.00000    0.01695    0.02345 =
         0.01709   -0.00698   -0.00377   -0.00349
C7    1    0.428429    0.231564    0.122096    11.00000    0.02415    0.02519 =
         0.01129   -0.00475   -0.00024   -0.00565
AFIX  43
H7    2    0.437378    0.233243    0.071496    11.00000   -1.20000
AFIX   0
C10   1    0.176364    0.588444    0.250739    11.00000    0.02992    0.02505 =
         0.01969    0.00111   -0.00129   -0.00199
AFIX  43
H10   2    0.163539    0.603421    0.200336    11.00000   -1.20000
AFIX   0
C17   1    0.345541    0.375501    0.698434    11.00000    0.02512    0.02328 =
         0.01440   -0.00674   -0.00028   -0.00328
AFIX  43
H17   2    0.335621    0.399511    0.741058    11.00000   -1.20000
AFIX   0
C6    1    0.395996    0.303436    0.150450    11.00000    0.02938    0.01992 =
         0.01588   -0.00001    0.00280   -0.00148
AFIX  43
H6    2    0.383196    0.352890    0.119294    11.00000   -1.20000
AFIX   0
C14   1    0.230918    0.511633    0.478313    11.00000    0.01709    0.01646 =
         0.02095   -0.00422   -0.00139   -0.00031
C20   1    0.373909    0.305290    0.571750    11.00000    0.03363    0.01986 =
         0.01639   -0.00454    0.00095   -0.00241
AFIX  43
H20   2    0.382087    0.281083    0.529215    11.00000   -1.20000
AFIX   0
C3    1    0.441137    0.155761    0.243126    11.00000    0.03148    0.01594 =
         0.01436   -0.00041   -0.00027   -0.00015
AFIX  43
H3    2    0.459838    0.106404    0.274125    11.00000   -1.20000
AFIX   0
C12   1    0.162668    0.620538    0.372042    11.00000    0.02456    0.02116 =
         0.02466   -0.00483    0.00012    0.00217
AFIX  43
H12   2    0.139392    0.657890    0.404790    11.00000   -1.20000
AFIX   0
C4    1    0.406865    0.227090    0.272583    11.00000    0.03234    0.02278 =
         0.01058   -0.00155    0.00116   -0.00180
AFIX  43
H4    2    0.400037    0.225541    0.323208    11.00000   -1.20000
AFIX   0
C19   1    0.401588    0.257862    0.638743    11.00000    0.03701    0.01780 =
         0.02011   -0.00500   -0.00165   -0.00151
AFIX  43
H19   2    0.431715    0.202030    0.640873    11.00000   -1.20000
AFIX   0
C21   1    0.411938    0.240846    0.777154    11.00000    0.02895    0.02464 =
         0.01876   -0.00098    0.00090   -0.00568
C11   1    0.146084    0.645032    0.297063    11.00000    0.03358    0.01540 =
         0.02834    0.00206   -0.00235    0.00288
AFIX  43
H11   2    0.114627    0.699512    0.278649    11.00000   -1.20000
AFIX   0
C16   1    0.319823    0.424926    0.630899    11.00000    0.02657    0.02098 =
         0.02155   -0.00706   -0.00381    0.00354
AFIX  43
H16   2    0.293721    0.481005    0.628757    11.00000   -1.20000
AFIX   0
C25   1    0.722645    0.472717    0.008481    11.00000    0.02830    0.02887 =
         0.02331   -0.00453   -0.00006    0.00116
AFIX  43
H25   2    0.752790    0.491975   -0.039950    11.00000   -1.20000
AFIX   0
N6    3    0.839933    0.298906    0.388561    11.00000    0.03096    0.09623 =
         0.09295   -0.06947   -0.00363    0.00345
C28   1    0.679798    0.299368    0.419909    11.00000    0.03106    0.06201 =
         0.05707   -0.03992   -0.01013    0.01057
AFIX  43
H28   2    0.685163    0.273861    0.468299    11.00000   -1.20000
AFIX   0
C26   1    0.709399    0.492676    0.136364    11.00000    0.04633    0.06901 =
         0.02897   -0.02106    0.00363   -0.01340
AFIX 137
H26A  2    0.814766    0.498697    0.167185    11.00000   -1.50000
H26B  2    0.679433    0.436509    0.142930    11.00000   -1.50000
H26C  2    0.600539    0.526088    0.149334    11.00000   -1.50000
AFIX   0
C27   1    0.832295    0.598611    0.040098    11.00000    0.03647    0.02956 =
         0.07106   -0.01527    0.00242   -0.00155
AFIX 137
H27A  2    0.951902    0.600229    0.064075    11.00000   -1.50000
H27B  2    0.742333    0.639317    0.055280    11.00000   -1.50000
H27C  2    0.850121    0.609323   -0.012076    11.00000   -1.50000
AFIX   0
C29   1    1.022906    0.272738    0.418461    11.00000    0.03416    0.11942 =
         0.09306   -0.04142   -0.01104    0.01160
AFIX 137
H29A  2    1.082372    0.232049    0.391735    11.00000   -1.50000
H29B  2    1.009700    0.249933    0.469069    11.00000   -1.50000
H29C  2    1.100248    0.318555    0.414776    11.00000   -1.50000
AFIX   0
C24   1    0.927625    0.218084    0.070191    11.00000    0.08536    0.11358 =
         0.10890    0.02941   -0.01294   -0.01316
AFIX 137
H24A  2    1.040731    0.210902    0.041329    11.00000   -1.50000
H24B  2    0.911613    0.273668    0.079488    11.00000   -1.50000
H24C  2    0.819048    0.205605    0.044015    11.00000   -1.50000
AFIX   0
C22   1    0.978806    0.083479    0.134586    11.00000    0.05041    0.09105 =
         0.11949   -0.01786    0.00189   -0.00026
AFIX  43
H22   2    0.988924    0.052512    0.180834    11.00000   -1.20000
AFIX   0
C30   1    0.847139    0.354731    0.313836    11.00000    0.06899    0.09405 =
         0.08031   -0.02096    0.03175   -0.02510
AFIX 137
H30A  2    0.930983    0.328975    0.281083    11.00000   -1.50000
H30B  2    0.893391    0.406127    0.320787    11.00000   -1.50000
H30C  2    0.721516    0.363746    0.293249    11.00000   -1.50000
AFIX   0
C23   1    0.931637    0.188945    0.203559    11.00000    0.06571    0.17065 =
         0.08815   -0.05472   -0.00234   -0.01738
AFIX 137
H23A  2    0.811277    0.218931    0.208433    11.00000   -1.50000
H23B  2    1.033155    0.223047    0.209664    11.00000   -1.50000
H23C  2    0.941345    0.141545    0.240352    11.00000   -1.50000
AFIX   0
O10   4    0.682879    0.301881    0.919718    11.00000    0.02933    0.06171 =
         0.05464   -0.03334   -0.00541    0.00217
O11   4    1.000543    0.231619    0.868795    11.00000    0.03376    0.02265 =
         0.06462   -0.00278    0.00524    0.00167
H12A  2    0.187411   -0.056853    0.076551    11.00000   -1.50000
H12B  2    0.325922   -0.081867    0.026385    11.00000   -1.50000
H1N   2    0.397540    0.363639    0.309117    11.00000    0.02528
H3N   2    0.353010    0.408041    0.461243    11.00000    0.02391
H11B  2    1.097504    0.264379    0.863366    11.00000    0.06303
H11A  2    0.899321    0.262984    0.881559    11.00000    0.05914
H10B  2    0.563771    0.294416    0.906103    11.00000    0.07220
H10A  2    0.674488    0.344470    0.944839    11.00000    0.09146
H13A  2    0.715161   -0.086164    0.020438    11.00000    0.02784
H13B  2    0.877190   -0.096153    0.070021    11.00000    0.31258
HKLF    4

REM  AK_4AZn_P1_a.res in P-1
REM R1 =  0.0799 for    6642 Fo > 4sig(Fo)  and  0.0908 for all    7766 data
REM    495 parameters refined using     28 restraints

END

WGHT      0.0944     13.7115

REM Highest difference peak  2.363,  deepest hole -0.991,  1-sigma level  0.124
Q1    1   0.9702  0.1240  0.0850  11.00000  0.05    2.36
Q2    1   0.1834 -0.0854  0.1344  11.00000  0.05    2.05
Q3    1   0.9042  0.2596  0.1197  11.00000  0.05    1.89
Q4    1   0.8415 -0.0859  0.1288  11.00000  0.05    1.84
Q5    1   0.9456  0.1306  0.2155  11.00000  0.05    1.21
Q6    1   0.8219  0.2552  0.4332  11.00000  0.05    1.15
Q7    1   0.1958 -0.1416  0.0960  11.00000  0.05    0.71
Q8    1  -0.0145  0.5597  0.5150  11.00000  0.05    0.70
Q9    1   0.5266  0.2631  0.8390  11.00000  0.05    0.63
Q10   1   0.3505  0.3275  0.4089  11.00000  0.05    0.63
Q11   1   0.5815  0.4821 -0.0606  11.00000  0.05    0.56
Q12   1   0.5307  0.4372  0.4941  11.00000  0.05    0.53
Q13   1   0.8332 -0.0335  0.0699  11.00000  0.05    0.52
Q14   1   0.3873  0.5192  0.6468  11.00000  0.05    0.51
Q15   1   0.1423  0.5775  0.3799  11.00000  0.05    0.51
Q16   1   0.5815  0.4404  0.2310  11.00000  0.05    0.51
Q17   1   0.8379 -0.1444  0.0889  11.00000  0.05    0.50
Q18   1   0.0565  0.4621  0.6051  11.00000  0.05    0.50
Q19   1   0.2848  0.2246  0.8677  11.00000  0.05    0.49
Q20   1   1.0439  0.2809  0.1330  11.00000  0.05    0.48
Q21   1   0.9363  0.4833  0.3529  11.00000  0.05    0.48
Q22   1   0.7907  0.3219  0.3885  11.00000  0.05    0.47
Q23   1   1.0452 -0.0958  0.0722  11.00000  0.05    0.47
Q24   1   0.9343  0.4407  0.2262  11.00000  0.05    0.46
Q25   1   0.4388 -0.0833  0.0825  11.00000  0.05    0.46
Q26   1   0.9264  0.2159  0.1963  11.00000  0.05    0.45
Q27   1   0.8197  0.1573  0.2492  11.00000  0.05    0.45
Q28   1   0.6665  0.0510  0.0862  11.00000  0.05    0.44
Q29   1   0.7793  0.5967 -0.0288  11.00000  0.05    0.44
Q30   1   0.9375  0.4570  0.1631  11.00000  0.05    0.43
Q31   1   0.8525  0.0180  0.1749  11.00000  0.05    0.43
Q32   1   0.5757  0.4599  0.1603  11.00000  0.05    0.43
Q33   1   0.7444  0.2835  0.1416  11.00000  0.05    0.42
Q34   1   0.0831  0.4834  0.5217  11.00000  0.05    0.42
Q35   1   0.7918  0.2927  0.1470  11.00000  0.05    0.42
Q36   1   0.5080  0.3809  0.2656  11.00000  0.05    0.42
Q37   1   0.9758  0.2069  0.4394  11.00000  0.05    0.41
Q38   1   0.5791  0.2558  0.7682  11.00000  0.05    0.41
Q39   1   0.8210  0.0804  0.0605  11.00000  0.05    0.40
Q40   1   0.5365  0.4159  0.6322  11.00000  0.05    0.40
;
_shelx_res_checksum              19298
_shelx_fab_file
;
    1    0    0     26.65      0.00
    2    0    0      8.06      0.00
    4    0    0      0.52      0.00
    5    0    0      2.88      0.00
    6    0    0      3.08      0.00
    7    0    0     -0.01      0.00
    8    0    0      0.15      0.00
   -8    1    0      0.36      0.00
   -7    1    0     -0.81      0.00
   -5    1    0      1.83      0.00
   -4    1    0     -1.00      0.00
   -2    1    0     -3.79      0.00
   -1    1    0     11.82      0.00
    1    1    0     27.32      0.00
    3    1    0     -0.65      0.00
    4    1    0      2.80      0.00
    5    1    0      3.21      0.00
    6    1    0      3.14      0.00
    7    1    0      0.39      0.00
    8    1    0      0.02      0.00
   -8    2    0      0.55      0.00
   -7    2    0     -1.09      0.00
   -6    2    0     -1.05      0.00
   -5    2    0      0.83      0.00
   -4    2    0     -1.33      0.00
   -3    2    0     -4.71      0.00
   -2    2    0    -11.54      0.00
   -1    2    0     -1.99      0.00
    0    2    0     51.18      0.00
    1    2    0     12.61      0.00
    2    2    0      7.77      0.00
    3    2    0      0.36      0.00
    4    2    0      4.47      0.00
    5    2    0      3.15      0.00
    6    2    0      2.05      0.00
    7    2    0      0.23      0.00
    8    2    0      0.01      0.00
   -8    3    0      0.54      0.00
   -7    3    0     -0.57      0.00
   -6    3    0     -1.73      0.00
   -5    3    0      0.56      0.00
   -4    3    0     -1.44      0.00
   -3    3    0     -3.30      0.00
   -2    3    0    -12.37      0.00
   -1    3    0     -5.13      0.00
    0    3    0     11.08      0.00
    1    3    0     -3.31      0.00
    2    3    0     -6.39      0.00
    3    3    0     -1.58      0.00
    4    3    0      4.10      0.00
    5    3    0      3.08      0.00
    6    3    0      1.39      0.00
    7    3    0      0.16      0.00
    8    3    0      0.02      0.00
   -8    4    0      0.19      0.00
   -7    4    0      0.04      0.00
   -6    4    0     -1.09      0.00
   -5    4    0      0.71      0.00
   -4    4    0     -2.36      0.00
   -3    4    0     -2.69      0.00
   -2    4    0     -9.78      0.00
   -1    4    0     -1.77      0.00
    0    4    0     -4.45      0.00
    1    4    0     -8.86      0.00
    2    4    0    -17.54      0.00
    3    4    0     -5.52      0.00
    4    4    0      1.60      0.00
    5    4    0      2.58      0.00
    6    4    0      1.16      0.00
    7    4    0      0.29      0.00
    8    4    0     -0.10      0.00
   -8    5    0     -0.24      0.00
   -7    5    0      0.29      0.00
   -6    5    0     -0.30      0.00
   -5    5    0      0.90      0.00
   -4    5    0     -3.24      0.00
   -3    5    0     -3.49      0.00
   -2    5    0     -6.61      0.00
   -1    5    0      0.50      0.00
    0    5    0     -4.32      0.00
    1    5    0     -5.35      0.00
    2    5    0    -19.44      0.00
    4    5    0     -1.22      0.00
    5    5    0      1.71      0.00
    6    5    0      0.61      0.00
    7    5    0      0.18      0.00
    8    5    0     -0.24      0.00
   -7    6    0      0.51      0.00
   -6    6    0      0.08      0.00
   -5    6    0      1.05      0.00
   -4    6    0     -2.68      0.00
   -3    6    0     -3.85      0.00
   -2    6    0     -2.90      0.00
   -1    6    0     -0.27      0.00
    0    6    0     -1.16      0.00
    1    6    0     -0.15      0.00
    2    6    0    -13.76      0.00
    4    6    0     -2.57      0.00
    5    6    0      1.19      0.00
    6    6    0      0.12      0.00
    7    6    0     -0.08      0.00
    8    6    0     -0.17      0.00
   -7    7    0      0.89      0.00
   -6    7    0      0.15      0.00
   -5    7    0      0.81      0.00
   -4    7    0     -1.45      0.00
   -3    7    0     -2.31      0.00
   -2    7    0      1.22      0.00
   -1    7    0     -2.09      0.00
    0    7    0     -0.31      0.00
    1    7    0      1.75      0.00
    2    7    0     -5.93      0.00
    3    7    0     -4.16      0.00
    4    7    0     -2.51      0.00
    5    7    0      1.02      0.00
    6    7    0      0.18      0.00
    7    7    0     -0.04      0.00
    8    7    0      0.14      0.00
   -7    8    0      1.07      0.00
   -6    8    0     -0.11      0.00
   -5    8    0      0.00      0.00
   -4    8    0     -1.43      0.00
   -3    8    0     -0.25      0.00
   -2    8    0      4.22      0.00
   -1    8    0     -2.65      0.00
    0    8    0     -1.75      0.00
    1    8    0     -0.33      0.00
    2    8    0     -0.53      0.00
    3    8    0     -0.72      0.00
    4    8    0     -2.04      0.00
    5    8    0      0.60      0.00
    6    8    0      0.25      0.00
    7    8    0      0.07      0.00
   -7    9    0      0.81      0.00
   -6    9    0     -0.60      0.00
   -5    9    0     -0.88      0.00
   -4    9    0     -2.42      0.00
   -3    9    0      0.30      0.00
   -2    9    0      4.79      0.00
   -1    9    0     -1.04      0.00
    0    9    0     -3.25      0.00
    1    9    0     -3.55      0.00
    2    9    0      1.04      0.00
    3    9    0      1.04      0.00
    4    9    0     -1.63      0.00
    5    9    0      0.00      0.00
    6    9    0     -0.13      0.00
    7    9    0     -0.36      0.00
   -7   10    0      0.49      0.00
   -6   10    0     -0.80      0.00
   -5   10    0     -1.23      0.00
   -4   10    0     -2.82      0.00
   -3   10    0     -0.45      0.00
   -2   10    0      3.23      0.00
   -1   10    0      0.96      0.00
    0   10    0     -2.93      0.00
    1   10    0     -4.25      0.00
    2   10    0      0.40      0.00
    3   10    0      1.49      0.00
    4   10    0     -1.46      0.00
    5   10    0     -0.59      0.00
    6   10    0     -0.60      0.00
    7   10    0     -1.09      0.00
   -6   11    0     -0.24      0.00
   -5   11    0     -0.97      0.00
   -4   11    0     -2.36      0.00
   -3   11    0     -0.96      0.00
   -2   11    0      1.24      0.00
   -1   11    0      0.67      0.00
    0   11    0     -1.64      0.00
    1   11    0     -2.14      0.00
    2   11    0     -0.20      0.00
    3   11    0      1.57      0.00
    4   11    0     -1.55      0.00
    5   11    0     -1.45      0.00
    6   11    0     -0.93      0.00
    7   11    0     -1.34      0.00
   -6   12    0      0.60      0.00
   -5   12    0     -0.30      0.00
   -4   12    0     -1.83      0.00
   -3   12    0     -0.86      0.00
   -2   12    0      0.35      0.00
   -1   12    0     -1.37      0.00
    0   12    0     -1.25      0.00
    1   12    0     -0.06      0.00
    2   12    0      0.11      0.00
    3   12    0      1.46      0.00
    4   12    0     -1.40      0.00
    5   12    0     -2.26      0.00
    6   12    0     -1.15      0.00
    7   12    0     -1.02      0.00
   -5   13    0      0.41      0.00
   -4   13    0     -1.38      0.00
   -3   13    0     -1.03      0.00
   -2   13    0      0.50      0.00
   -1   13    0     -2.16      0.00
    0   13    0     -1.60      0.00
    1   13    0      0.37      0.00
    2   13    0      0.86      0.00
    3   13    0      1.03      0.00
    4   13    0     -0.81      0.00
    5   13    0     -2.11      0.00
    6   13    0     -0.95      0.00
   -5   14    0      0.71      0.00
   -4   14    0     -0.83      0.00
   -3   14    0     -1.79      0.00
   -2   14    0      0.53      0.00
   -1   14    0     -1.00      0.00
    0   14    0     -1.45      0.00
    1   14    0      0.02      0.00
    2   14    0      1.31      0.00
    3   14    0      0.63      0.00
    4   14    0     -0.34      0.00
    5   14    0     -1.15      0.00
    6   14    0     -0.32      0.00
   -5   15    0      0.55      0.00
   -4   15    0     -0.45      0.00
   -3   15    0     -2.09      0.00
   -2   15    0      0.03      0.00
   -1   15    0     -0.06      0.00
    0   15    0     -0.81      0.00
    1   15    0     -0.16      0.00
    2   15    0      1.01      0.00
    3   15    0      0.69      0.00
    4   15    0     -0.19      0.00
    5   15    0     -0.33      0.00
   -4   16    0     -0.44      0.00
   -3   16    0     -0.91      0.00
   -2   16    0     -0.09      0.00
   -1   16    0     -0.14      0.00
    0   16    0     -0.39      0.00
    1   16    0     -0.18      0.00
    2   16    0      0.31      0.00
    3   16    0      0.97      0.00
    4   16    0      0.10      0.00
    5   16    0      0.21      0.00
   -3   17    0      1.05      0.00
   -2   17    0      0.54      0.00
   -1   17    0      0.21      0.00
    0   17    0     -0.21      0.00
    1   17    0     -0.04      0.00
    2   17    0      0.06      0.00
    3   17    0      1.03      0.00
    4   17    0      0.50      0.00
   -3   18    0      1.87      0.00
   -2   18    0      0.92      0.00
   -1   18    0      1.46      0.00
    0   18    0      0.09      0.00
    1   18    0      0.30      0.00
    2   18    0      0.28      0.00
    3   18    0      0.92      0.00
    4   18    0      0.42      0.00
   -1   19    0      2.08      0.00
    0   19    0      0.48      0.00
    1   19    0      0.59      0.00
    2   19    0      0.19      0.00
    3   19    0      0.80      0.00
   -2  -19    1      0.69      0.00
   -1  -19    1      0.57      0.00
    0  -19    1     -0.47      0.00
    1  -19    1     -3.01      0.00
   -3  -18    1      0.41      0.00
   -2  -18    1      1.32      0.00
   -1  -18    1      1.19      0.00
    0  -18    1      0.46      0.00
    1  -18    1     -1.05      0.00
    2  -18    1     -1.95      0.00
   -4  -17    1      1.44      0.00
   -3  -17    1      0.69      0.00
   -2  -17    1      1.67      0.00
   -1  -17    1      0.94      0.00
    0  -17    1      0.63      0.00
    1  -17    1      1.36      0.00
    2  -17    1     -0.45      0.00
    3  -17    1     -1.39      0.00
   -5  -16    1      0.75      0.00
   -4  -16    1      2.26      0.00
   -3  -16    1      0.82      0.00
   -2  -16    1      1.22      0.00
   -1  -16    1      0.14      0.00
    0  -16    1      0.24      0.00
    1  -16    1      1.89      0.00
    2  -16    1      0.79      0.00
    3  -16    1      1.72      0.00
    4  -16    1     -0.07      0.00
   -5  -15    1      0.83      0.00
   -4  -15    1      2.14      0.00
   -3  -15    1      0.84      0.00
   -2  -15    1      0.22      0.00
   -1  -15    1     -0.32      0.00
    0  -15    1      0.21      0.00
    1  -15    1      1.14      0.00
    2  -15    1      0.53      0.00
    3  -15    1      3.64      0.00
    4  -15    1      0.89      0.00
   -6  -14    1     -0.14      0.00
   -5  -14    1      0.92      0.00
   -4  -14    1      1.52      0.00
   -3  -14    1      0.70      0.00
   -2  -14    1     -0.50      0.00
   -1  -14    1     -0.42      0.00
    0  -14    1      0.51      0.00
    1  -14    1      1.07      0.00
    2  -14    1     -0.54      0.00
    3  -14    1      3.13      0.00
    4  -14    1      1.98      0.00
    5  -14    1      0.24      0.00
   -6  -13    1     -0.12      0.00
   -5  -13    1      0.96      0.00
   -4  -13    1      1.29      0.00
   -3  -13    1      0.55      0.00
   -2  -13    1     -0.32      0.00
   -1  -13    1     -0.73      0.00
    0  -13    1      0.19      0.00
    1  -13    1      1.35      0.00
    2  -13    1     -1.33      0.00
    3  -13    1      1.47      0.00
    4  -13    1      2.40      0.00
    5  -13    1      1.06      0.00
   -7  -12    1      1.05      0.00
   -6  -12    1     -0.25      0.00
   -5  -12    1      0.38      0.00
   -4  -12    1      1.31      0.00
   -3  -12    1      0.62      0.00
   -2  -12    1      0.73      0.00
   -1  -12    1     -0.62      0.00
    0  -12    1     -0.60      0.00
    1  -12    1      0.39      0.00
    2  -12    1     -1.63      0.00
    3  -12    1      0.46      0.00
    4  -12    1      2.08      0.00
    5  -12    1      1.45      0.00
    6  -12    1     -0.51      0.00
   -7  -11    1      1.28      0.00
   -6  -11    1     -0.44      0.00
   -5  -11    1     -0.54      0.00
   -4  -11    1      0.99      0.00
   -3  -11    1      0.78      0.00
   -2  -11    1      1.84      0.00
   -1  -11    1      1.04      0.00
    0  -11    1     -0.51      0.00
    1  -11    1     -0.95      0.00
    2  -11    1     -1.65      0.00
    3  -11    1      0.49      0.00
    4  -11    1      1.79      0.00
    5  -11    1      1.21      0.00
    6  -11    1     -0.01      0.00
   -7  -10    1      0.81      0.00
   -6  -10    1     -0.66      0.00
   -5  -10    1     -1.02      0.00
   -4  -10    1      0.54      0.00
   -3  -10    1      0.67      0.00
   -2  -10    1      2.08      0.00
   -1  -10    1      3.22      0.00
    0  -10    1      0.50      0.00
    1  -10    1     -0.17      0.00
    2  -10    1     -1.29      0.00
    3  -10    1      0.86      0.00
    4  -10    1      1.82      0.00
    5  -10    1      0.57      0.00
    6  -10    1      0.43      0.00
   -7   -9    1     -0.01      0.00
   -6   -9    1     -0.96      0.00
   -5   -9    1     -1.11      0.00
   -4   -9    1      0.42      0.00
   -3   -9    1      0.68      0.00
   -2   -9    1      1.95      0.00
   -1   -9    1      3.53      0.00
    0   -9    1      0.89      0.00
    1   -9    1      2.83      0.00
    2   -9    1     -0.37      0.00
    3   -9    1      1.35      0.00
    4   -9    1      1.52      0.00
    5   -9    1     -0.29      0.00
    6   -9    1      0.55      0.00
    7   -9    1     -0.75      0.00
   -7   -8    1     -0.42      0.00
   -6   -8    1     -1.05      0.00
   -5   -8    1     -1.27      0.00
   -4   -8    1      0.57      0.00
   -3   -8    1      1.82      0.00
   -2   -8    1      3.53      0.00
   -1   -8    1      1.76      0.00
    0   -8    1      0.13      0.00
    1   -8    1      5.39      0.00
    2   -8    1      1.04      0.00
    3   -8    1      2.24      0.00
    4   -8    1      1.00      0.00
    5   -8    1     -1.11      0.00
    6   -8    1      0.52      0.00
    7   -8    1     -0.75      0.00
   -8   -7    1     -0.19      0.00
   -7   -7    1     -0.41      0.00
   -6   -7    1     -0.96      0.00
   -5   -7    1     -1.65      0.00
   -4   -7    1      0.49      0.00
   -2   -7    1      7.92      0.00
   -1   -7    1      0.14      0.00
    0   -7    1     -1.05      0.00
    1   -7    1      5.09      0.00
    2   -7    1      2.71      0.00
    3   -7    1      2.62      0.00
    4   -7    1      1.07      0.00
    5   -7    1     -1.37      0.00
    6   -7    1      0.54      0.00
    7   -7    1     -0.68      0.00
   -8   -6    1      0.43      0.00
   -7   -6    1     -0.47      0.00
   -6   -6    1     -1.36      0.00
   -5   -6    1     -2.47      0.00
   -4   -6    1     -0.59      0.00
   -3   -6    1      4.74      0.00
   -2   -6    1     12.87      0.00
   -1   -6    1      0.06      0.00
    0   -6    1     -2.47      0.00
    1   -6    1      1.28      0.00
    2   -6    1      4.10      0.00
    3   -6    1      0.94      0.00
    4   -6    1      1.35      0.00
    5   -6    1     -0.97      0.00
    6   -6    1      0.64      0.00
    7   -6    1     -0.94      0.00
   -8   -5    1      0.77      0.00
   -7   -5    1     -0.64      0.00
   -6   -5    1     -2.19      0.00
   -5   -5    1     -3.74      0.00
   -4   -5    1     -3.08      0.00
   -3   -5    1      1.73      0.00
   -2   -5    1     13.61      0.00
   -1   -5    1     -0.07      0.00
    0   -5    1     -5.01      0.00
    1   -5    1     -4.67      0.00
    2   -5    1      4.61      0.00
    3   -5    1     -2.19      0.00
    4   -5    1      0.60      0.00
    5   -5    1     -0.67      0.00
    6   -5    1      0.91      0.00
    7   -5    1     -1.35      0.00
    8   -5    1      0.11      0.00
   -8   -4    1      0.56      0.00
   -7   -4    1     -0.62      0.00
   -6   -4    1     -2.46      0.00
   -5   -4    1     -4.39      0.00
   -4   -4    1     -5.62      0.00
   -2   -4    1      6.70      0.00
   -1   -4    1     -4.15      0.00
    0   -4    1    -12.29      0.00
    1   -4    1    -10.01      0.00
    2   -4    1      4.20      0.00
    3   -4    1     -4.07      0.00
    4   -4    1     -0.93      0.00
    5   -4    1     -1.04      0.00
    6   -4    1      1.23      0.00
    7   -4    1     -1.26      0.00
    8   -4    1     -0.52      0.00
   -8   -3    1      0.09      0.00
   -7   -3    1     -0.59      0.00
   -6   -3    1     -2.06      0.00
   -5   -3    1     -3.55      0.00
   -4   -3    1     -5.78      0.00
   -3   -3    1     -6.48      0.00
   -2   -3    1     -5.16      0.00
   -1   -3    1    -13.78      0.00
    0   -3    1    -31.34      0.00
    1   -3    1    -13.87      0.00
    2   -3    1      2.83      0.00
    3   -3    1     -3.54      0.00
    4   -3    1     -1.88      0.00
    5   -3    1     -1.86      0.00
    6   -3    1      0.96      0.00
    7   -3    1     -0.54      0.00
    8   -3    1     -0.96      0.00
   -8   -2    1     -0.23      0.00
   -7   -2    1     -0.69      0.00
   -6   -2    1     -1.98      0.00
   -5   -2    1     -1.99      0.00
   -4   -2    1     -2.93      0.00
   -3   -2    1     -3.78      0.00
   -2   -2    1    -12.81      0.00
   -1   -2    1    -21.84      0.00
    0   -2    1    -62.21      0.00
    1   -2    1    -17.91      0.00
    2   -2    1     -0.68      0.00
    3   -2    1     -2.21      0.00
    4   -2    1     -2.03      0.00
    5   -2    1     -2.77      0.00
    6   -2    1     -0.46      0.00
    7   -2    1      0.07      0.00
    8   -2    1     -1.12      0.00
   -8   -1    1     -0.34      0.00
   -7   -1    1     -0.47      0.00
   -5   -1    1     -0.77      0.00
   -4   -1    1      1.00      0.00
   -3   -1    1      2.19      0.00
   -2   -1    1     -8.69      0.00
   -1   -1    1    -15.97      0.00
    1   -1    1    -20.25      0.00
    2   -1    1     -6.50      0.00
    3   -1    1     -1.41      0.00
    4   -1    1     -2.05      0.00
    5   -1    1     -3.28      0.00
    6   -1    1     -2.31      0.00
    7   -1    1      0.07      0.00
    8   -1    1     -0.95      0.00
   -8    0    1     -0.43      0.00
   -7    0    1      0.35      0.00
   -6    0    1     -1.36      0.00
   -5    0    1      0.15      0.00
   -4    0    1      3.63      0.00
   -3    0    1      6.69      0.00
   -2    0    1      4.05      0.00
   -1    0    1      5.29      0.00
    1    0    1    -13.76      0.00
    2    0    1    -10.61      0.00
    3    0    1     -0.29      0.00
    4    0    1     -1.95      0.00
    5    0    1     -2.71      0.00
    6    0    1     -2.81      0.00
    7    0    1     -0.04      0.00
    8    0    1     -0.47      0.00
   -8    1    1     -0.57      0.00
   -7    1    1      1.11      0.00
   -6    1    1      0.25      0.00
   -5    1    1      0.77      0.00
   -4    1    1      3.99      0.00
   -3    1    1      7.28      0.00
   -2    1    1     14.12      0.00
   -1    1    1     25.65      0.00
    1    1    1      2.79      0.00
    2    1    1     -7.70      0.00
    3    1    1      2.21      0.00
    4    1    1     -1.24      0.00
    5    1    1     -1.25      0.00
    6    1    1     -1.52      0.00
    7    1    1      0.27      0.00
    8    1    1     -0.03      0.00
   -8    2    1     -0.59      0.00
   -7    2    1      1.15      0.00
   -6    2    1      1.21      0.00
   -5    2    1      0.57      0.00
   -4    2    1      2.92      0.00
   -3    2    1      5.09      0.00
   -2    2    1     14.51      0.00
   -1    2    1     28.35      0.00
    0    2    1     -2.25      0.00
    1    2    1     17.80      0.00
    2    2    1      1.71      0.00
    3    2    1      5.49      0.00
    4    2    1      0.23      0.00
    5    2    1     -0.06      0.00
    6    2    1     -0.06      0.00
    7    2    1      0.58      0.00
    8    2    1      0.00      0.00
   -8    3    1     -0.29      0.00
   -7    3    1      0.73      0.00
   -6    3    1      0.92      0.00
   -5    3    1     -0.22      0.00
   -4    3    1      2.32      0.00
   -3    3    1      2.72      0.00
   -2    3    1      8.39      0.00
   -1    3    1     15.15      0.00
    0    3    1     14.86      0.00
    1    3    1     19.26      0.00
    2    3    1     10.54      0.00
    3    3    1      7.96      0.00
    4    3    1      2.29      0.00
    5    3    1      0.38      0.00
    6    3    1      0.35      0.00
    7    3    1      0.42      0.00
    8    3    1     -0.15      0.00
   -8    4    1      0.18      0.00
   -7    4    1      0.41      0.00
   -6    4    1      0.29      0.00
   -5    4    1     -0.64      0.00
   -4    4    1      2.91      0.00
   -3    4    1      1.82      0.00
   -2    4    1      2.44      0.00
   -1    4    1      0.68      0.00
    0    4    1     11.30      0.00
    1    4    1      9.00      0.00
    2    4    1     12.73      0.00
    3    4    1      8.28      0.00
    4    4    1      4.13      0.00
    5    4    1      0.55      0.00
    6    4    1      0.34      0.00
    7    4    1      0.16      0.00
    8    4    1      0.02      0.00
   -8    5    1      0.39      0.00
   -7    5    1      0.06      0.00
   -6    5    1      0.06      0.00
   -5    5    1     -0.35      0.00
   -4    5    1      3.13      0.00
   -3    5    1      1.83      0.00
   -2    5    1     -0.83      0.00
   -1    5    1     -5.47      0.00
    0    5    1      2.88      0.00
    1    5    1     -2.04      0.00
    2    5    1      8.48      0.00
    3    5    1      6.01      0.00
    4    5    1      4.62      0.00
    5    5    1      0.56      0.00
    6    5    1      0.62      0.00
    7    5    1      0.25      0.00
    8    5    1      0.40      0.00
   -7    6    1     -0.54      0.00
   -6    6    1      0.03      0.00
   -5    6    1      0.26      0.00
   -4    6    1      1.94      0.00
   -3    6    1      1.21      0.00
   -2    6    1     -2.75      0.00
   -1    6    1     -3.90      0.00
    0    6    1     -0.72      0.00
    1    6    1     -6.86      0.00
    2    6    1      1.96      0.00
    3    6    1      2.04      0.00
    4    6    1      3.69      0.00
    5    6    1      0.31      0.00
    6    6    1      0.82      0.00
    7    6    1      0.30      0.00
    8    6    1      0.45      0.00
   -7    7    1     -1.01      0.00
   -6    7    1     -0.02      0.00
   -5    7    1      0.95      0.00
   -4    7    1      0.95      0.00
   -3    7    1     -0.01      0.00
   -2    7    1     -4.30      0.00
   -1    7    1      0.68      0.00
    0    7    1      0.84      0.00
    1    7    1     -5.27      0.00
    2    7    1     -2.86      0.00
    3    7    1     -1.63      0.00
    4    7    1      2.58      0.00
    5    7    1      0.36      0.00
    6    7    1      0.80      0.00
    7    7    1     -0.06      0.00
    8    7    1     -0.02      0.00
   -7    8    1     -0.88      0.00
   -6    8    1      0.09      0.00
   -5    8    1      1.38      0.00
   -4    8    1      1.67      0.00
   -3    8    1     -0.31      0.00
   -2    8    1     -4.75      0.00
   -1    8    1      3.78      0.00
    0    8    1      4.14      0.00
    1    8    1     -0.02      0.00
    2    8    1     -4.12      0.00
    3    8    1     -3.32      0.00
    4    8    1      1.99      0.00
    5    8    1      0.97      0.00
    6    8    1      1.05      0.00
    7    8    1     -0.27      0.00
    8    8    1     -0.59      0.00
   -7    9    1     -0.51      0.00
   -6    9    1      0.34      0.00
   -5    9    1      1.04      0.00
   -4    9    1      2.63      0.00
   -3    9    1      0.65      0.00
   -2    9    1     -3.35      0.00
   -1    9    1      3.23      0.00
    0    9    1      5.54      0.00
    2    9    1     -2.57      0.00
    3    9    1     -3.20      0.00
    4    9    1      1.60      0.00
    5    9    1      1.50      0.00
    6    9    1      1.46      0.00
    7    9    1      0.25      0.00
   -7   10    1     -0.45      0.00
   -6   10    1      0.27      0.00
   -5   10    1     -0.08      0.00
   -4   10    1      1.87      0.00
   -3   10    1      1.19      0.00
   -2   10    1     -0.87      0.00
    0   10    1      4.05      0.00
    1   10    1      5.08      0.00
    2   10    1     -0.60      0.00
    3   10    1     -2.73      0.00
    4   10    1      1.14      0.00
    5   10    1      1.67      0.00
    6   10    1      1.52      0.00
    7   10    1      1.01      0.00
   -6   11    1     -0.32      0.00
   -5   11    1     -1.33      0.00
   -4   11    1     -0.01      0.00
   -3   11    1      0.10      0.00
   -2   11    1      0.64      0.00
   -1   11    1      0.64      0.00
    0   11    1      1.99      0.00
    1   11    1      2.29      0.00
    2   11    1      0.16      0.00
    3   11    1     -2.80      0.00
    4   11    1      0.51      0.00
    5   11    1      1.77      0.00
    6   11    1      1.34      0.00
    7   11    1      1.22      0.00
   -6   12    1     -0.76      0.00
   -5   12    1     -2.02      0.00
   -4   12    1     -1.23      0.00
   -3   12    1     -1.68      0.00
   -2   12    1      0.03      0.00
   -1   12    1      1.63      0.00
    0   12    1      1.30      0.00
    1   12    1     -0.07      0.00
    2   12    1     -0.32      0.00
    3   12    1     -2.95      0.00
    4   12    1     -0.55      0.00
    5   12    1      1.46      0.00
    6   12    1      1.00      0.00
    7   12    1      0.88      0.00
   -6   13    1     -0.40      0.00
   -5   13    1     -1.80      0.00
   -4   13    1     -1.24      0.00
   -3   13    1     -2.36      0.00
   -2   13    1     -1.53      0.00
   -1   13    1      1.33      0.00
    0   13    1      1.18      0.00
    1   13    1     -0.41      0.00
    2   13    1     -1.33      0.00
    3   13    1     -2.67      0.00
    4   13    1     -1.76      0.00
    5   13    1      0.48      0.00
    6   13    1      0.22      0.00
   -5   14    1     -0.98      0.00
   -4   14    1     -0.59      0.00
   -3   14    1     -1.43      0.00
   -2   14    1     -2.05      0.00
   -1   14    1     -0.32      0.00
    0   14    1      0.62      0.00
    1   14    1      0.10      0.00
    2   14    1     -2.05      0.00
    3   14    1     -2.27      0.00
    4   14    1     -2.37      0.00
    5   14    1     -0.30      0.00
    6   14    1     -0.59      0.00
   -5   15    1     -0.42      0.00
   -4   15    1      0.14      0.00
   -3   15    1     -0.12      0.00
   -2   15    1     -1.29      0.00
   -1   15    1     -1.03      0.00
    0   15    1      0.13      0.00
    1   15    1      0.28      0.00
    2   15    1     -1.82      0.00
    3   15    1     -2.08      0.00
    4   15    1     -2.22      0.00
    5   15    1     -0.25      0.00
    6   15    1     -0.49      0.00
   -4   16    1      0.57      0.00
   -3   16    1      0.08      0.00
   -2   16    1     -0.60      0.00
   -1   16    1     -0.34      0.00
    0   16    1      0.20      0.00
    1   16    1     -0.04      0.00
    2   16    1     -1.06      0.00
    3   16    1     -1.79      0.00
    4   16    1     -1.78      0.00
    5   16    1     -0.12      0.00
   -3   17    1     -0.66      0.00
   -2   17    1     -0.50      0.00
   -1   17    1      0.09      0.00
    0   17    1      0.37      0.00
    1   17    1     -0.59      0.00
    2   17    1     -0.68      0.00
    3   17    1     -1.20      0.00
    4   17    1     -1.09      0.00
   -3   18    1     -0.95      0.00
   -2   18    1     -0.20      0.00
   -1   18    1     -0.33      0.00
    0   18    1      0.28      0.00
    1   18    1     -0.93      0.00
    2   18    1     -0.63      0.00
    3   18    1     -0.67      0.00
    4   18    1     -0.11      0.00
   -2   19    1      0.46      0.00
   -1   19    1     -0.60      0.00
    0   19    1      0.03      0.00
    1   19    1     -0.78      0.00
    2   19    1     -0.14      0.00
    3   19    1     -0.45      0.00
   -2  -19    2     -1.96      0.00
   -1  -19    2     -2.58      0.00
    0  -19    2     -1.38      0.00
    1  -19    2      1.60      0.00
   -3  -18    2     -1.67      0.00
   -2  -18    2     -2.66      0.00
   -1  -18    2     -2.74      0.00
    0  -18    2     -2.34      0.00
    1  -18    2     -1.26      0.00
    2  -18    2      1.53      0.00
   -4  -17    2     -1.54      0.00
   -3  -17    2     -1.44      0.00
   -2  -17    2     -2.63      0.00
   -1  -17    2     -1.34      0.00
    0  -17    2     -1.38      0.00
    1  -17    2     -3.24      0.00
    2  -17    2     -0.24      0.00
    3  -17    2      0.99      0.00
   -5  -16    2     -0.94      0.00
   -4  -16    2     -1.54      0.00
   -3  -16    2     -0.89      0.00
   -2  -16    2     -1.82      0.00
   -1  -16    2      0.30      0.00
    0  -16    2      0.21      0.00
    1  -16    2     -2.52      0.00
    2  -16    2     -0.70      0.00
    3  -16    2     -1.87      0.00
    4  -16    2     -0.36      0.00
   -5  -15    2     -0.15      0.00
   -4  -15    2     -0.78      0.00
   -3  -15    2     -0.61      0.00
   -2  -15    2     -0.62      0.00
   -1  -15    2      0.93      0.00
    0  -15    2      0.79      0.00
    1  -15    2     -0.77      0.00
    2  -15    2      0.32      0.00
    3  -15    2     -2.80      0.00
    4  -15    2     -1.28      0.00
   -6  -14    2      1.00      0.00
   -5  -14    2      0.40      0.00
   -4  -14    2     -0.27      0.00
   -3  -14    2     -1.04      0.00
   -2  -14    2      0.14      0.00
   -1  -14    2      0.94      0.00
    0  -14    2      0.75      0.00
    1  -14    2     -0.28      0.00
    2  -14    2      1.33      0.00
    3  -14    2     -1.45      0.00
    4  -14    2     -1.45      0.00
    5  -14    2     -0.49      0.00
   -6  -13    2      1.30      0.00
   -5  -13    2      0.66      0.00
   -4  -13    2     -0.57      0.00
   -3  -13    2     -2.01      0.00
   -2  -13    2     -0.44      0.00
   -1  -13    2      1.20      0.00
    0  -13    2      1.40      0.00
    1  -13    2     -0.69      0.00
    2  -13    2      1.33      0.00
    3  -13    2      0.06      0.00
    4  -13    2     -0.88      0.00
    5  -13    2     -0.71      0.00
   -6  -12    2      1.33      0.00
   -5  -12    2      1.13      0.00
   -4  -12    2     -0.73      0.00
   -3  -12    2     -2.65      0.00
   -2  -12    2     -2.30      0.00
   -1  -12    2      0.95      0.00
    0  -12    2      2.32      0.00
    1  -12    2     -0.56      0.00
    2  -12    2      0.46      0.00
    3  -12    2     -0.16      0.00
    4  -12    2     -0.38      0.00
    5  -12    2     -0.58      0.00
    6  -12    2      1.04      0.00
   -7  -11    2     -0.86      0.00
   -6  -11    2      1.12      0.00
   -5  -11    2      1.59      0.00
   -4  -11    2      0.04      0.00
   -3  -11    2     -2.02      0.00
   -2  -11    2     -3.79      0.00
   -1  -11    2     -0.94      0.00
    0  -11    2      2.05      0.00
    1  -11    2     -0.36      0.00
    2  -11    2     -0.94      0.00
    3  -11    2     -1.69      0.00
    4  -11    2     -0.63      0.00
    5  -11    2     -0.35      0.00
    6  -11    2      0.57      0.00
   -7  -10    2     -0.22      0.00
   -6  -10    2      0.93      0.00
   -5  -10    2      1.57      0.00
   -4  -10    2      1.13      0.00
   -3  -10    2     -0.11      0.00
   -2  -10    2     -3.01      0.00
   -1  -10    2     -3.22      0.00
    0  -10    2      1.00      0.00
    1  -10    2     -1.57      0.00
    2  -10    2     -2.39      0.00
    3  -10    2     -2.74      0.00
    4  -10    2     -0.99      0.00
    5  -10    2     -0.11      0.00
    6  -10    2     -0.30      0.00
   -7   -9    2      0.37      0.00
   -6   -9    2      0.92      0.00
   -5   -9    2      1.34      0.00
   -4   -9    2      1.66      0.00
   -3   -9    2      1.74      0.00
   -2   -9    2     -0.45      0.00
    0   -9    2      1.02      0.00
    1   -9    2     -3.79      0.00
    2   -9    2     -2.91      0.00
    3   -9    2     -2.48      0.00
    4   -9    2     -0.44      0.00
    5   -9    2      0.37      0.00
    6   -9    2     -1.00      0.00
    7   -9    2      0.45      0.00
   -7   -8    2      0.52      0.00
   -6   -8    2      0.94      0.00
   -5   -8    2      1.39      0.00
   -4   -8    2      1.54      0.00
   -3   -8    2      1.97      0.00
   -2   -8    2      1.05      0.00
   -1   -8    2     -0.23      0.00
    0   -8    2      2.72      0.00
    2   -8    2     -1.90      0.00
    3   -8    2     -1.31      0.00
    4   -8    2      0.58      0.00
    5   -8    2      0.99      0.00
    6   -8    2     -1.20      0.00
    7   -8    2      0.69      0.00
   -8   -7    2     -0.59      0.00
   -7   -7    2      0.47      0.00
   -6   -7    2      1.16      0.00
   -5   -7    2      1.88      0.00
   -4   -7    2      1.45      0.00
   -3   -7    2      1.06      0.00
   -2   -7    2     -0.26      0.00
   -1   -7    2      3.57      0.00
    0   -7    2      5.42      0.00
    1   -7    2     -2.56      0.00
    2   -7    2      0.01      0.00
    3   -7    2      0.87      0.00
    4   -7    2      1.01      0.00
    5   -7    2      1.17      0.00
    6   -7    2     -0.97      0.00
    7   -7    2      1.16      0.00
   -8   -6    2     -1.03      0.00
   -7   -6    2      0.48      0.00
   -6   -6    2      1.73      0.00
   -5   -6    2      2.76      0.00
   -4   -6    2      2.21      0.00
   -3   -6    2      1.77      0.00
   -2   -6    2     -2.49      0.00
   -1   -6    2      5.93      0.00
    0   -6    2      8.04      0.00
    1   -6    2      3.37      0.00
    2   -6    2      1.77      0.00
    3   -6    2      4.41      0.00
    4   -6    2      1.19      0.00
    5   -6    2      0.91      0.00
    6   -6    2     -0.67      0.00
    7   -6    2      1.87      0.00
   -8   -5    2     -0.96      0.00
   -7   -5    2      0.39      0.00
   -6   -5    2      1.90      0.00
   -5   -5    2      3.23      0.00
   -4   -5    2      3.62      0.00
   -3   -5    2      5.76      0.00
   -2   -5    2     -1.70      0.00
   -1   -5    2      6.60      0.00
    0   -5    2      8.72      0.00
    1   -5    2     10.43      0.00
    2   -5    2      2.97      0.00
    3   -5    2      7.98      0.00
    4   -5    2      2.04      0.00
    5   -5    2      0.98      0.00
    6   -5    2     -0.58      0.00
    7   -5    2      2.29      0.00
   -8   -4    2     -0.42      0.00
   -7   -4    2      0.18      0.00
   -6   -4    2      0.94      0.00
   -5   -4    2      2.07      0.00
   -4   -4    2      3.85      0.00
   -3   -4    2      9.99      0.00
   -2   -4    2      3.42      0.00
   -1   -4    2      7.11      0.00
    0   -4    2      7.56      0.00
    1   -4    2     13.90      0.00
    2   -4    2      3.53      0.00
    3   -4    2      9.32      0.00
    4   -4    2      3.04      0.00
    5   -4    2      1.59      0.00
    6   -4    2     -0.60      0.00
    7   -4    2      1.90      0.00
    8   -4    2      0.61      0.00
   -8   -3    2      0.09      0.00
   -7   -3    2      0.14      0.00
   -6   -3    2     -0.29      0.00
   -5   -3    2     -0.46      0.00
   -4   -3    2      1.44      0.00
   -3   -3    2      9.27      0.00
   -2   -3    2      8.71      0.00
   -1   -3    2      6.75      0.00
    0   -3    2      9.00      0.00
    1   -3    2     11.46      0.00
    2   -3    2      3.55      0.00
    3   -3    2      8.12      0.00
    4   -3    2      3.13      0.00
    5   -3    2      2.06      0.00
    6   -3    2     -0.31      0.00
    7   -3    2      0.96      0.00
    8   -3    2      1.03      0.00
   -8   -2    2      0.36      0.00
   -7   -2    2      0.24      0.00
   -6   -2    2     -0.46      0.00
   -5   -2    2     -2.38      0.00
   -4   -2    2     -2.44      0.00
   -3   -2    2      2.94      0.00
   -2   -2    2      7.83      0.00
   -1   -2    2     -0.34      0.00
    0   -2    2     14.75      0.00
    1   -2    2      4.54      0.00
    2   -2    2      3.71      0.00
    3   -2    2      5.97      0.00
    4   -2    2      2.24      0.00
    5   -2    2      1.83      0.00
    6   -2    2      0.43      0.00
    7   -2    2      0.21      0.00
    8   -2    2      1.36      0.00
   -8   -1    2      0.69      0.00
   -7   -1    2      0.08      0.00
   -6   -1    2      0.16      0.00
   -5   -1    2     -2.61      0.00
   -4   -1    2     -5.17      0.00
   -3   -1    2     -3.71      0.00
   -2   -1    2     -0.10      0.00
   -1   -1    2    -17.98      0.00
    0   -1    2     16.38      0.00
    1   -1    2     -5.91      0.00
    2   -1    2      4.34      0.00
    3   -1    2      3.52      0.00
    4   -1    2      0.72      0.00
    5   -1    2      0.71      0.00
    6   -1    2      0.89      0.00
    7   -1    2     -0.13      0.00
    8   -1    2      1.18      0.00
   -8    0    2      1.25      0.00
   -7    0    2     -0.28      0.00
   -6    0    2      0.37      0.00
   -5    0    2     -1.89      0.00
   -4    0    2     -5.32      0.00
   -3    0    2     -5.46      0.00
   -2    0    2     -7.97      0.00
   -1    0    2    -37.17      0.00
    0    0    2      5.33      0.00
    1    0    2    -19.40      0.00
    2    0    2      4.25      0.00
    3    0    2      0.21      0.00
    4    0    2     -1.28      0.00
    5    0    2     -1.13      0.00
    6    0    2      0.21      0.00
    7    0    2     -0.45      0.00
    8    0    2      0.43      0.00
   -8    1    2      1.59      0.00
   -7    1    2     -0.42      0.00
   -6    1    2      0.02      0.00
   -5    1    2     -1.04      0.00
   -4    1    2     -3.35      0.00
   -3    1    2     -2.35      0.00
   -2    1    2     -8.31      0.00
   -1    1    2    -41.32      0.00
    0    1    2    -11.47      0.00
    1    1    2    -29.73      0.00
    2    1    2      2.58      0.00
    3    1    2     -3.38      0.00
    4    1    2     -3.23      0.00
    5    1    2     -2.75      0.00
    6    1    2     -1.09      0.00
    7    1    2     -0.89      0.00
    8    1    2     -0.19      0.00
   -8    2    2      1.19      0.00
   -7    2    2     -0.35      0.00
   -6    2    2     -0.24      0.00
   -5    2    2     -0.23      0.00
   -4    2    2     -1.06      0.00
   -2    2    2     -1.65      0.00
   -1    2    2    -25.93      0.00
    0    2    2    -18.34      0.00
    1    2    2    -27.49      0.00
    2    2    2      1.06      0.00
    4    2    2     -4.47      0.00
    5    2    2     -3.20      0.00
    6    2    2     -1.66      0.00
    7    2    2     -1.00      0.00
    8    2    2     -0.22      0.00
   -8    3    2      0.18      0.00
   -7    3    2     -0.45      0.00
   -6    3    2     -0.37      0.00
   -5    3    2      0.17      0.00
   -4    3    2     -0.35      0.00
   -3    3    2      4.03      0.00
   -2    3    2      5.14      0.00
   -1    3    2     -4.57      0.00
    0    3    2    -11.52      0.00
    1    3    2    -12.72      0.00
    2    3    2      2.03      0.00
    3    3    2     -4.07      0.00
    4    3    2     -4.88      0.00
    5    3    2     -2.79      0.00
    6    3    2     -1.33      0.00
    7    3    2     -0.68      0.00
    8    3    2     -0.14      0.00
   -8    4    2     -0.72      0.00
   -7    4    2     -0.63      0.00
   -6    4    2     -0.65      0.00
   -5    4    2     -0.13      0.00
   -4    4    2     -1.20      0.00
   -3    4    2      3.60      0.00
   -2    4    2      7.03      0.00
   -1    4    2      7.59      0.00
    0    4    2     -1.60      0.00
    1    4    2      2.97      0.00
    2    4    2      4.97      0.00
    3    4    2     -0.69      0.00
    4    4    2     -4.48      0.00
    5    4    2     -2.34      0.00
    6    4    2     -1.15      0.00
    7    4    2     -0.37      0.00
    8    4    2     -0.41      0.00
   -8    5    2     -1.01      0.00
   -7    5    2     -0.42      0.00
   -6    5    2     -0.84      0.00
   -5    5    2     -0.68      0.00
   -4    5    2     -1.59      0.00
   -3    5    2      1.99      0.00
   -2    5    2      4.52      0.00
   -1    5    2      7.71      0.00
    0    5    2      2.34      0.00
    1    5    2      9.87      0.00
    2    5    2      7.33      0.00
    3    5    2      3.12      0.00
    4    5    2     -3.19      0.00
    5    5    2     -1.91      0.00
    6    5    2     -1.36      0.00
    7    5    2     -0.24      0.00
    8    5    2     -0.65      0.00
   -7    6    2      0.08      0.00
   -6    6    2     -0.59      0.00
   -5    6    2     -0.97      0.00
   -4    6    2     -0.75      0.00
   -3    6    2      0.59      0.00
   -2    6    2      1.03      0.00
   -1    6    2      1.51      0.00
    0    6    2      0.52      0.00
    1    6    2      8.43      0.00
    2    6    2      7.51      0.00
    3    6    2      5.61      0.00
    4    6    2     -1.72      0.00
    5    6    2     -1.41      0.00
    6    6    2     -1.37      0.00
    7    6    2      0.08      0.00
    8    6    2     -0.31      0.00
   -7    7    2      0.27      0.00
   -6    7    2     -0.07      0.00
   -5    7    2     -0.89      0.00
   -4    7    2     -0.30      0.00
   -3    7    2     -0.52      0.00
   -2    7    2     -0.80      0.00
   -1    7    2     -4.94      0.00
    0    7    2     -3.00      0.00
    1    7    2      3.46      0.00
    2    7    2      5.49      0.00
    3    7    2      5.75      0.00
    4    7    2     -1.05      0.00
    5    7    2     -1.24      0.00
    6    7    2     -1.21      0.00
    7    7    2      0.58      0.00
    8    7    2      0.36      0.00
   -7    8    2      0.03      0.00
   -6    8    2      0.28      0.00
   -5    8    2     -0.25      0.00
   -4    8    2     -0.93      0.00
   -2    8    2     -0.73      0.00
    0    8    2     -4.83      0.00
    1    8    2     -1.62      0.00
    2    8    2      2.25      0.00
    3    8    2      3.93      0.00
    4    8    2     -1.02      0.00
    5    8    2     -1.29      0.00
    6    8    2     -1.21      0.00
    7    8    2      0.61      0.00
    8    8    2      0.63      0.00
   -7    9    2     -0.02      0.00
   -6    9    2      0.38      0.00
   -5    9    2      1.04      0.00
   -4    9    2     -0.83      0.00
   -3    9    2     -1.84      0.00
   -2    9    2     -0.23      0.00
   -1    9    2     -4.70      0.00
    0    9    2     -3.29      0.00
    1    9    2     -4.11      0.00
    2    9    2     -0.43      0.00
    3    9    2      1.94      0.00
    4    9    2     -0.72      0.00
    5    9    2     -0.95      0.00
    6    9    2     -1.04      0.00
    7    9    2     -0.01      0.00
   -7   10    2      0.27      0.00
   -6   10    2      0.43      0.00
   -5   10    2      2.37      0.00
   -4   10    2      0.96      0.00
   -3   10    2     -0.37      0.00
   -2   10    2     -0.23      0.00
   -1   10    2     -0.56      0.00
    0   10    2      0.09      0.00
    1   10    2     -2.74      0.00
    2   10    2     -1.24      0.00
    3   10    2      1.45      0.00
    4   10    2      0.18      0.00
    5   10    2     -0.29      0.00
    6   10    2     -0.47      0.00
    7   10    2     -0.53      0.00
   -6   11    2      0.39      0.00
   -5   11    2      2.96      0.00
   -4   11    2      2.76      0.00
   -3   11    2      2.06      0.00
   -2   11    2     -0.02      0.00
   -1   11    2      1.12      0.00
    0   11    2      2.14      0.00
    1   11    2      0.30      0.00
    2   11    2     -0.64      0.00
    3   11    2      2.30      0.00
    4   11    2      1.43      0.00
    5   11    2      0.40      0.00
    6   11    2      0.12      0.00
    7   11    2     -0.37      0.00
   -6   12    2      0.01      0.00
   -5   12    2      2.57      0.00
   -4   12    2      2.84      0.00
   -3   12    2      3.53      0.00
   -2   12    2      1.08      0.00
   -1   12    2      0.73      0.00
    0   12    2      2.26      0.00
    1   12    2      1.87      0.00
    2   12    2      0.30      0.00
    3   12    2      2.93      0.00
    4   12    2      2.65      0.00
    5   12    2      1.25      0.00
    6   12    2      0.63      0.00
    7   12    2      0.20      0.00
   -6   13    2     -0.59      0.00
   -5   13    2      1.54      0.00
   -4   13    2      1.58      0.00
   -3   13    2      3.02      0.00
   -2   13    2      2.02      0.00
   -1   13    2      0.61      0.00
    0   13    2      2.15      0.00
    1   13    2      1.47      0.00
    2   13    2      1.18      0.00
    3   13    2      2.54      0.00
    4   13    2      3.17      0.00
    5   13    2      1.76      0.00
    6   13    2      1.21      0.00
   -5   14    2      0.68      0.00
   -4   14    2      0.33      0.00
   -3   14    2      1.26      0.00
   -2   14    2      1.67      0.00
   -1   14    2      0.79      0.00
    0   14    2      2.15      0.00
    1   14    2      0.42      0.00
    2   14    2      1.58      0.00
    3   14    2      1.75      0.00
    4   14    2      2.67      0.00
    5   14    2      0.90      0.00
    6   14    2      1.24      0.00
   -5   15    2      0.67      0.00
   -4   15    2     -0.18      0.00
   -3   15    2     -0.20      0.00
   -2   15    2      0.72      0.00
   -1   15    2      0.10      0.00
    0   15    2      1.33      0.00
    1   15    2     -0.33      0.00
    2   15    2      0.97      0.00
    3   15    2      1.10      0.00
    4   15    2      1.74      0.00
    5   15    2     -0.72      0.00
    6   15    2      0.24      0.00
   -4   16    2     -0.11      0.00
   -3   16    2     -0.39      0.00
   -2   16    2      0.51      0.00
   -1   16    2     -0.90      0.00
    0   16    2      0.07      0.00
    1   16    2     -0.45      0.00
    2   16    2     -0.08      0.00
    3   16    2      0.50      0.00
    4   16    2      0.96      0.00
    5   16    2     -1.27      0.00
   -3   17    2      0.13      0.00
   -2   17    2      0.73      0.00
   -1   17    2     -0.96      0.00
    0   17    2     -0.45      0.00
    1   17    2     -0.06      0.00
    2   17    2     -0.42      0.00
    3   17    2     -0.03      0.00
    4   17    2      0.20      0.00
    5   17    2     -0.55      0.00
   -3   18    2      0.24      0.00
   -2   18    2      0.24      0.00
   -1   18    2     -0.35      0.00
    0   18    2     -0.20      0.00
    1   18    2      0.28      0.00
    2   18    2     -0.20      0.00
    3   18    2     -0.15      0.00
    4   18    2     -0.56      0.00
   -2   19    2     -0.65      0.00
   -1   19    2     -0.08      0.00
    0   19    2      0.12      0.00
    1   19    2      0.23      0.00
    2   19    2     -0.30      0.00
    3   19    2      0.11      0.00
    1   20    2      0.07      0.00
   -1  -19    3      3.53      0.00
    0  -19    3      2.83      0.00
   -3  -18    3      1.01      0.00
   -2  -18    3      1.94      0.00
   -1  -18    3      2.43      0.00
    0  -18    3      2.43      0.00
    1  -18    3      2.03      0.00
    2  -18    3     -0.05      0.00
   -4  -17    3     -0.66      0.00
   -3  -17    3      0.38      0.00
   -2  -17    3      1.62      0.00
   -1  -17    3      0.10      0.00
    0  -17    3      0.03      0.00
    1  -17    3      1.98      0.00
    2  -17    3      0.58      0.00
    3  -17    3     -0.08      0.00
   -5  -16    3      0.56      0.00
   -4  -16    3     -1.09      0.00
   -3  -16    3     -0.06      0.00
   -2  -16    3      1.17      0.00
   -1  -16    3     -1.53      0.00
    0  -16    3     -1.97      0.00
    1  -16    3      0.30      0.00
    2  -16    3     -0.25      0.00
    3  -16    3      1.03      0.00
    4  -16    3      1.30      0.00
   -5  -15    3     -0.16      0.00
   -4  -15    3     -1.19      0.00
   -3  -15    3      0.48      0.00
   -2  -15    3      0.75      0.00
   -1  -15    3     -1.59      0.00
    0  -15    3     -2.11      0.00
    1  -15    3     -1.03      0.00
    2  -15    3     -1.34      0.00
    3  -15    3      0.52      0.00
    4  -15    3      0.87      0.00
   -6  -14    3     -0.85      0.00
   -5  -14    3     -0.42      0.00
   -4  -14    3     -0.42      0.00
   -3  -14    3      2.02      0.00
   -2  -14    3      0.84      0.00
   -1  -14    3     -0.88      0.00
    0  -14    3     -1.57      0.00
    1  -14    3     -0.74      0.00
    2  -14    3     -1.19      0.00
    3  -14    3     -0.59      0.00
    4  -14    3     -0.22      0.00
    5  -14    3     -0.45      0.00
   -6  -13    3     -1.37      0.00
   -5  -13    3     -0.60      0.00
   -4  -13    3      0.47      0.00
   -3  -13    3      3.25      0.00
   -2  -13    3      1.98      0.00
   -1  -13    3     -0.32      0.00
    0  -13    3     -1.76      0.00
    1  -13    3      0.25      0.00
    2  -13    3     -0.02      0.00
    3  -13    3     -0.42      0.00
    4  -13    3     -0.86      0.00
    5  -13    3     -0.54      0.00
   -6  -12    3     -1.41      0.00
   -5  -12    3     -1.18      0.00
   -4  -12    3      0.05      0.00
   -3  -12    3      2.53      0.00
   -2  -12    3      3.51      0.00
   -1  -12    3      0.51      0.00
    0  -12    3     -2.03      0.00
    1  -12    3      0.66      0.00
    2  -12    3      1.13      0.00
    3  -12    3      1.31      0.00
    4  -12    3     -0.46      0.00
    5  -12    3     -0.13      0.00
    6  -12    3     -1.11      0.00
   -7  -11    3      0.55      0.00
   -6  -11    3     -0.93      0.00
   -5  -11    3     -1.66      0.00
   -4  -11    3     -1.58      0.00
   -3  -11    3     -0.42      0.00
   -2  -11    3      3.24      0.00
   -1  -11    3      1.95      0.00
    0  -11    3     -1.45      0.00
    1  -11    3      0.61      0.00
    2  -11    3      1.83      0.00
    3  -11    3      2.80      0.00
    4  -11    3      0.29      0.00
    5  -11    3      0.43      0.00
    6  -11    3     -0.18      0.00
   -7  -10    3      0.21      0.00
   -6  -10    3     -0.32      0.00
   -5  -10    3     -1.45      0.00
   -4  -10    3     -2.81      0.00
   -3  -10    3     -3.96      0.00
   -2  -10    3     -0.38      0.00
   -1  -10    3      2.53      0.00
    0  -10    3     -1.21      0.00
    1  -10    3      0.74      0.00
    2  -10    3      1.92      0.00
    3  -10    3      2.33      0.00
    4  -10    3     -0.04      0.00
    5  -10    3      0.46      0.00
    6  -10    3      0.94      0.00
   -7   -9    3     -0.02      0.00
   -6   -9    3      0.12      0.00
   -5   -9    3     -0.82      0.00
   -4   -9    3     -2.53      0.00
   -3   -9    3     -5.83      0.00
   -2   -9    3     -5.59      0.00
   -1   -9    3      0.52      0.00
    0   -9    3     -2.79      0.00
    1   -9    3      0.90      0.00
    2   -9    3      0.81      0.00
    3   -9    3      0.49      0.00
    4   -9    3     -1.63      0.00
    5   -9    3     -0.35      0.00
    6   -9    3      1.38      0.00
    7   -9    3      0.19      0.00
   -7   -8    3     -0.13      0.00
   -6   -8    3      0.31      0.00
   -5   -8    3     -0.25      0.00
   -4   -8    3     -1.15      0.00
   -3   -8    3     -5.11      0.00
   -2   -8    3     -8.35      0.00
   -1   -8    3     -3.42      0.00
    0   -8    3     -5.34      0.00
    1   -8    3      0.44      0.00
    2   -8    3     -1.61      0.00
    3   -8    3     -1.04      0.00
    4   -8    3     -2.71      0.00
    5   -8    3     -1.30      0.00
    6   -8    3      0.91      0.00
    7   -8    3     -0.46      0.00
   -7   -7    3     -0.20      0.00
   -6   -7    3      0.22      0.00
   -5   -7    3      0.00      0.00
   -4   -7    3      0.10      0.00
   -3   -7    3     -3.52      0.00
   -2   -7    3     -6.80      0.00
   -1   -7    3     -6.28      0.00
    0   -7    3     -6.39      0.00
    1   -7    3     -1.27      0.00
    2   -7    3     -4.18      0.00
    3   -7    3     -2.17      0.00
    4   -7    3     -2.09      0.00
    5   -7    3     -1.40      0.00
    6   -7    3      0.18      0.00
    7   -7    3     -1.20      0.00
   -8   -6    3      0.42      0.00
   -7   -6    3     -0.07      0.00
   -6   -6    3      0.22      0.00
   -5   -6    3      0.09      0.00
   -4   -6    3      0.34      0.00
   -3   -6    3     -4.18      0.00
   -2   -6    3     -3.41      0.00
   -1   -6    3     -5.37      0.00
    0   -6    3     -3.30      0.00
    1   -6    3     -3.98      0.00
    2   -6    3     -5.49      0.00
    3   -6    3     -4.01      0.00
    4   -6    3     -0.98      0.00
    5   -6    3     -0.85      0.00
    6   -6    3     -0.04      0.00
    7   -6    3     -1.67      0.00
   -8   -5    3     -0.02      0.00
   -7   -5    3      0.35      0.00
   -6   -5    3      1.07      0.00
   -5   -5    3      0.88      0.00
   -4   -5    3      0.19      0.00
   -2   -5    3     -2.10      0.00
   -1   -5    3     -0.79      0.00
    0   -5    3      6.02      0.00
    1   -5    3     -5.08      0.00
    2   -5    3     -4.99      0.00
    3   -5    3     -6.13      0.00
    4   -5    3     -0.82      0.00
    5   -5    3     -0.51      0.00
    6   -5    3      0.42      0.00
    7   -5    3     -1.54      0.00
   -8   -4    3     -0.24      0.00
   -7   -4    3      0.68      0.00
   -6   -4    3      2.54      0.00
   -5   -4    3      2.89      0.00
   -4   -4    3      1.25      0.00
   -3   -4    3     -9.78      0.00
   -2   -4    3     -3.56      0.00
   -1   -4    3      4.71      0.00
    0   -4    3     19.58      0.00
    1   -4    3     -1.29      0.00
    2   -4    3     -3.02      0.00
    3   -4    3     -6.80      0.00
    4   -4    3     -1.07      0.00
    5   -4    3     -0.42      0.00
    6   -4    3      1.06      0.00
    7   -4    3     -0.88      0.00
    8   -4    3      0.05      0.00
   -8   -3    3     -0.05      0.00
   -7   -3    3      0.54      0.00
   -6   -3    3      3.09      0.00
   -5   -3    3      4.77      0.00
   -4   -3    3      3.62      0.00
   -2   -3    3     -4.52      0.00
   -1   -3    3      9.86      0.00
    0   -3    3     29.57      0.00
    1   -3    3      6.72      0.00
    2   -3    3     -0.58      0.00
    3   -3    3     -5.67      0.00
    4   -3    3     -0.54      0.00
    5   -3    3      0.06      0.00
    6   -3    3      1.33      0.00
    7   -3    3     -0.17      0.00
    8   -3    3     -0.26      0.00
   -8   -2    3      0.00      0.00
   -7   -2    3      0.17      0.00
   -6   -2    3      1.90      0.00
   -5   -2    3      4.55      0.00
   -4   -2    3      5.24      0.00
   -3   -2    3     -0.24      0.00
   -2   -2    3     -2.42      0.00
   -1   -2    3     17.28      0.00
    0   -2    3     30.06      0.00
    1   -2    3     14.87      0.00
    2   -2    3      0.58      0.00
    3   -2    3     -4.01      0.00
    4   -2    3      0.81      0.00
    5   -2    3      1.06      0.00
    6   -2    3      1.13      0.00
    7   -2    3      0.22      0.00
    8   -2    3     -0.58      0.00
   -8   -1    3     -0.76      0.00
   -7   -1    3     -0.03      0.00
   -6   -1    3      0.14      0.00
   -5   -1    3      2.36      0.00
   -4   -1    3      4.49      0.00
   -3   -1    3      3.20      0.00
   -2   -1    3      0.49      0.00
   -1   -1    3     27.41      0.00
    0   -1    3     24.31      0.00
    1   -1    3     21.17      0.00
    2   -1    3     -0.75      0.00
    4   -1    3      2.30      0.00
    5   -1    3      2.25      0.00
    6   -1    3      1.01      0.00
    7   -1    3      0.39      0.00
    8   -1    3     -0.35      0.00
   -8    0    3     -1.96      0.00
   -7    0    3     -0.02      0.00
   -6    0    3     -0.65      0.00
   -5    0    3      0.19      0.00
   -4    0    3      1.89      0.00
   -2    0    3     -0.35      0.00
   -1    0    3     32.61      0.00
    0    0    3     18.31      0.00
    1    0    3     25.50      0.00
    2    0    3     -4.07      0.00
    3    0    3     -1.78      0.00
    4    0    3      3.14      0.00
    5    0    3      3.20      0.00
    6    0    3      1.43      0.00
    7    0    3      0.57      0.00
    8    0    3      0.27      0.00
   -8    1    3     -2.41      0.00
   -7    1    3      0.09      0.00
   -6    1    3     -0.25      0.00
   -5    1    3     -0.71      0.00
   -4    1    3     -0.98      0.00
   -3    1    3     -5.04      0.00
   -2    1    3     -5.43      0.00
   -1    1    3     24.87      0.00
    0    1    3     11.79      0.00
    1    1    3     24.59      0.00
    2    1    3     -8.12      0.00
    3    1    3     -1.59      0.00
    4    1    3      2.72      0.00
    5    1    3      3.37      0.00
    6    1    3      1.89      0.00
    7    1    3      0.77      0.00
    8    1    3      0.50      0.00
   -8    2    3     -1.56      0.00
   -7    2    3      0.34      0.00
   -6    2    3      0.60      0.00
   -5    2    3     -0.49      0.00
   -4    2    3     -2.56      0.00
   -3    2    3     -8.70      0.00
   -2    2    3    -10.16      0.00
   -1    2    3      8.26      0.00
    0    2    3      2.75      0.00
    1    2    3     15.20      0.00
    2    2    3    -11.95      0.00
    3    2    3     -2.55      0.00
    4    2    3      1.48      0.00
    5    2    3      2.73      0.00
    6    2    3      1.66      0.00
    7    2    3      0.74      0.00
    8    2    3      0.27      0.00
   -8    3    3     -0.06      0.00
   -7    3    3      0.64      0.00
   -6    3    3      1.25      0.00
   -5    3    3      0.14      0.00
   -4    3    3     -1.93      0.00
   -3    3    3     -8.23      0.00
   -2    3    3    -10.07      0.00
   -1    3    3     -4.56      0.00
    0    3    3     -4.94      0.00
    1    3    3      1.98      0.00
    2    3    3    -14.20      0.00
    3    3    3     -4.26      0.00
    4    3    3      0.54      0.00
    5    3    3      2.05      0.00
    6    3    3      1.09      0.00
    7    3    3      0.46      0.00
    8    3    3      0.27      0.00
   -8    4    3      1.08      0.00
   -7    4    3      0.64      0.00
   -6    4    3      1.31      0.00
   -5    4    3      0.36      0.00
   -4    4    3     -0.15      0.00
   -3    4    3     -4.78      0.00
   -2    4    3     -4.88      0.00
   -1    4    3     -6.96      0.00
    0    4    3     -6.42      0.00
    1    4    3     -5.98      0.00
    2    4    3    -13.32      0.00
    4    4    3      0.18      0.00
    5    4    3      1.72      0.00
    6    4    3      0.93      0.00
    7    4    3      0.16      0.00
    8    4    3      0.64      0.00
   -8    5    3      1.43      0.00
   -7    5    3      0.32      0.00
   -6    5    3      0.75      0.00
   -5    5    3     -0.22      0.00
   -4    5    3      0.49      0.00
   -3    5    3     -1.03      0.00
   -2    5    3      2.26      0.00
   -1    5    3     -2.39      0.00
    0    5    3     -3.14      0.00
    1    5    3     -6.16      0.00
    2    5    3     -9.44      0.00
    3    5    3     -6.40      0.00
    4    5    3     -0.14      0.00
    5    5    3      1.22      0.00
    6    5    3      0.93      0.00
    7    5    3     -0.12      0.00
    8    5    3      0.73      0.00
   -7    6    3      0.17      0.00
   -6    6    3      0.06      0.00
   -5    6    3     -1.12      0.00
   -4    6    3     -0.42      0.00
   -3    6    3      1.23      0.00
   -2    6    3      7.23      0.00
   -1    6    3      3.35      0.00
    0    6    3      0.23      0.00
    1    6    3     -3.25      0.00
    2    6    3     -4.47      0.00
    3    6    3     -5.73      0.00
    4    6    3     -0.43      0.00
    5    6    3      0.42      0.00
    6    6    3      0.57      0.00
    7    6    3     -0.45      0.00
    8    6    3      0.27      0.00
   -7    7    3      0.48      0.00
   -6    7    3     -0.31      0.00
   -5    7    3     -1.76      0.00
   -4    7    3     -1.14      0.00
   -3    7    3      2.02      0.00
   -1    7    3      6.67      0.00
    0    7    3      1.34      0.00
    1    7    3     -1.06      0.00
    2    7    3     -0.19      0.00
    3    7    3     -3.73      0.00
    4    7    3     -0.29      0.00
    5    7    3     -0.24      0.00
    6    7    3      0.12      0.00
    7    7    3     -0.64      0.00
    8    7    3     -0.10      0.00
   -7    8    3      0.80      0.00
   -6    8    3     -0.31      0.00
   -5    8    3     -2.21      0.00
   -4    8    3     -1.04      0.00
   -3    8    3      1.97      0.00
   -1    8    3      5.57      0.00
    0    8    3     -0.34      0.00
    1    8    3     -0.17      0.00
    2    8    3      2.33      0.00
    3    8    3     -1.24      0.00
    4    8    3     -0.07      0.00
    5    8    3     -0.80      0.00
    6    8    3     -0.20      0.00
    7    8    3     -0.44      0.00
   -7    9    3      0.68      0.00
   -6    9    3     -0.13      0.00
   -5    9    3     -2.52      0.00
   -4    9    3     -1.27      0.00
   -3    9    3      1.18      0.00
   -2    9    3     -0.16      0.00
   -1    9    3      1.03      0.00
    0    9    3     -4.07      0.00
    1    9    3     -0.75      0.00
    2    9    3      2.47      0.00
    3    9    3      0.17      0.00
    4    9    3     -0.44      0.00
    5    9    3     -1.48      0.00
    6    9    3     -0.73      0.00
    7    9    3     -0.16      0.00
   -7   10    3      0.38      0.00
   -6   10    3      0.12      0.00
   -5   10    3     -2.34      0.00
   -4   10    3     -1.96      0.00
   -3   10    3     -0.08      0.00
   -2   10    3     -0.97      0.00
   -1   10    3     -2.72      0.00
    0   10    3     -6.95      0.00
    1   10    3     -2.49      0.00
    2   10    3      1.10      0.00
    3   10    3     -0.22      0.00
    4   10    3     -1.38      0.00
    5   10    3     -2.03      0.00
    6   10    3     -1.40      0.00
    7   10    3     -0.36      0.00
   -6   11    3      0.45      0.00
   -5   11    3     -1.71      0.00
   -4   11    3     -1.86      0.00
   -3   11    3     -0.67      0.00
   -2   11    3      0.06      0.00
   -1   11    3     -2.93      0.00
    0   11    3     -6.77      0.00
    1   11    3     -3.62      0.00
    2   11    3      0.19      0.00
    3   11    3     -1.22      0.00
    4   11    3     -2.25      0.00
    5   11    3     -2.39      0.00
    6   11    3     -1.67      0.00
    7   11    3     -0.99      0.00
   -6   12    3      0.76      0.00
   -5   12    3     -1.10      0.00
   -4   12    3     -0.67      0.00
   -3   12    3      0.06      0.00
   -2   12    3      0.91      0.00
   -1   12    3     -1.02      0.00
    0   12    3     -4.94      0.00
    1   12    3     -3.00      0.00
    2   12    3      0.41      0.00
    3   12    3     -1.14      0.00
    4   12    3     -2.34      0.00
    5   12    3     -2.71      0.00
    6   12    3     -1.59      0.00
    7   12    3     -1.49      0.00
   -6   13    3      0.73      0.00
   -5   13    3     -0.79      0.00
   -4   13    3      0.45      0.00
   -3   13    3      1.35      0.00
   -2   13    3      1.18      0.00
   -1   13    3      0.73      0.00
    0   13    3     -3.62      0.00
    1   13    3     -1.24      0.00
    2   13    3      0.85      0.00
    3   13    3      0.09      0.00
    4   13    3     -1.35      0.00
    5   13    3     -2.14      0.00
    6   13    3     -1.35      0.00
   -5   14    3     -0.83      0.00
   -4   14    3      0.64      0.00
   -3   14    3      2.04      0.00
   -2   14    3      1.22      0.00
   -1   14    3      1.88      0.00
    0   14    3     -2.50      0.00
    1   14    3      0.74      0.00
    2   14    3      1.24      0.00
    3   14    3      1.25      0.00
    4   14    3     -0.01      0.00
    5   14    3     -0.11      0.00
    6   14    3     -0.61      0.00
   -5   15    3     -1.23      0.00
   -4   15    3      0.13      0.00
   -3   15    3      1.75      0.00
   -2   15    3      0.62      0.00
   -1   15    3      2.45      0.00
    0   15    3     -0.86      0.00
    1   15    3      2.20      0.00
    2   15    3      2.01      0.00
    3   15    3      1.66      0.00
    4   15    3      0.62      0.00
    5   15    3      1.79      0.00
    6   15    3      0.51      0.00
   -4   16    3     -0.32      0.00
   -3   16    3      0.93      0.00
   -2   16    3     -0.55      0.00
   -1   16    3      2.00      0.00
    0   16    3      0.25      0.00
    1   16    3      2.44      0.00
    2   16    3      2.53      0.00
    3   16    3      1.53      0.00
    4   16    3      0.50      0.00
    5   16    3      1.71      0.00
   -3   17    3      0.29      0.00
   -2   17    3     -0.97      0.00
   -1   17    3      0.87      0.00
    0   17    3      0.04      0.00
    1   17    3      1.60      0.00
    2   17    3      1.94      0.00
    3   17    3      1.06      0.00
    4   17    3      0.45      0.00
    5   17    3      0.36      0.00
   -3   18    3      0.17      0.00
   -2   18    3      0.04      0.00
   -1   18    3      0.21      0.00
    0   18    3     -0.56      0.00
    1   18    3      0.73      0.00
    2   18    3      0.88      0.00
    3   18    3      0.40      0.00
    4   18    3      0.65      0.00
   -2   19    3      1.17      0.00
   -1   19    3      0.29      0.00
    0   19    3     -0.64      0.00
    1   19    3      0.31      0.00
    2   19    3      0.38      0.00
    3   19    3     -0.12      0.00
    0   20    3     -0.48      0.00
    1   20    3      0.11      0.00
   -3  -18    4      0.03      0.00
   -2  -18    4     -0.24      0.00
   -1  -18    4     -0.48      0.00
    0  -18    4      0.27      0.00
    1  -18    4      0.22      0.00
    2  -18    4     -0.39      0.00
   -4  -17    4      2.10      0.00
   -3  -17    4      0.23      0.00
   -2  -17    4     -0.21      0.00
   -1  -17    4      1.38      0.00
    0  -17    4      2.37      0.00
    1  -17    4      1.08      0.00
    2  -17    4      0.02      0.00
    3  -17    4      0.57      0.00
   -4  -16    4      2.21      0.00
   -3  -16    4      0.00      0.00
   -2  -16    4     -0.68      0.00
   -1  -16    4      1.74      0.00
    0  -16    4      2.88      0.00
    1  -16    4      1.69      0.00
    2  -16    4      1.01      0.00
    3  -16    4      1.18      0.00
   -5  -15    4     -0.13      0.00
   -4  -15    4      1.57      0.00
   -3  -15    4     -0.94      0.00
   -2  -15    4     -1.22      0.00
   -1  -15    4      0.52      0.00
    0  -15    4      1.47      0.00
    1  -15    4      1.35      0.00
    2  -15    4      1.24      0.00
    3  -15    4      1.85      0.00
    4  -15    4      0.99      0.00
   -5  -14    4     -0.14      0.00
   -4  -14    4      0.54      0.00
   -3  -14    4     -1.92      0.00
   -2  -14    4     -1.59      0.00
   -1  -14    4     -1.02      0.00
    0  -14    4     -0.15      0.00
    1  -14    4      0.25      0.00
    2  -14    4      0.27      0.00
    3  -14    4      1.43      0.00
    4  -14    4      1.84      0.00
    5  -14    4      1.48      0.00
   -6  -13    4      0.71      0.00
   -5  -13    4      0.20      0.00
   -4  -13    4      0.31      0.00
   -3  -13    4     -1.41      0.00
   -2  -13    4     -1.79      0.00
   -1  -13    4     -1.69      0.00
    0  -13    4     -0.68      0.00
    1  -13    4     -0.71      0.00
    2  -13    4     -0.72      0.00
    3  -13    4     -0.25      0.00
    4  -13    4      1.47      0.00
    5  -13    4      0.94      0.00
   -6  -12    4      0.80      0.00
   -5  -12    4      0.87      0.00
   -4  -12    4      1.32      0.00
   -3  -12    4      1.23      0.00
   -2  -12    4     -1.37      0.00
   -1  -12    4     -1.38      0.00
    0  -12    4     -0.53      0.00
    1  -12    4     -0.86      0.00
    2  -12    4     -0.67      0.00
    3  -12    4     -1.81      0.00
    4  -12    4      0.52      0.00
    5  -12    4     -0.26      0.00
    6  -12    4      0.41      0.00
   -7  -11    4     -0.78      0.00
   -6  -11    4      0.19      0.00
   -5  -11    4      0.94      0.00
   -4  -11    4      2.27      0.00
   -3  -11    4      4.50      0.00
   -2  -11    4      0.79      0.00
   -1  -11    4     -0.45      0.00
    0  -11    4     -0.10      0.00
    1  -11    4     -0.16      0.00
    2  -11    4      0.08      0.00
    3  -11    4     -1.60      0.00
    4  -11    4      0.33      0.00
    5  -11    4     -0.91      0.00
    6  -11    4     -0.52      0.00
   -7  -10    4     -0.44      0.00
   -6  -10    4     -0.72      0.00
   -5  -10    4     -0.03      0.00
   -4  -10    4      1.58      0.00
   -3  -10    4      6.02      0.00
   -2  -10    4      4.88      0.00
   -1  -10    4      1.08      0.00
    0  -10    4      1.35      0.00
    1  -10    4      1.10      0.00
    2  -10    4      0.82      0.00
    3  -10    4      0.22      0.00
    4  -10    4      1.52      0.00
    5  -10    4     -0.33      0.00
    6  -10    4     -1.10      0.00
   -7   -9    4      0.06      0.00
   -6   -9    4     -1.50      0.00
   -5   -9    4     -1.56      0.00
   -4   -9    4     -0.75      0.00
   -3   -9    4      4.66      0.00
   -2   -9    4      8.51      0.00
   -1   -9    4      2.85      0.00
    0   -9    4      3.54      0.00
    1   -9    4      2.13      0.00
    2   -9    4      1.71      0.00
    3   -9    4      1.38      0.00
    4   -9    4      2.74      0.00
    5   -9    4      0.90      0.00
    6   -9    4     -0.75      0.00
    7   -9    4     -0.82      0.00
   -7   -8    4      0.46      0.00
   -6   -8    4     -1.86      0.00
   -5   -8    4     -2.89      0.00
   -4   -8    4     -3.32      0.00
   -3   -8    4      1.53      0.00
   -2   -8    4      8.32      0.00
   -1   -8    4      3.39      0.00
    0   -8    4      3.84      0.00
    1   -8    4      1.87      0.00
    2   -8    4      3.08      0.00
    3   -8    4      0.51      0.00
    4   -8    4      2.00      0.00
    5   -8    4      1.31      0.00
    6   -8    4      0.21      0.00
    7   -8    4      0.02      0.00
   -7   -7    4      0.43      0.00
   -6   -7    4     -1.85      0.00
   -5   -7    4     -3.47      0.00
   -4   -7    4     -4.60      0.00
   -3   -7    4     -0.50      0.00
   -2   -7    4      4.01      0.00
   -1   -7    4      1.09      0.00
    0   -7    4     -0.46      0.00
    1   -7    4      0.14      0.00
    2   -7    4      4.26      0.00
    3   -7    4     -0.82      0.00
    4   -7    4     -0.45      0.00
    5   -7    4      0.26      0.00
    6   -7    4      0.67      0.00
    7   -7    4      0.61      0.00
   -8   -6    4      0.78      0.00
   -7   -6    4     -0.16      0.00
   -6   -6    4     -1.97      0.00
   -5   -6    4     -3.39      0.00
   -4   -6    4     -4.18      0.00
   -3   -6    4      1.02      0.00
   -2   -6    4     -0.66      0.00
   -1   -6    4     -4.08      0.00
    0   -6    4    -10.16      0.00
    1   -6    4     -2.48      0.00
    2   -6    4      3.97      0.00
    3   -6    4     -0.42      0.00
    4   -6    4     -2.12      0.00
    5   -6    4     -1.09      0.00
    6   -6    4      0.00      0.00
    7   -6    4      0.55      0.00
   -8   -5    4      0.95      0.00
   -7   -5    4     -0.79      0.00
   -6   -5    4     -2.63      0.00
   -5   -5    4     -3.52      0.00
   -4   -5    4     -3.32      0.00
   -2   -5    4     -1.82      0.00
   -1   -5    4     -9.46      0.00
    0   -5    4    -23.58      0.00
    1   -5    4     -6.14      0.00
    2   -5    4      1.70      0.00
    3   -5    4      1.16      0.00
    4   -5    4     -1.82      0.00
    5   -5    4     -1.47      0.00
    6   -5    4     -1.25      0.00
    7   -5    4      0.12      0.00
   -8   -4    4      0.60      0.00
   -7   -4    4     -0.76      0.00
   -6   -4    4     -3.10      0.00
   -5   -4    4     -4.14      0.00
   -4   -4    4     -3.38      0.00
   -3   -4    4      6.53      0.00
   -2   -4    4      0.25      0.00
   -1   -4    4    -11.24      0.00
    0   -4    4    -35.07      0.00
    1   -4    4    -10.68      0.00
    2   -4    4     -1.51      0.00
    3   -4    4      1.82      0.00
    4   -4    4     -1.04      0.00
    5   -4    4     -1.14      0.00
    6   -4    4     -2.06      0.00
    7   -4    4     -0.12      0.00
   -8   -3    4     -0.14      0.00
   -7   -3    4     -0.13      0.00
   -6   -3    4     -2.26      0.00
   -5   -3    4     -3.88      0.00
   -4   -3    4     -3.52      0.00
   -3   -3    4      3.52      0.00
   -2   -3    4      2.42      0.00
   -1   -3    4     -9.14      0.00
    0   -3    4    -36.85      0.00
    1   -3    4    -13.44      0.00
    2   -3    4     -3.35      0.00
    3   -3    4      1.34      0.00
    4   -3    4     -1.28      0.00
    5   -3    4     -0.96      0.00
    6   -3    4     -1.87      0.00
    7   -3    4      0.01      0.00
    8   -3    4     -0.74      0.00
   -8   -2    4     -0.33      0.00
   -7   -2    4      0.40      0.00
   -6   -2    4     -0.41      0.00
   -5   -2    4     -1.75      0.00
   -4   -2    4     -1.84      0.00
   -3   -2    4     -0.45      0.00
   -2   -2    4      3.53      0.00
   -1   -2    4     -7.67      0.00
    0   -2    4    -26.79      0.00
    1   -2    4    -12.33      0.00
    2   -2    4     -1.87      0.00
    3   -2    4      1.45      0.00
    4   -2    4     -2.08      0.00
    5   -2    4     -1.06      0.00
    6   -2    4     -0.99      0.00
    7   -2    4      0.23      0.00
    8   -2    4     -0.44      0.00
   -8   -1    4      0.55      0.00
   -7   -1    4      0.31      0.00
   -6   -1    4      0.82      0.00
   -5   -1    4      1.02      0.00
   -4   -1    4      1.47      0.00
   -3   -1    4     -0.17      0.00
   -2   -1    4      5.54      0.00
   -1   -1    4     -9.60      0.00
    0   -1    4    -11.66      0.00
    1   -1    4    -10.13      0.00
    2   -1    4      2.60      0.00
    3   -1    4      3.09      0.00
    4   -1    4     -2.15      0.00
    5   -1    4     -1.14      0.00
    6   -1    4     -0.31      0.00
    7   -1    4      0.34      0.00
    8   -1    4     -0.44      0.00
   -8    0    4      1.71      0.00
   -7    0    4     -0.27      0.00
   -6    0    4      0.48      0.00
   -5    0    4      2.34      0.00
   -4    0    4      4.22      0.00
   -3    0    4      4.42      0.00
   -2    0    4      9.22      0.00
   -1    0    4    -10.93      0.00
    0    0    4      0.96      0.00
    1    0    4    -10.41      0.00
    2    0    4      7.67      0.00
    3    0    4      5.27      0.00
    4    0    4     -0.70      0.00
    5    0    4     -1.03      0.00
    6    0    4     -0.35      0.00
    7    0    4      0.31      0.00
    8    0    4     -0.38      0.00
   -8    1    4      1.94      0.00
   -7    1    4     -0.88      0.00
   -6    1    4     -0.76      0.00
   -5    1    4      1.75      0.00
   -4    1    4      5.01      0.00
   -3    1    4      8.72      0.00
   -2    1    4     11.64      0.00
   -1    1    4     -7.14      0.00
    0    1    4      9.41      0.00
    1    1    4    -11.04      0.00
    2    1    4     11.21      0.00
    3    1    4      6.36      0.00
    4    1    4      1.74      0.00
    5    1    4     -0.60      0.00
    6    1    4     -0.56      0.00
    7    1    4      0.18      0.00
    8    1    4      0.09      0.00
   -8    2    4      1.10      0.00
   -7    2    4     -1.04      0.00
   -6    2    4     -1.58      0.00
   -5    2    4      0.46      0.00
   -4    2    4      3.85      0.00
   -3    2    4      8.89      0.00
    0    2    4     14.00      0.00
    1    2    4     -7.95      0.00
    2    2    4     12.43      0.00
    3    2    4      5.57      0.00
    4    2    4      3.42      0.00
    5    2    4     -0.08      0.00
    6    2    4     -0.24      0.00
    7    2    4      0.06      0.00
    8    2    4      0.41      0.00
   -8    3    4     -0.01      0.00
   -7    3    4     -0.49      0.00
   -6    3    4     -1.28      0.00
   -5    3    4     -0.04      0.00
   -4    3    4      1.52      0.00
   -3    3    4      5.03      0.00
   -2    3    4      3.36      0.00
   -1    3    4      2.49      0.00
    0    3    4     13.52      0.00
    1    3    4     -2.69      0.00
    2    3    4     10.96      0.00
    3    3    4      3.52      0.00
    4    3    4      3.15      0.00
    5    3    4      0.16      0.00
    6    3    4      0.34      0.00
    7    3    4      0.08      0.00
    8    3    4     -0.09      0.00
   -8    4    4     -0.73      0.00
   -7    4    4      0.38      0.00
   -6    4    4     -0.15      0.00
   -5    4    4      0.94      0.00
   -4    4    4     -0.25      0.00
   -3    4    4      0.17      0.00
   -2    4    4     -4.14      0.00
    0    4    4      8.93      0.00
    1    4    4      0.35      0.00
    2    4    4      7.08      0.00
    3    4    4      1.72      0.00
    4    4    4      1.83      0.00
    5    4    4      0.39      0.00
    6    4    4      0.61      0.00
    7    4    4      0.20      0.00
    8    4    4     -0.92      0.00
   -7    5    4      0.75      0.00
   -6    5    4      0.74      0.00
   -5    5    4      2.65      0.00
   -4    5    4      0.15      0.00
   -3    5    4     -2.35      0.00
   -2    5    4     -9.87      0.00
   -1    5    4     -1.13      0.00
    0    5    4      4.33      0.00
    1    5    4      0.90      0.00
    2    5    4      2.47      0.00
    3    5    4      1.21      0.00
    4    5    4      1.09      0.00
    5    5    4      1.12      0.00
    6    5    4      0.69      0.00
    7    5    4      0.28      0.00
    8    5    4     -1.19      0.00
   -7    6    4      0.24      0.00
   -6    6    4      0.63      0.00
   -5    6    4      3.58      0.00
   -4    6    4      1.88      0.00
   -3    6    4     -1.77      0.00
   -2    6    4    -11.09      0.00
   -1    6    4     -3.01      0.00
    0    6    4      2.25      0.00
    1    6    4      1.58      0.00
    2    6    4     -0.99      0.00
    3    6    4      1.51      0.00
    4    6    4      1.13      0.00
    5    6    4      2.01      0.00
    6    6    4      0.79      0.00
    7    6    4      0.20      0.00
    8    6    4     -0.87      0.00
   -7    7    4     -0.65      0.00
   -6    7    4     -0.21      0.00
   -5    7    4      3.17      0.00
   -4    7    4      2.60      0.00
   -3    7    4     -0.23      0.00
   -2    7    4     -6.99      0.00
   -1    7    4     -3.10      0.00
    0    7    4      2.51      0.00
    1    7    4      2.93      0.00
    2    7    4     -2.70      0.00
    3    7    4      1.34      0.00
    4    7    4      1.17      0.00
    5    7    4      2.55      0.00
    6    7    4      0.79      0.00
    7    7    4     -0.05      0.00
    8    7    4     -0.62      0.00
   -7    8    4     -1.14      0.00
   -6    8    4     -0.98      0.00
   -5    8    4      2.03      0.00
   -4    8    4      1.70      0.00
   -3    8    4      0.04      0.00
   -2    8    4     -0.91      0.00
   -1    8    4     -0.87      0.00
    0    8    4      4.65      0.00
    1    8    4      3.93      0.00
    2    8    4     -2.66      0.00
    3    8    4      0.42      0.00
    4    8    4      1.03      0.00
    5    8    4      2.86      0.00
    6    8    4      0.86      0.00
    7    8    4     -0.24      0.00
   -7    9    4     -1.01      0.00
   -6    9    4     -1.28      0.00
   -5    9    4      0.66      0.00
   -4    9    4      0.34      0.00
   -3    9    4     -1.04      0.00
   -2    9    4      1.97      0.00
   -1    9    4      1.93      0.00
    0    9    4      7.34      0.00
    1    9    4      4.32      0.00
    2    9    4     -1.19      0.00
    3    9    4     -0.30      0.00
    4    9    4      1.00      0.00
    5    9    4      2.95      0.00
    6    9    4      1.32      0.00
    7    9    4     -0.02      0.00
   -6   10    4     -1.17      0.00
   -5   10    4     -0.58      0.00
   -4   10    4     -0.80      0.00
   -3   10    4     -2.53      0.00
   -2   10    4      0.21      0.00
   -1   10    4      2.40      0.00
    0   10    4      7.72      0.00
    1   10    4      3.93      0.00
    2   10    4      0.02      0.00
    3   10    4     -0.32      0.00
    4   10    4      1.06      0.00
    5   10    4      2.54      0.00
    6   10    4      1.76      0.00
    7   10    4      0.63      0.00
   -6   11    4     -0.82      0.00
   -5   11    4     -1.03      0.00
   -4   11    4     -1.71      0.00
   -3   11    4     -3.95      0.00
   -2   11    4     -2.95      0.00
   -1   11    4      0.29      0.00
    0   11    4      5.14      0.00
    1   11    4      2.49      0.00
    2   11    4     -0.73      0.00
    3   11    4     -0.56      0.00
    4   11    4      0.69      0.00
    5   11    4      1.98      0.00
    6   11    4      1.61      0.00
    7   11    4      1.28      0.00
   -6   12    4     -0.38      0.00
   -5   12    4     -0.41      0.00
   -4   12    4     -1.99      0.00
   -3   12    4     -4.76      0.00
   -2   12    4     -4.24      0.00
   -1   12    4     -2.23      0.00
    0   12    4      2.29      0.00
    1   12    4      0.54      0.00
    2   12    4     -2.68      0.00
    3   12    4     -1.76      0.00
    4   12    4     -0.54      0.00
    5   12    4      1.63      0.00
    6   12    4      1.09      0.00
    7   12    4      1.48      0.00
   -5   13    4      0.49      0.00
   -4   13    4     -1.40      0.00
   -3   13    4     -4.26      0.00
   -2   13    4     -3.31      0.00
   -1   13    4     -3.70      0.00
    0   13    4      1.01      0.00
    1   13    4     -1.24      0.00
    2   13    4     -3.83      0.00
    3   13    4     -3.16      0.00
    4   13    4     -2.19      0.00
    5   13    4      0.82      0.00
    6   13    4      0.52      0.00
   -5   14    4      0.96      0.00
   -4   14    4     -0.47      0.00
   -3   14    4     -2.64      0.00
   -2   14    4     -1.41      0.00
   -1   14    4     -3.98      0.00
    0   14    4      0.44      0.00
    1   14    4     -2.74      0.00
    2   14    4     -3.84      0.00
    3   14    4     -3.56      0.00
    4   14    4     -2.92      0.00
    5   14    4     -0.65      0.00
    6   14    4     -0.11      0.00
   -5   15    4      1.07      0.00
   -4   15    4      0.17      0.00
   -3   15    4     -1.06      0.00
   -2   15    4      0.42      0.00
   -1   15    4     -3.03      0.00
    0   15    4     -0.04      0.00
    1   15    4     -3.41      0.00
    2   15    4     -3.42      0.00
    3   15    4     -2.84      0.00
    4   15    4     -2.08      0.00
    5   15    4     -1.31      0.00
    6   15    4     -0.47      0.00
   -4   16    4      0.37      0.00
   -3   16    4     -0.24      0.00
   -2   16    4      1.28      0.00
   -1   16    4     -1.34      0.00
    0   16    4      0.19      0.00
    1   16    4     -2.68      0.00
    2   16    4     -2.46      0.00
    3   16    4     -1.60      0.00
    4   16    4     -0.74      0.00
    5   16    4     -0.31      0.00
   -3   17    4      0.01      0.00
   -2   17    4      0.60      0.00
   -1   17    4     -0.18      0.00
    0   17    4      0.95      0.00
    1   17    4     -1.32      0.00
    2   17    4     -1.01      0.00
    3   17    4     -0.44      0.00
    4   17    4     -0.19      0.00
   -3   18    4      0.20      0.00
   -2   18    4     -0.90      0.00
   -1   18    4     -0.15      0.00
    0   18    4      1.15      0.00
    1   18    4     -0.54      0.00
    2   18    4     -0.04      0.00
    3   18    4      0.18      0.00
    4   18    4     -0.30      0.00
   -2   19    4     -1.59      0.00
   -1   19    4     -0.41      0.00
    0   19    4      0.63      0.00
    1   19    4     -0.29      0.00
    2   19    4      0.05      0.00
    3   19    4      0.20      0.00
    1   20    4     -0.08      0.00
   -2  -18    5     -0.80      0.00
   -1  -18    5     -0.48      0.00
    0  -18    5     -1.66      0.00
    1  -18    5     -1.42      0.00
   -3  -17    5     -0.18      0.00
   -2  -17    5     -0.65      0.00
   -1  -17    5     -1.00      0.00
    0  -17    5     -2.06      0.00
    1  -17    5     -1.20      0.00
    2  -17    5     -0.14      0.00
   -4  -16    5     -1.50      0.00
   -3  -16    5     -0.08      0.00
   -2  -16    5      0.04      0.00
   -1  -16    5     -0.13      0.00
    0  -16    5     -1.00      0.00
    1  -16    5     -0.29      0.00
    2  -16    5     -0.37      0.00
    3  -16    5     -2.76      0.00
   -5  -15    5     -0.04      0.00
   -4  -15    5     -1.10      0.00
   -3  -15    5      0.00      0.00
   -2  -15    5      0.48      0.00
   -1  -15    5      1.50      0.00
    0  -15    5      1.10      0.00
    1  -15    5      0.72      0.00
    2  -15    5     -0.02      0.00
    3  -15    5     -2.22      0.00
    4  -15    5     -2.15      0.00
   -5  -14    5     -0.07      0.00
   -4  -14    5     -0.75      0.00
   -3  -14    5     -0.38      0.00
   -2  -14    5      0.04      0.00
   -1  -14    5      2.37      0.00
    0  -14    5      2.77      0.00
    1  -14    5      1.36      0.00
    2  -14    5      0.61      0.00
    3  -14    5     -0.32      0.00
    4  -14    5     -1.61      0.00
   -6  -13    5     -0.13      0.00
   -5  -13    5     -0.18      0.00
   -4  -13    5     -0.80      0.00
   -3  -13    5     -1.69      0.00
   -2  -13    5     -0.99      0.00
   -1  -13    5      1.38      0.00
    0  -13    5      2.92      0.00
    1  -13    5      1.52      0.00
    2  -13    5      0.53      0.00
    3  -13    5      1.52      0.00
    4  -13    5     -0.64      0.00
    5  -13    5     -0.30      0.00
   -6  -12    5     -0.18      0.00
   -5  -12    5     -0.06      0.00
   -4  -12    5     -0.80      0.00
   -3  -12    5     -3.26      0.00
   -2  -12    5     -1.84      0.00
   -1  -12    5     -1.00      0.00
    0  -12    5      1.88      0.00
    1  -12    5      1.15      0.00
    2  -12    5     -0.49      0.00
    3  -12    5      1.77      0.00
    4  -12    5     -0.25      0.00
    5  -12    5      0.95      0.00
   -6  -11    5      0.34      0.00
   -5  -11    5      0.77      0.00
   -4  -11    5      0.23      0.00
   -3  -11    5     -3.47      0.00
   -2  -11    5     -2.38      0.00
   -1  -11    5     -3.13      0.00
    0  -11    5      0.34      0.00
    1  -11    5      0.12      0.00
    2  -11    5     -1.38      0.00
    3  -11    5      0.33      0.00
    4  -11    5     -0.71      0.00
    5  -11    5      1.16      0.00
    6  -11    5      0.36      0.00
   -7  -10    5     -0.21      0.00
   -6  -10    5      1.15      0.00
   -5  -10    5      2.22      0.00
   -4  -10    5      2.43      0.00
   -3  -10    5     -1.43      0.00
   -2  -10    5     -2.90      0.00
   -1  -10    5     -3.51      0.00
    0  -10    5     -1.20      0.00
    1  -10    5     -1.40      0.00
    2  -10    5     -1.31      0.00
    3  -10    5     -1.04      0.00
    4  -10    5     -1.31      0.00
    5  -10    5      0.30      0.00
    6  -10    5      0.49      0.00
   -7   -9    5     -0.98      0.00
   -6   -9    5      1.78      0.00
   -5   -9    5      3.60      0.00
   -4   -9    5      4.79      0.00
   -3   -9    5      2.03      0.00
   -2   -9    5     -2.57      0.00
   -1   -9    5     -1.49      0.00
    0   -9    5     -1.43      0.00
    1   -9    5     -2.06      0.00
    2   -9    5     -0.99      0.00
    3   -9    5     -0.35      0.00
    4   -9    5     -0.71      0.00
    5   -9    5     -0.40      0.00
    6   -9    5      0.00      0.00
   -7   -8    5     -1.20      0.00
   -6   -8    5      1.79      0.00
   -5   -8    5      4.10      0.00
   -4   -8    5      5.98      0.00
   -3   -8    5      4.88      0.00
   -2   -8    5     -0.08      0.00
   -1   -8    5      2.48      0.00
    0   -8    5      1.57      0.00
    1   -8    5     -0.17      0.00
    2   -8    5     -1.38      0.00
    3   -8    5      1.99      0.00
    4   -8    5      1.53      0.00
    5   -8    5      0.39      0.00
    6   -8    5     -0.57      0.00
    7   -8    5     -0.50      0.00
   -7   -7    5     -0.57      0.00
   -6   -7    5      1.22      0.00
   -5   -7    5      3.29      0.00
   -4   -7    5      5.19      0.00
   -3   -7    5      4.79      0.00
   -2   -7    5      3.61      0.00
   -1   -7    5      6.74      0.00
    0   -7    5      7.97      0.00
    1   -7    5      3.97      0.00
    2   -7    5     -1.89      0.00
    3   -7    5      3.37      0.00
    4   -7    5      3.60      0.00
    5   -7    5      2.27      0.00
    6   -7    5     -0.34      0.00
    7   -7    5     -0.73      0.00
   -7   -6    5      0.41      0.00
   -6   -6    5      0.70      0.00
   -5   -6    5      1.73      0.00
   -4   -6    5      2.94      0.00
   -3   -6    5      0.93      0.00
   -2   -6    5      5.00      0.00
   -1   -6    5      8.83      0.00
    0   -6    5     15.41      0.00
    1   -6    5      7.95      0.00
    2   -6    5     -0.91      0.00
    3   -6    5      2.51      0.00
    4   -6    5      3.34      0.00
    5   -6    5      3.19      0.00
    6   -6    5      0.71      0.00
    7   -6    5     -0.17      0.00
   -8   -5    5     -1.04      0.00
   -7   -5    5      0.71      0.00
   -6   -5    5      0.58      0.00
   -5   -5    5      0.74      0.00
   -4   -5    5      1.09      0.00
   -3   -5    5     -3.93      0.00
   -2   -5    5      2.15      0.00
   -1   -5    5      6.47      0.00
    0   -5    5     20.34      0.00
    1   -5    5      9.64      0.00
    2   -5    5      1.88      0.00
    3   -5    5      1.20      0.00
    4   -5    5      1.32      0.00
    5   -5    5      2.08      0.00
    6   -5    5      1.60      0.00
    7   -5    5      0.24      0.00
   -8   -4    5     -0.78      0.00
   -7   -4    5     -0.01      0.00
   -6   -4    5      0.30      0.00
   -5   -4    5      0.53      0.00
   -4   -4    5      0.53      0.00
   -3   -4    5     -5.39      0.00
   -2   -4    5     -2.49      0.00
   -1   -4    5     -0.57      0.00
    0   -4    5     19.05      0.00
    1   -4    5      8.03      0.00
    2   -4    5      4.42      0.00
    3   -4    5      1.27      0.00
    4   -4    5      0.06      0.00
    5   -4    5      0.13      0.00
    6   -4    5      1.53      0.00
    7   -4    5     -0.17      0.00
   -8   -3    5      0.01      0.00
   -7   -3    5     -0.92      0.00
   -6   -3    5     -0.58      0.00
   -5   -3    5     -0.08      0.00
   -4   -3    5     -0.36      0.00
   -3   -3    5     -2.74      0.00
   -2   -3    5     -5.39      0.00
   -1   -3    5     -8.38      0.00
    0   -3    5     10.02      0.00
    1   -3    5      2.97      0.00
    2   -3    5      4.05      0.00
    3   -3    5      1.68      0.00
    4   -3    5      0.54      0.00
    5   -3    5     -1.13      0.00
    6   -3    5      0.52      0.00
    7   -3    5     -0.94      0.00
    8   -3    5      1.13      0.00
   -8   -2    5      0.44      0.00
   -7   -2    5     -1.08      0.00
   -6   -2    5     -1.35      0.00
   -5   -2    5     -1.57      0.00
   -4   -2    5     -2.96      0.00
   -3   -2    5     -0.08      0.00
   -2   -2    5     -6.51      0.00
   -1   -2    5    -10.84      0.00
    0   -2    5     -2.85      0.00
    1   -2    5     -2.84      0.00
    2   -2    5      0.48      0.00
    3   -2    5      0.29      0.00
    4   -2    5      1.38      0.00
    5   -2    5     -1.46      0.00
    6   -2    5     -0.77      0.00
    7   -2    5     -1.35      0.00
    8   -2    5      0.67      0.00
   -8   -1    5      0.03      0.00
   -7   -1    5     -0.33      0.00
   -6   -1    5     -1.04      0.00
   -5   -1    5     -2.69      0.00
   -4   -1    5     -5.60      0.00
   -3   -1    5     -0.71      0.00
   -2   -1    5     -7.90      0.00
   -1   -1    5     -6.32      0.00
    0   -1    5    -12.77      0.00
    1   -1    5     -3.90      0.00
    2   -1    5     -3.62      0.00
    3   -1    5     -2.74      0.00
    4   -1    5      0.95      0.00
    5   -1    5     -1.36      0.00
    6   -1    5     -1.41      0.00
    7   -1    5     -1.34      0.00
    8   -1    5      0.23      0.00
   -8    0    5     -0.59      0.00
   -7    0    5      0.77      0.00
   -6    0    5      0.14      0.00
   -5    0    5     -2.36      0.00
   -4    0    5     -5.84      0.00
   -3    0    5     -3.15      0.00
   -2    0    5     -9.08      0.00
   -1    0    5      0.02      0.00
    0    0    5    -17.33      0.00
    1    0    5      1.44      0.00
    2    0    5     -5.51      0.00
    3    0    5     -4.77      0.00
    4    0    5     -1.00      0.00
    5    0    5     -1.26      0.00
    6    0    5     -1.09      0.00
    7    0    5     -1.14      0.00
    8    0    5     -0.45      0.00
   -8    1    5     -0.75      0.00
   -7    1    5      1.40      0.00
   -6    1    5      1.00      0.00
   -5    1    5     -1.10      0.00
   -4    1    5     -3.77      0.00
   -2    1    5     -7.35      0.00
   -1    1    5      2.78      0.00
    0    1    5    -19.04      0.00
    1    1    5      7.42      0.00
    2    1    5     -5.17      0.00
    3    1    5     -3.58      0.00
    4    1    5     -3.20      0.00
    5    1    5     -1.41      0.00
    6    1    5     -0.62      0.00
    7    1    5     -0.69      0.00
    8    1    5     -1.09      0.00
   -8    2    5     -0.60      0.00
   -7    2    5      0.92      0.00
   -6    2    5      0.67      0.00
   -5    2    5     -0.25      0.00
   -4    2    5     -1.14      0.00
   -3    2    5     -2.12      0.00
   -2    2    5     -2.25      0.00
   -1    2    5      2.08      0.00
    0    2    5    -18.91      0.00
    1    2    5      8.12      0.00
    2    2    5     -4.16      0.00
    3    2    5      0.33      0.00
    4    2    5     -3.82      0.00
    5    2    5     -1.69      0.00
    6    2    5     -0.88      0.00
    7    2    5     -0.15      0.00
    8    2    5     -0.87      0.00
   -8    3    5     -0.44      0.00
   -7    3    5     -0.45      0.00
   -6    3    5     -0.59      0.00
   -5    3    5     -0.68      0.00
   -4    3    5      0.64      0.00
   -2    3    5      3.58      0.00
   -1    3    5      0.83      0.00
    0    3    5    -15.52      0.00
    1    3    5      4.63      0.00
    2    3    5     -3.04      0.00
    3    3    5      4.08      0.00
    4    3    5     -2.52      0.00
    5    3    5     -1.94      0.00
    6    3    5     -1.52      0.00
    7    3    5      0.14      0.00
    8    3    5      0.25      0.00
   -8    4    5     -0.23      0.00
   -7    4    5     -1.56      0.00
   -6    4    5     -1.59      0.00
   -5    4    5     -2.13      0.00
   -4    4    5      0.69      0.00
   -3    4    5      3.12      0.00
   -2    4    5      7.76      0.00
   -1    4    5      0.29      0.00
    0    4    5     -9.66      0.00
    1    4    5      1.32      0.00
    2    4    5     -1.55      0.00
    3    4    5      4.91      0.00
    4    4    5     -0.99      0.00
    5    4    5     -2.32      0.00
    6    4    5     -1.68      0.00
    7    4    5      0.13      0.00
    8    4    5      1.17      0.00
   -7    5    5     -1.48      0.00
   -6    5    5     -1.28      0.00
   -5    5    5     -3.22      0.00
   -4    5    5     -0.91      0.00
   -3    5    5      1.88      0.00
   -2    5    5      9.29      0.00
   -1    5    5      0.37      0.00
    0    5    5     -4.35      0.00
    1    5    5     -0.49      0.00
    2    5    5      0.02      0.00
    3    5    5      2.65      0.00
    4    5    5     -0.66      0.00
    5    5    5     -2.86      0.00
    6    5    5     -1.22      0.00
    7    5    5      0.16      0.00
    8    5    5      1.19      0.00
   -7    6    5     -0.49      0.00
   -6    6    5      0.18      0.00
   -5    6    5     -2.69      0.00
   -4    6    5     -2.19      0.00
   -3    6    5     -1.27      0.00
   -1    6    5      0.71      0.00
    0    6    5     -1.14      0.00
    1    6    5     -1.65      0.00
    2    6    5      1.32      0.00
    3    6    5     -0.19      0.00
    4    6    5     -1.04      0.00
    5    6    5     -3.01      0.00
    6    6    5     -0.47      0.00
    7    6    5      0.44      0.00
    8    6    5      0.66      0.00
   -7    7    5      0.45      0.00
   -6    7    5      1.63      0.00
   -5    7    5     -0.87      0.00
   -4    7    5     -1.27      0.00
   -3    7    5     -2.65      0.00
   -2    7    5      2.63      0.00
   -1    7    5      0.48      0.00
    0    7    5     -0.18      0.00
    1    7    5     -2.28      0.00
    2    7    5      2.24      0.00
    3    7    5     -1.08      0.00
    4    7    5     -0.93      0.00
    5    7    5     -2.68      0.00
    6    7    5      0.17      0.00
    7    7    5      0.77      0.00
    8    7    5      0.22      0.00
   -7    8    5      0.79      0.00
   -6    8    5      2.21      0.00
   -5    8    5      1.10      0.00
   -4    8    5      1.29      0.00
   -3    8    5     -0.54      0.00
   -2    8    5     -1.30      0.00
   -1    8    5     -0.47      0.00
    0    8    5     -1.40      0.00
    1    8    5     -2.17      0.00
    2    8    5      2.19      0.00
    3    8    5     -0.02      0.00
    4    8    5     -0.13      0.00
    5    8    5     -2.26      0.00
    6    8    5      0.27      0.00
    7    8    5      0.85      0.00
   -7    9    5      0.55      0.00
   -6    9    5      1.89      0.00
   -5    9    5      2.58      0.00
   -4    9    5      3.54      0.00
   -3    9    5      3.06      0.00
   -2    9    5     -1.18      0.00
   -1    9    5     -0.63      0.00
    0    9    5     -2.98      0.00
    1    9    5     -1.46      0.00
    2    9    5      1.02      0.00
    3    9    5      1.19      0.00
    4    9    5      0.74      0.00
    5    9    5     -1.57      0.00
    6    9    5     -0.17      0.00
    7    9    5      0.59      0.00
   -6   10    5      1.05      0.00
   -5   10    5      3.14      0.00
   -4   10    5      4.37      0.00
   -3   10    5      5.45      0.00
   -2   10    5      1.90      0.00
   -1   10    5      0.80      0.00
    0   10    5     -2.44      0.00
    1   10    5     -0.20      0.00
    2   10    5      0.32      0.00
    3   10    5      1.60      0.00
    4   10    5      1.32      0.00
    5   10    5     -0.33      0.00
    6   10    5     -0.48      0.00
    7   10    5      0.16      0.00
   -6   11    5      0.18      0.00
   -5   11    5      2.37      0.00
   -4   11    5      3.70      0.00
   -3   11    5      5.83      0.00
   -2   11    5      4.03      0.00
   -1   11    5      2.44      0.00
    0   11    5     -0.28      0.00
    1   11    5      1.05      0.00
    2   11    5      1.33      0.00
    3   11    5      1.79      0.00
    4   11    5      1.97      0.00
    5   11    5      0.70      0.00
    6   11    5     -0.31      0.00
    7   11    5     -0.24      0.00
   -6   12    5     -0.29      0.00
   -5   12    5      0.82      0.00
   -4   12    5      2.02      0.00
   -3   12    5      4.53      0.00
   -2   12    5      3.20      0.00
   -1   12    5      3.03      0.00
    0   12    5      0.85      0.00
    1   12    5      1.45      0.00
    2   12    5      2.73      0.00
    3   12    5      2.17      0.00
    4   12    5      3.01      0.00
    5   12    5      0.85      0.00
    6   12    5      0.01      0.00
    7   12    5     -0.51      0.00
   -5   13    5     -0.21      0.00
   -4   13    5      0.42      0.00
   -3   13    5      2.19      0.00
   -2   13    5      0.61      0.00
   -1   13    5      2.93      0.00
    0   13    5      0.30      0.00
    1   13    5      1.28      0.00
    2   13    5      2.67      0.00
    3   13    5      2.07      0.00
    4   13    5      3.76      0.00
    5   13    5      0.65      0.00
    6   13    5      0.21      0.00
   -5   14    5     -0.31      0.00
   -4   14    5     -0.19      0.00
   -3   14    5      0.02      0.00
   -2   14    5     -1.58      0.00
   -1   14    5      2.53      0.00
    0   14    5     -0.47      0.00
    1   14    5      1.29      0.00
    2   14    5      1.42      0.00
    3   14    5      1.13      0.00
    4   14    5      3.02      0.00
    5   14    5      0.49      0.00
    6   14    5      0.28      0.00
   -5   15    5     -0.22      0.00
   -4   15    5     -0.11      0.00
   -3   15    5     -0.92      0.00
   -2   15    5     -2.20      0.00
   -1   15    5      1.63      0.00
    0   15    5     -0.80      0.00
    1   15    5      1.14      0.00
    2   15    5      0.09      0.00
    3   15    5     -0.09      0.00
    4   15    5      1.08      0.00
    5   15    5     -0.23      0.00
   -4   16    5     -0.13      0.00
   -3   16    5     -0.81      0.00
   -2   16    5     -1.33      0.00
   -1   16    5      0.59      0.00
    0   16    5     -1.00      0.00
    1   16    5      0.43      0.00
    2   16    5     -0.97      0.00
    3   16    5     -0.93      0.00
    4   16    5     -0.32      0.00
    5   16    5     -1.40      0.00
   -3   17    5     -0.66      0.00
   -2   17    5      0.15      0.00
   -1   17    5      0.13      0.00
    0   17    5     -1.02      0.00
    1   17    5     -0.03      0.00
    2   17    5     -1.41      0.00
    3   17    5     -1.13      0.00
    4   17    5     -0.29      0.00
   -3   18    5     -0.83      0.00
   -2   18    5      1.12      0.00
   -1   18    5      0.13      0.00
    0   18    5     -0.65      0.00
    1   18    5      0.13      0.00
    2   18    5     -0.88      0.00
    3   18    5     -0.65      0.00
    4   18    5      0.30      0.00
   -2   19    5      1.06      0.00
   -1   19    5     -0.04      0.00
    0   19    5     -0.13      0.00
    1   19    5      0.12      0.00
    2   19    5     -0.10      0.00
    3   19    5      0.04      0.00
   -2  -18    6      1.28      0.00
   -1  -18    6      0.13      0.00
    0  -18    6      0.55      0.00
   -3  -17    6      0.21      0.00
   -2  -17    6      1.21      0.00
   -1  -17    6     -0.23      0.00
    0  -17    6      0.11      0.00
    1  -17    6     -0.52      0.00
    2  -17    6     -0.16      0.00
   -4  -16    6      0.01      0.00
   -3  -16    6      0.40      0.00
   -2  -16    6      0.72      0.00
   -1  -16    6     -1.28      0.00
    0  -16    6     -0.81      0.00
    1  -16    6     -1.42      0.00
    2  -16    6     -0.33      0.00
    3  -16    6      1.67      0.00
   -5  -15    6      0.78      0.00
   -4  -15    6      0.03      0.00
   -3  -15    6      0.70      0.00
   -2  -15    6      0.60      0.00
   -1  -15    6     -2.13      0.00
    0  -15    6     -2.02      0.00
    1  -15    6     -1.83      0.00
    2  -15    6     -0.69      0.00
    3  -15    6      0.06      0.00
    4  -15    6      0.32      0.00
   -5  -14    6      0.80      0.00
   -4  -14    6     -0.10      0.00
   -3  -14    6      0.92      0.00
   -2  -14    6      1.31      0.00
   -1  -14    6     -1.55      0.00
    0  -14    6     -2.74      0.00
    1  -14    6     -1.65      0.00
    2  -14    6     -0.79      0.00
    3  -14    6     -2.14      0.00
    4  -14    6     -0.91      0.00
   -6  -13    6      0.19      0.00
   -5  -13    6      0.26      0.00
   -4  -13    6     -0.57      0.00
   -3  -13    6      0.87      0.00
   -2  -13    6      1.94      0.00
   -1  -13    6      0.69      0.00
    0  -13    6     -2.34      0.00
    1  -13    6     -1.28      0.00
    2  -13    6     -0.12      0.00
    3  -13    6     -3.21      0.00
    4  -13    6     -1.21      0.00
    5  -13    6     -0.77      0.00
   -6  -12    6      0.21      0.00
   -5  -12    6     -0.58      0.00
   -4  -12    6     -1.48      0.00
   -3  -12    6      0.10      0.00
   -2  -12    6      0.98      0.00
   -1  -12    6      3.10      0.00
    0  -12    6     -1.25      0.00
    1  -12    6     -0.97      0.00
    2  -12    6      0.87      0.00
    3  -12    6     -2.46      0.00
    4  -12    6     -0.56      0.00
    5  -12    6     -1.71      0.00
   -6  -11    6     -0.08      0.00
   -5  -11    6     -1.43      0.00
   -4  -11    6     -2.61      0.00
   -3  -11    6     -1.60      0.00
   -2  -11    6     -1.47      0.00
   -1  -11    6      3.65      0.00
    0  -11    6     -0.37      0.00
    1  -11    6     -0.47      0.00
    2  -11    6      0.98      0.00
    3  -11    6     -0.93      0.00
    4  -11    6      0.05      0.00
    5  -11    6     -1.72      0.00
    6  -11    6     -0.21      0.00
   -7  -10    6      0.85      0.00
   -6  -10    6     -0.54      0.00
   -5  -10    6     -2.04      0.00
   -4  -10    6     -3.41      0.00
   -3  -10    6     -3.71      0.00
   -2  -10    6     -3.70      0.00
   -1  -10    6      1.51      0.00
    0  -10    6     -0.19      0.00
    1  -10    6      0.43      0.00
    2  -10    6     -0.07      0.00
    3  -10    6     -0.45      0.00
    4  -10    6     -0.23      0.00
    5  -10    6     -0.84      0.00
    6  -10    6     -0.39      0.00
   -7   -9    6      1.33      0.00
   -6   -9    6     -0.69      0.00
   -5   -9    6     -2.02      0.00
   -4   -9    6     -3.45      0.00
   -3   -9    6     -5.41      0.00
   -2   -9    6     -4.83      0.00
   -1   -9    6     -2.44      0.00
    0   -9    6     -1.19      0.00
    1   -9    6      0.73      0.00
    2   -9    6     -0.89      0.00
    3   -9    6     -1.81      0.00
    4   -9    6     -1.59      0.00
    5   -9    6     -0.23      0.00
    6   -9    6     -0.15      0.00
   -7   -8    6      1.19      0.00
   -6   -8    6     -0.05      0.00
   -5   -8    6     -0.95      0.00
   -4   -8    6     -2.43      0.00
   -3   -8    6     -5.72      0.00
   -2   -8    6     -5.39      0.00
   -1   -8    6     -5.85      0.00
    0   -8    6     -3.39      0.00
    1   -8    6     -1.01      0.00
    2   -8    6     -0.47      0.00
    3   -8    6     -3.56      0.00
    4   -8    6     -3.22      0.00
    5   -8    6     -0.96      0.00
    6   -8    6      0.09      0.00
    7   -8    6      1.62      0.00
   -7   -7    6      0.33      0.00
   -6   -7    6      1.04      0.00
   -5   -7    6      1.05      0.00
   -4   -7    6     -0.31      0.00
   -3   -7    6     -3.51      0.00
   -2   -7    6     -5.00      0.00
   -1   -7    6     -5.79      0.00
    0   -7    6     -5.03      0.00
    1   -7    6     -3.91      0.00
    2   -7    6      0.17      0.00
    3   -7    6     -3.69      0.00
    4   -7    6     -3.37      0.00
    5   -7    6     -2.28      0.00
    6   -7    6     -0.14      0.00
    7   -7    6      1.43      0.00
   -7   -6    6     -0.50      0.00
   -6   -6    6      1.67      0.00
   -5   -6    6      2.72      0.00
   -4   -6    6      1.90      0.00
   -3   -6    6      0.98      0.00
   -2   -6    6     -2.22      0.00
   -1   -6    6     -0.81      0.00
    0   -6    6     -3.67      0.00
    2   -6    6     -0.67      0.00
    3   -6    6     -2.35      0.00
    4   -6    6     -1.35      0.00
    5   -6    6     -2.14      0.00
    6   -6    6     -0.50      0.00
    7   -6    6      0.47      0.00
   -7   -5    6     -0.39      0.00
   -6   -5    6      1.57      0.00
   -5   -5    6      2.85      0.00
   -4   -5    6      2.45      0.00
   -3   -5    6      4.60      0.00
   -2   -5    6      2.23      0.00
   -1   -5    6      7.61      0.00
    0   -5    6      1.39      0.00
    1   -5    6     -1.83      0.00
    2   -5    6     -2.71      0.00
    3   -5    6     -1.68      0.00
    4   -5    6      1.02      0.00
    5   -5    6     -0.07      0.00
    6   -5    6     -0.44      0.00
    7   -5    6      0.10      0.00
   -8   -4    6      0.75      0.00
   -7   -4    6      0.42      0.00
   -6   -4    6      1.37      0.00
   -5   -4    6      1.90      0.00
   -4   -4    6      1.47      0.00
   -3   -4    6      4.05      0.00
   -2   -4    6      4.86      0.00
   -1   -4    6     15.50      0.00
    0   -4    6      8.67      0.00
    1   -4    6      4.00      0.00
    2   -4    6     -3.70      0.00
    3   -4    6     -2.43      0.00
    4   -4    6      1.47      0.00
    5   -4    6      2.10      0.00
    6   -4    6      0.02      0.00
    7   -4    6      0.75      0.00
   -8   -3    6     -0.16      0.00
   -7   -3    6      1.02      0.00
   -6   -3    6      1.42      0.00
   -5   -3    6      1.37      0.00
   -4   -3    6      1.28      0.00
   -3   -3    6      0.12      0.00
   -2   -3    6      3.84      0.00
   -1   -3    6     18.32      0.00
    0   -3    6     15.35      0.00
    1   -3    6      9.72      0.00
    2   -3    6     -2.09      0.00
    3   -3    6     -2.82      0.00
    4   -3    6      0.07      0.00
    5   -3    6      2.86      0.00
    6   -3    6      0.63      0.00
    7   -3    6      1.46      0.00
   -8   -2    6     -0.74      0.00
   -7   -2    6      0.97      0.00
   -6   -2    6      1.32      0.00
   -5   -2    6      1.53      0.00
   -4   -2    6      2.70      0.00
   -3   -2    6     -3.37      0.00
   -2   -2    6      1.72      0.00
   -1   -2    6     14.06      0.00
    0   -2    6     18.39      0.00
    1   -2    6     11.53      0.00
    2   -2    6      0.76      0.00
    3   -2    6     -1.34      0.00
    4   -2    6     -1.32      0.00
    5   -2    6      2.39      0.00
    6   -2    6      1.23      0.00
    7   -2    6      1.54      0.00
    8   -2    6     -0.33      0.00
   -8   -1    6     -0.52      0.00
   -7   -1    6      0.43      0.00
   -6   -1    6      0.80      0.00
   -5   -1    6      1.47      0.00
   -4   -1    6      3.56      0.00
   -3   -1    6     -4.52      0.00
   -2   -1    6      1.43      0.00
   -1   -1    6      5.65      0.00
    0   -1    6     17.40      0.00
    1   -1    6      6.94      0.00
    2   -1    6      2.01      0.00
    3   -1    6      0.81      0.00
    4   -1    6     -1.28      0.00
    5   -1    6      1.70      0.00
    6   -1    6      1.34      0.00
    7   -1    6      1.21      0.00
    8   -1    6      0.22      0.00
   -8    0    6      0.02      0.00
   -7    0    6     -0.27      0.00
   -6    0    6      0.30      0.00
   -5    0    6      0.90      0.00
   -4    0    6      2.31      0.00
   -3    0    6     -4.30      0.00
   -2    0    6      2.07      0.00
   -1    0    6     -1.15      0.00
    0    0    6     16.01      0.00
    1    0    6     -1.33      0.00
    2    0    6      0.89      0.00
    3    0    6      0.96      0.00
    4    0    6      0.19      0.00
    5    0    6      1.50      0.00
    6    0    6      0.72      0.00
    7    0    6      0.61      0.00
    8    0    6      0.90      0.00
   -8    1    6      0.53      0.00
   -7    1    6     -0.63      0.00
   -6    1    6      0.37      0.00
   -5    1    6      0.33      0.00
   -4    1    6      0.22      0.00
   -3    1    6     -3.67      0.00
   -2    1    6      1.28      0.00
   -1    1    6     -3.27      0.00
    0    1    6     16.88      0.00
    1    1    6     -6.64      0.00
    2    1    6     -0.37      0.00
    3    1    6     -1.94      0.00
    4    1    6      1.83      0.00
    5    1    6      1.92      0.00
    6    1    6      0.17      0.00
    7    1    6     -0.30      0.00
    8    1    6      1.16      0.00
   -8    2    6      1.03      0.00
   -7    2    6     -0.14      0.00
   -6    2    6      1.01      0.00
   -5    2    6      0.15      0.00
   -4    2    6     -1.07      0.00
   -3    2    6     -2.86      0.00
   -2    2    6     -0.73      0.00
   -1    2    6     -2.13      0.00
    0    2    6     17.28      0.00
    1    2    6     -5.97      0.00
    2    2    6      0.12      0.00
    3    2    6     -5.97      0.00
    4    2    6      2.14      0.00
    5    2    6      2.43      0.00
    6    2    6      0.47      0.00
    7    2    6     -1.03      0.00
    8    2    6      0.57      0.00
   -8    3    6      1.33      0.00
   -7    3    6      0.88      0.00
   -6    3    6      1.59      0.00
   -5    3    6      0.44      0.00
   -4    3    6     -1.31      0.00
   -2    3    6     -2.37      0.00
   -1    3    6     -0.44      0.00
    0    3    6     13.30      0.00
    1    3    6     -2.85      0.00
    2    3    6      1.49      0.00
    4    3    6      1.02      0.00
    5    3    6      2.54      0.00
    6    3    6      1.06      0.00
    7    3    6     -1.01      0.00
    8    3    6     -0.15      0.00
   -7    4    6      1.38      0.00
   -6    4    6      1.31      0.00
   -5    4    6      0.89      0.00
   -4    4    6     -0.77      0.00
   -3    4    6     -1.29      0.00
   -2    4    6     -3.41      0.00
   -1    4    6      0.32      0.00
    0    4    6      5.83      0.00
    1    4    6     -1.42      0.00
    2    4    6      1.92      0.00
    3    4    6     -6.07      0.00
    4    4    6     -0.15      0.00
    5    4    6      2.37      0.00
    6    4    6      0.92      0.00
    7    4    6     -0.53      0.00
    8    4    6     -0.09      0.00
   -7    5    6      0.96      0.00
   -6    5    6      0.03      0.00
   -5    5    6      0.70      0.00
   -4    5    6     -0.05      0.00
   -3    5    6      0.73      0.00
   -2    5    6     -4.02      0.00
   -1    5    6     -0.06      0.00
    0    5    6     -1.15      0.00
    1    5    6     -1.94      0.00
    2    5    6      0.79      0.00
    3    5    6     -2.25      0.00
    4    5    6     -0.52      0.00
    5    5    6      1.97      0.00
    6    5    6      0.01      0.00
    7    5    6     -0.29      0.00
    8    5    6      0.54      0.00
   -7    6    6      0.25      0.00
   -6    6    6     -1.35      0.00
   -5    6    6     -0.47      0.00
   -4    6    6     -0.48      0.00
   -3    6    6      2.77      0.00
   -2    6    6     -3.33      0.00
   -1    6    6     -0.79      0.00
    0    6    6     -5.17      0.00
    1    6    6     -2.77      0.00
    2    6    6     -1.38      0.00
    3    6    6      0.24      0.00
    4    6    6     -0.73      0.00
    5    6    6      1.20      0.00
    6    6    6     -0.97      0.00
    7    6    6     -0.43      0.00
    8    6    6      1.02      0.00
   -7    7    6     -0.22      0.00
   -6    7    6     -1.93      0.00
   -5    7    6     -1.86      0.00
   -4    7    6     -2.45      0.00
   -1    7    6     -0.86      0.00
    0    7    6     -5.74      0.00
    1    7    6     -3.01      0.00
    2    7    6     -3.24      0.00
    3    7    6     -0.10      0.00
    4    7    6     -1.52      0.00
    5    7    6      0.34      0.00
    6    7    6     -1.47      0.00
    7    7    6     -0.65      0.00
   -7    8    6     -0.43      0.00
   -6    8    6     -1.68      0.00
   -5    8    6     -2.63      0.00
   -4    8    6     -4.42      0.00
   -3    8    6     -0.67      0.00
   -2    8    6     -0.04      0.00
   -1    8    6     -0.65      0.00
    0    8    6     -3.82      0.00
    1    8    6     -2.66      0.00
    2    8    6     -3.07      0.00
    3    8    6     -1.59      0.00
    4    8    6     -2.56      0.00
    5    8    6     -0.32      0.00
    6    8    6     -1.37      0.00
    7    8    6     -0.82      0.00
   -7    9    6     -0.45      0.00
   -6    9    6     -0.97      0.00
   -5    9    6     -2.69      0.00
   -4    9    6     -4.87      0.00
   -3    9    6     -3.28      0.00
   -2    9    6     -0.58      0.00
   -1    9    6     -1.15      0.00
    0    9    6     -1.84      0.00
    1    9    6     -2.23      0.00
    2    9    6     -0.84      0.00
    3    9    6     -1.82      0.00
    4    9    6     -2.91      0.00
    5    9    6     -1.19      0.00
    6    9    6     -1.05      0.00
    7    9    6     -0.95      0.00
   -6   10    6     -0.16      0.00
   -5   10    6     -2.10      0.00
   -4   10    6     -3.73      0.00
   -3   10    6     -3.69      0.00
   -2   10    6     -1.60      0.00
   -1   10    6     -1.76      0.00
    0   10    6     -1.39      0.00
    1   10    6     -2.05      0.00
    2   10    6      1.14      0.00
    3   10    6     -0.59      0.00
    4   10    6     -2.36      0.00
    5   10    6     -2.34      0.00
    6   10    6     -0.90      0.00
    7   10    6     -0.94      0.00
   -6   11    6      0.29      0.00
   -5   11    6     -0.94      0.00
   -4   11    6     -1.75      0.00
   -3   11    6     -2.55      0.00
   -2   11    6     -1.27      0.00
   -1   11    6     -1.24      0.00
    0   11    6     -1.27      0.00
    1   11    6     -1.36      0.00
    2   11    6      1.44      0.00
    3   11    6      0.72      0.00
    4   11    6     -1.72      0.00
    5   11    6     -2.76      0.00
    6   11    6     -0.85      0.00
    7   11    6     -0.66      0.00
   -6   12    6      0.12      0.00
   -5   12    6      0.06      0.00
   -4   12    6      0.11      0.00
   -3   12    6     -0.96      0.00
   -2   12    6      0.39      0.00
   -1   12    6     -0.26      0.00
    0   12    6      0.00      0.00
    1   12    6      0.25      0.00
    2   12    6      1.28      0.00
    3   12    6      1.61      0.00
    4   12    6     -1.71      0.00
    5   12    6     -1.92      0.00
    6   12    6     -0.72      0.00
   -5   13    6      0.19      0.00
   -4   13    6      0.81      0.00
   -3   13    6      0.57      0.00
   -2   13    6      2.06      0.00
   -1   13    6     -0.31      0.00
    0   13    6      1.60      0.00
    1   13    6      1.50      0.00
    2   13    6      1.94      0.00
    3   13    6      2.54      0.00
    4   13    6     -1.68      0.00
    5   13    6     -0.63      0.00
    6   13    6     -0.65      0.00
   -5   14    6     -0.09      0.00
   -4   14    6      0.29      0.00
   -3   14    6      1.44      0.00
   -2   14    6      2.54      0.00
   -1   14    6     -1.17      0.00
    0   14    6      2.00      0.00
    1   14    6      1.40      0.00
    2   14    6      2.80      0.00
    3   14    6      3.29      0.00
    4   14    6     -0.72      0.00
    5   14    6      0.37      0.00
    6   14    6     -0.64      0.00
   -4   15    6     -0.28      0.00
   -3   15    6      1.29      0.00
   -2   15    6      1.69      0.00
   -1   15    6     -1.53      0.00
    0   15    6      1.27      0.00
    1   15    6      0.77      0.00
    2   15    6      3.06      0.00
    3   15    6      3.19      0.00
    4   15    6      0.52      0.00
    5   15    6      1.05      0.00
   -4   16    6     -0.11      0.00
   -3   16    6      0.73      0.00
   -2   16    6      0.38      0.00
   -1   16    6     -1.04      0.00
    0   16    6      0.37      0.00
    1   16    6      0.36      0.00
    2   16    6      2.70      0.00
    3   16    6      2.35      0.00
    4   16    6      0.61      0.00
    5   16    6      1.24      0.00
   -3   17    6      0.42      0.00
   -2   17    6     -0.39      0.00
   -1   17    6     -0.22      0.00
    0   17    6     -0.04      0.00
    1   17    6     -0.06      0.00
    2   17    6      1.76      0.00
    3   17    6      1.32      0.00
    4   17    6     -0.35      0.00
   -3   18    6      0.31      0.00
   -2   18    6     -0.52      0.00
   -1   18    6      0.47      0.00
    0   18    6      0.08      0.00
    1   18    6     -0.27      0.00
    2   18    6      0.51      0.00
    3   18    6      0.35      0.00
    4   18    6     -1.05      0.00
   -1   19    6      0.76      0.00
    0   19    6      0.17      0.00
    1   19    6      0.26      0.00
    2   19    6     -0.11      0.00
    3   19    6     -0.21      0.00
   -2  -17    7     -0.73      0.00
   -1  -17    7      1.09      0.00
    0  -17    7      0.93      0.00
    1  -17    7      0.48      0.00
   -4  -16    7      0.81      0.00
   -3  -16    7      0.27      0.00
   -2  -16    7     -0.27      0.00
   -1  -16    7      1.65      0.00
    0  -16    7      1.05      0.00
    1  -16    7      1.10      0.00
    2  -16    7     -0.10      0.00
    3  -16    7      0.27      0.00
   -4  -15    7      0.55      0.00
   -3  -15    7      0.41      0.00
   -2  -15    7     -0.11      0.00
   -1  -15    7      1.52      0.00
    0  -15    7      1.02      0.00
    1  -15    7      1.33      0.00
    2  -15    7      0.56      0.00
    3  -15    7      1.92      0.00
   -5  -14    7     -1.52      0.00
   -4  -14    7      0.69      0.00
   -3  -14    7      0.83      0.00
   -2  -14    7     -0.55      0.00
   -1  -14    7      0.23      0.00
    0  -14    7      0.86      0.00
    1  -14    7      0.93      0.00
    2  -14    7      0.63      0.00
    3  -14    7      3.54      0.00
    4  -14    7      3.03      0.00
   -5  -13    7     -0.63      0.00
   -4  -13    7      1.20      0.00
   -3  -13    7      1.59      0.00
   -2  -13    7     -0.57      0.00
   -1  -13    7     -1.65      0.00
    0  -13    7      0.53      0.00
    1  -13    7      0.37      0.00
    2  -13    7     -0.20      0.00
    3  -13    7      3.96      0.00
    4  -13    7      2.28      0.00
    5  -13    7      1.37      0.00
   -6  -12    7     -0.38      0.00
   -5  -12    7      0.01      0.00
   -4  -12    7      1.55      0.00
   -3  -12    7      2.51      0.00
   -2  -12    7      1.20      0.00
   -1  -12    7     -2.70      0.00
    0  -12    7      0.33      0.00
    1  -12    7      0.24      0.00
    2  -12    7     -1.06      0.00
    3  -12    7      3.07      0.00
    4  -12    7      0.84      0.00
    5  -12    7      1.99      0.00
   -6  -11    7     -0.41      0.00
   -5  -11    7      0.00      0.00
   -4  -11    7      1.26      0.00
   -3  -11    7      3.15      0.00
   -2  -11    7      4.08      0.00
   -1  -11    7     -2.08      0.00
    0  -11    7      0.27      0.00
    1  -11    7      0.18      0.00
    2  -11    7     -0.73      0.00
    3  -11    7      1.92      0.00
    4  -11    7     -0.09      0.00
    5  -11    7      1.56      0.00
   -6  -10    7     -0.38      0.00
   -5  -10    7     -0.47      0.00
   -4  -10    7      0.39      0.00
   -3  -10    7      3.27      0.00
   -2  -10    7      5.83      0.00
   -1  -10    7     -0.19      0.00
    0  -10    7     -0.02      0.00
    1  -10    7     -0.66      0.00
    2  -10    7      0.61      0.00
    3  -10    7      1.84      0.00
    4  -10    7     -0.11      0.00
    5  -10    7     -0.13      0.00
    6  -10    7      0.37      0.00
   -7   -9    7     -0.97      0.00
   -6   -9    7     -0.75      0.00
   -5   -9    7     -1.36      0.00
   -4   -9    7     -0.69      0.00
   -3   -9    7      3.14      0.00
   -2   -9    7      5.52      0.00
   -1   -9    7      1.89      0.00
    0   -9    7     -0.49      0.00
    1   -9    7     -1.76      0.00
    2   -9    7      1.38      0.00
    3   -9    7      3.10      0.00
    4   -9    7      0.67      0.00
    5   -9    7     -1.78      0.00
    6   -9    7     -0.10      0.00
   -7   -8    7     -1.01      0.00
   -6   -8    7     -1.63      0.00
   -5   -8    7     -2.78      0.00
   -4   -8    7     -1.95      0.00
   -3   -8    7      2.59      0.00
   -2   -8    7      3.99      0.00
   -1   -8    7      2.42      0.00
    0   -8    7     -1.32      0.00
    1   -8    7     -1.68      0.00
    2   -8    7      0.73      0.00
    3   -8    7      4.23      0.00
    4   -8    7      1.51      0.00
    5   -8    7     -1.77      0.00
    6   -8    7     -0.35      0.00
   -7   -7    7     -0.34      0.00
   -6   -7    7     -2.25      0.00
   -5   -7    7     -4.12      0.00
   -4   -7    7     -3.37      0.00
   -3   -7    7      0.69      0.00
   -2   -7    7      1.81      0.00
   -1   -7    7     -0.48      0.00
    0   -7    7     -3.87      0.00
    1   -7    7     -0.98      0.00
    2   -7    7     -0.29      0.00
    3   -7    7      3.59      0.00
    4   -7    7      1.14      0.00
    5   -7    7     -0.68      0.00
    6   -7    7     -0.34      0.00
    7   -7    7     -1.69      0.00
   -7   -6    7      0.44      0.00
   -6   -6    7     -1.86      0.00
   -5   -6    7     -4.12      0.00
   -4   -6    7     -3.82      0.00
   -3   -6    7     -2.12      0.00
   -2   -6    7     -0.80      0.00
   -1   -6    7     -6.43      0.00
    0   -6    7     -8.82      0.00
    1   -6    7     -2.10      0.00
    2   -6    7     -0.31      0.00
    3   -6    7      1.68      0.00
    4   -6    7     -0.65      0.00
    5   -6    7     -0.50      0.00
    6   -6    7     -0.55      0.00
    7   -6    7     -0.53      0.00
   -7   -5    7      0.63      0.00
   -6   -5    7     -0.85      0.00
   -5   -5    7     -2.51      0.00
   -4   -5    7     -2.18      0.00
   -3   -5    7     -3.07      0.00
   -2   -5    7     -2.01      0.00
   -1   -5    7    -11.96      0.00
    0   -5    7    -14.09      0.00
    1   -5    7     -5.65      0.00
    2   -5    7      0.51      0.00
    3   -5    7      0.53      0.00
    4   -5    7     -2.18      0.00
    5   -5    7     -1.66      0.00
    6   -5    7     -0.83      0.00
    7   -5    7     -0.15      0.00
   -7   -4    7      0.32      0.00
   -6   -4    7     -0.23      0.00
   -5   -4    7     -0.74      0.00
   -4   -4    7      0.30      0.00
   -3   -4    7     -0.40      0.00
   -2   -4    7      0.32      0.00
   -1   -4    7    -13.20      0.00
    0   -4    7    -16.56      0.00
    1   -4    7     -9.44      0.00
    2   -4    7      0.85      0.00
    3   -4    7      0.92      0.00
    4   -4    7     -1.84      0.00
    5   -4    7     -2.65      0.00
    6   -4    7     -0.60      0.00
    7   -4    7     -0.56      0.00
   -7   -3    7     -0.16      0.00
   -6   -3    7     -0.31      0.00
   -5   -3    7     -0.05      0.00
   -4   -3    7      1.11      0.00
   -3   -3    7      3.97      0.00
   -1   -3    7     -9.40      0.00
    0   -3    7    -14.95      0.00
    1   -3    7    -10.98      0.00
    2   -3    7      0.04      0.00
    3   -3    7      1.60      0.00
    4   -3    7     -0.06      0.00
    5   -3    7     -2.44      0.00
    6   -3    7     -0.12      0.00
    7   -3    7     -0.82      0.00
   -7   -2    7     -0.76      0.00
   -6   -2    7     -0.69      0.00
   -5   -2    7     -0.04      0.00
   -4   -2    7      0.15      0.00
   -3   -2    7      7.10      0.00
   -2   -2    7      6.88      0.00
   -1   -2    7     -3.31      0.00
    0   -2    7    -10.59      0.00
    1   -2    7     -8.94      0.00
    2   -2    7     -0.94      0.00
    3   -2    7      1.33      0.00
    4   -2    7      1.57      0.00
    5   -2    7     -1.49      0.00
    6   -2    7     -0.03      0.00
    7   -2    7     -0.64      0.00
   -8   -1    7      0.29      0.00
   -7   -1    7     -1.13      0.00
   -6   -1    7     -0.99      0.00
   -5   -1    7      0.07      0.00
   -4   -1    7     -0.46      0.00
   -3   -1    7      8.25      0.00
   -2   -1    7      4.74      0.00
   -1   -1    7      1.24      0.00
    0   -1    7     -7.02      0.00
    1   -1    7     -3.69      0.00
    2   -1    7     -0.70      0.00
    3   -1    7      0.72      0.00
    4   -1    7      1.89      0.00
    5   -1    7     -0.82      0.00
    6   -1    7      0.02      0.00
    7   -1    7     -0.20      0.00
   -8    0    7     -0.42      0.00
   -7    0    7     -0.77      0.00
   -6    0    7     -1.06      0.00
   -5    0    7      0.29      0.00
   -4    0    7      0.03      0.00
   -2    0    7      0.85      0.00
   -1    0    7      2.44      0.00
    0    0    7     -7.52      0.00
    1    0    7      1.82      0.00
    2    0    7      0.36      0.00
    3    0    7      1.39      0.00
    4    0    7      0.84      0.00
    5    0    7     -0.96      0.00
    6    0    7      0.56      0.00
    7    0    7      0.57      0.00
    8    0    7     -0.45      0.00
   -8    1    7     -1.04      0.00
   -7    1    7     -0.05      0.00
   -6    1    7     -0.94      0.00
   -5    1    7      0.54      0.00
   -4    1    7      0.60      0.00
   -3    1    7      4.93      0.00
   -2    1    7     -1.86      0.00
   -1    1    7      1.45      0.00
    0    1    7    -10.97      0.00
    1    1    7      4.17      0.00
    2    1    7      0.37      0.00
    3    1    7      3.83      0.00
    4    1    7     -0.45      0.00
    5    1    7     -1.60      0.00
    6    1    7      0.94      0.00
    7    1    7      1.41      0.00
    8    1    7     -0.64      0.00
   -7    2    7      0.16      0.00
   -6    2    7     -0.76      0.00
   -5    2    7      1.02      0.00
   -4    2    7      1.06      0.00
   -3    2    7      1.65      0.00
   -2    2    7     -2.91      0.00
   -1    2    7      0.38      0.00
    0    2    7    -11.92      0.00
    1    2    7      3.59      0.00
    2    2    7     -1.20      0.00
    3    2    7      6.41      0.00
    4    2    7     -0.55      0.00
    5    2    7     -1.75      0.00
    6    2    7      0.47      0.00
    7    2    7      1.44      0.00
    8    2    7     -0.64      0.00
   -7    3    7     -0.15      0.00
   -6    3    7     -0.50      0.00
   -5    3    7      1.45      0.00
   -4    3    7      1.83      0.00
   -3    3    7      0.14      0.00
   -2    3    7     -2.44      0.00
   -1    3    7      0.20      0.00
    0    3    7     -7.10      0.00
    1    3    7      3.32      0.00
    2    3    7     -2.63      0.00
    3    3    7      6.72      0.00
    4    3    7      0.71      0.00
    5    3    7     -1.02      0.00
    6    3    7     -0.11      0.00
    7    3    7      0.52      0.00
    8    3    7     -1.13      0.00
   -7    4    7     -0.29      0.00
   -6    4    7      0.09      0.00
   -5    4    7      1.46      0.00
   -4    4    7      2.47      0.00
   -3    4    7      0.28      0.00
   -2    4    7     -0.31      0.00
   -1    4    7      0.86      0.00
    0    4    7      0.73      0.00
    1    4    7      4.91      0.00
    2    4    7     -2.30      0.00
    3    4    7      4.15      0.00
    4    4    7      2.09      0.00
    5    4    7     -0.01      0.00
    6    4    7      0.14      0.00
    7    4    7     -0.28      0.00
    8    4    7     -2.03      0.00
   -7    5    7     -0.09      0.00
   -6    5    7      0.83      0.00
   -5    5    7      1.34      0.00
   -4    5    7      2.57      0.00
   -3    5    7     -0.26      0.00
   -2    5    7      2.26      0.00
    0    5    7      6.78      0.00
    1    5    7      6.81      0.00
    2    5    7     -0.30      0.00
    3    5    7      0.79      0.00
    4    5    7      2.73      0.00
    5    5    7      0.75      0.00
    6    5    7      0.93      0.00
    7    5    7     -0.26      0.00
    8    5    7     -2.40      0.00
   -7    6    7      0.12      0.00
   -6    6    7      1.16      0.00
   -5    6    7      1.32      0.00
   -4    6    7      2.68      0.00
   -3    6    7     -1.78      0.00
   -2    6    7      3.17      0.00
   -1    6    7      1.80      0.00
    0    6    7      8.79      0.00
    2    6    7      2.07      0.00
    3    6    7     -0.78      0.00
    4    6    7      2.86      0.00
    5    6    7      1.28      0.00
    6    6    7      1.45      0.00
    7    6    7      0.11      0.00
   -7    7    7      0.39      0.00
   -6    7    7      0.94      0.00
   -5    7    7      1.02      0.00
   -4    7    7      2.78      0.00
   -2    7    7      2.09      0.00
   -1    7    7      0.83      0.00
    0    7    7      7.34      0.00
    1    7    7      5.78      0.00
    2    7    7      2.95      0.00
    3    7    7     -0.36      0.00
    4    7    7      2.88      0.00
    5    7    7      1.50      0.00
    6    7    7      1.42      0.00
    7    7    7      0.31      0.00
   -7    8    7      0.97      0.00
   -6    8    7      0.56      0.00
   -5    8    7      0.26      0.00
   -4    8    7      2.05      0.00
   -3    8    7     -2.00      0.00
   -2    8    7      0.53      0.00
   -1    8    7      0.04      0.00
    0    8    7      4.47      0.00
    1    8    7      3.48      0.00
    2    8    7      1.12      0.00
    3    8    7     -0.13      0.00
    4    8    7      2.53      0.00
    5    8    7      1.47      0.00
    6    8    7      1.14      0.00
    7    8    7      0.46      0.00
   -6    9    7      0.18      0.00
   -5    9    7     -0.56      0.00
   -4    9    7      0.52      0.00
   -3    9    7     -1.77      0.00
   -2    9    7     -0.54      0.00
   -1    9    7      0.05      0.00
    0    9    7      2.31      0.00
    1    9    7      1.78      0.00
    2    9    7     -2.15      0.00
    3    9    7     -1.43      0.00
    4    9    7      1.31      0.00
    5    9    7      1.63      0.00
    6    9    7      0.95      0.00
    7    9    7      0.68      0.00
   -6   10    7     -0.18      0.00
   -5   10    7     -1.16      0.00
   -4   10    7     -0.85      0.00
   -3   10    7     -1.93      0.00
   -2   10    7     -1.16      0.00
   -1   10    7     -0.21      0.00
    0   10    7      1.12      0.00
    1   10    7      0.95      0.00
    2   10    7     -4.06      0.00
    3   10    7     -3.10      0.00
    4   10    7     -0.43      0.00
    5   10    7      1.95      0.00
    6   10    7      0.91      0.00
    7   10    7      0.76      0.00
   -6   11    7     -0.22      0.00
   -5   11    7     -1.48      0.00
   -4   11    7     -1.64      0.00
   -3   11    7     -1.64      0.00
   -2   11    7     -1.36      0.00
   -1   11    7     -1.11      0.00
    0   11    7     -0.35      0.00
    1   11    7     -0.17      0.00
    2   11    7     -3.85      0.00
    3   11    7     -3.71      0.00
    4   11    7     -1.46      0.00
    5   11    7      1.65      0.00
    6   11    7      0.83      0.00
    7   11    7      0.60      0.00
   -6   12    7      0.18      0.00
   -5   12    7     -1.27      0.00
   -4   12    7     -1.83      0.00
   -3   12    7     -1.06      0.00
   -2   12    7     -1.19      0.00
   -1   12    7     -1.14      0.00
    0   12    7     -2.17      0.00
    1   12    7     -1.71      0.00
    2   12    7     -3.16      0.00
    3   12    7     -3.65      0.00
    4   12    7     -1.13      0.00
    5   12    7      0.60      0.00
    6   12    7      0.84      0.00
   -5   13    7     -0.69      0.00
   -4   13    7     -1.22      0.00
   -3   13    7     -0.82      0.00
   -2   13    7     -0.93      0.00
   -1   13    7      0.55      0.00
    0   13    7     -2.89      0.00
    1   13    7     -2.13      0.00
    2   13    7     -2.93      0.00
    3   13    7     -3.71      0.00
    4   13    7     -0.39      0.00
    5   13    7     -0.35      0.00
    6   13    7      1.19      0.00
   -5   14    7     -0.43      0.00
   -4   14    7     -0.16      0.00
   -3   14    7     -0.68      0.00
   -2   14    7     -0.56      0.00
   -1   14    7      2.45      0.00
    0   14    7     -1.96      0.00
    1   14    7     -1.06      0.00
    2   14    7     -2.61      0.00
    3   14    7     -3.43      0.00
    4   14    7     -0.23      0.00
    5   14    7     -0.60      0.00
    6   14    7      1.55      0.00
   -4   15    7      0.32      0.00
   -3   15    7     -0.23      0.00
   -2   15    7      0.01      0.00
   -1   15    7      2.79      0.00
    0   15    7     -0.37      0.00
    1   15    7      0.06      0.00
    2   15    7     -1.99      0.00
    3   15    7     -2.36      0.00
    4   15    7     -0.20      0.00
    5   15    7     -0.20      0.00
   -4   16    7     -0.04      0.00
   -3   16    7      0.31      0.00
   -2   16    7      0.38      0.00
   -1   16    7      1.57      0.00
    0   16    7      0.63      0.00
    1   16    7      0.48      0.00
    2   16    7     -1.38      0.00
    3   16    7     -1.25      0.00
    4   16    7      0.38      0.00
    5   16    7      0.61      0.00
   -3   17    7      0.70      0.00
   -2   17    7      0.29      0.00
   -1   17    7      0.00      0.00
    0   17    7      0.45      0.00
    1   17    7      0.57      0.00
    2   17    7     -0.68      0.00
    3   17    7     -0.66      0.00
    4   17    7      1.03      0.00
   -2   18    7      0.25      0.00
   -1   18    7     -0.74      0.00
    0   18    7     -0.41      0.00
    1   18    7      0.26      0.00
    2   18    7      0.01      0.00
    3   18    7     -0.30      0.00
   -1   19    7     -0.41      0.00
    0   19    7     -0.70      0.00
    1   19    7     -0.48      0.00
    2   19    7      0.10      0.00
   -2  -17    8     -0.16      0.00
   -1  -17    8     -1.21      0.00
    0  -17    8     -1.62      0.00
    1  -17    8      0.11      0.00
   -3  -16    8     -0.98      0.00
   -2  -16    8     -0.55      0.00
   -1  -16    8     -0.97      0.00
    0  -16    8     -0.96      0.00
    1  -16    8     -0.66      0.00
    2  -16    8      0.17      0.00
   -4  -15    8      0.36      0.00
   -3  -15    8     -1.20      0.00
   -2  -15    8     -0.68      0.00
   -1  -15    8     -0.33      0.00
    0  -15    8      0.28      0.00
    1  -15    8     -0.77      0.00
    2  -15    8     -0.64      0.00
    3  -15    8     -1.68      0.00
   -5  -14    8      1.50      0.00
   -4  -14    8      0.36      0.00
   -3  -14    8     -1.23      0.00
   -2  -14    8     -0.13      0.00
   -1  -14    8      0.64      0.00
    0  -14    8      1.14      0.00
    1  -14    8     -0.01      0.00
    2  -14    8     -0.41      0.00
    3  -14    8     -2.65      0.00
    4  -14    8     -2.80      0.00
   -5  -13    8      0.95      0.00
   -4  -13    8      0.25      0.00
   -3  -13    8     -1.22      0.00
   -2  -13    8      0.29      0.00
   -1  -13    8      1.46      0.00
    0  -13    8      1.13      0.00
    1  -13    8      0.80      0.00
    2  -13    8      0.75      0.00
    3  -13    8     -3.04      0.00
    4  -13    8     -1.67      0.00
   -5  -12    8      1.13      0.00
   -4  -12    8      0.50      0.00
   -3  -12    8     -1.18      0.00
   -2  -12    8     -0.59      0.00
   -1  -12    8      1.72      0.00
    0  -12    8      0.64      0.00
    1  -12    8      0.83      0.00
    2  -12    8      1.61      0.00
    3  -12    8     -2.70      0.00
    4  -12    8      0.01      0.00
    5  -12    8     -1.09      0.00
   -6  -11    8      0.71      0.00
   -5  -11    8      1.87      0.00
   -4  -11    8      1.16      0.00
   -3  -11    8     -0.90      0.00
   -2  -11    8     -2.29      0.00
   -1  -11    8      1.73      0.00
    0  -11    8      0.80      0.00
    1  -11    8      0.70      0.00
    2  -11    8      1.02      0.00
    3  -11    8     -2.15      0.00
    4  -11    8      1.40      0.00
    5  -11    8     -0.07      0.00
   -6  -10    8      0.95      0.00
   -5  -10    8      2.54      0.00
   -4  -10    8      1.86      0.00
   -3  -10    8     -0.48      0.00
   -2  -10    8     -3.15      0.00
   -1  -10    8      1.67      0.00
    0  -10    8      2.06      0.00
    2  -10    8     -0.49      0.00
    3  -10    8     -2.46      0.00
    4  -10    8      1.89      0.00
    5  -10    8      2.25      0.00
    6  -10    8      0.76      0.00
   -6   -9    8      1.28      0.00
   -5   -9    8      3.02      0.00
   -4   -9    8      2.37      0.00
   -2   -9    8     -2.62      0.00
   -1   -9    8      1.12      0.00
    0   -9    8      3.27      0.00
    1   -9    8      3.36      0.00
    2   -9    8     -1.23      0.00
    3   -9    8     -3.81      0.00
    4   -9    8      1.14      0.00
    5   -9    8      4.05      0.00
    6   -9    8      1.16      0.00
   -7   -8    8      0.63      0.00
   -6   -8    8      1.44      0.00
   -5   -8    8      3.36      0.00
   -4   -8    8      2.92      0.00
   -3   -8    8     -0.19      0.00
   -2   -8    8     -1.37      0.00
   -1   -8    8      0.46      0.00
    0   -8    8      3.72      0.00
    1   -8    8      3.78      0.00
    2   -8    8     -0.37      0.00
    3   -8    8     -4.52      0.00
    4   -8    8     -0.14      0.00
    5   -8    8      3.62      0.00
    6   -8    8      0.77      0.00
   -7   -7    8     -0.16      0.00
   -6   -7    8      0.80      0.00
   -5   -7    8      3.00      0.00
   -4   -7    8      3.22      0.00
   -3   -7    8      0.88      0.00
   -2   -7    8      0.00      0.00
   -1   -7    8      1.14      0.00
    0   -7    8      4.50      0.00
    1   -7    8      2.99      0.00
    2   -7    8      1.13      0.00
    3   -7    8     -2.84      0.00
    4   -7    8     -0.26      0.00
    5   -7    8      1.85      0.00
    6   -7    8      0.35      0.00
   -7   -6    8     -1.09      0.00
   -6   -6    8     -0.49      0.00
   -5   -6    8      1.44      0.00
   -4   -6    8      2.12      0.00
   -3   -6    8      2.07      0.00
   -2   -6    8      0.61      0.00
   -1   -6    8      3.05      0.00
    0   -6    8      6.10      0.00
    1   -6    8      2.64      0.00
    2   -6    8      1.80      0.00
    3   -6    8      0.39      0.00
    4   -6    8      1.16      0.00
    5   -6    8      0.95      0.00
    6   -6    8      0.63      0.00
    7   -6    8     -0.07      0.00
   -7   -5    8     -1.43      0.00
   -6   -5    8     -1.38      0.00
   -5   -5    8     -0.46      0.00
   -4   -5    8     -0.60      0.00
   -3   -5    8      1.34      0.00
   -2   -5    8     -1.23      0.00
   -1   -5    8      3.66      0.00
    0   -5    8      6.77      0.00
    1   -5    8      3.19      0.00
    2   -5    8      1.14      0.00
    3   -5    8      2.40      0.00
    4   -5    8      2.36      0.00
    5   -5    8      1.31      0.00
    6   -5    8      0.86      0.00
    7   -5    8     -0.33      0.00
   -7   -4    8     -1.10      0.00
   -6   -4    8     -1.22      0.00
   -5   -4    8     -1.26      0.00
   -4   -4    8     -2.86      0.00
   -3   -4    8     -1.36      0.00
   -2   -4    8     -5.58      0.00
   -1   -4    8      1.33      0.00
    0   -4    8      4.94      0.00
    1   -4    8      3.73      0.00
    2   -4    8      0.08      0.00
    3   -4    8      1.75      0.00
    4   -4    8      1.78      0.00
    5   -4    8      1.65      0.00
    6   -4    8      0.14      0.00
    7   -4    8     -0.11      0.00
   -7   -3    8     -0.17      0.00
   -6   -3    8     -0.35      0.00
   -5   -3    8     -0.99      0.00
   -4   -3    8     -2.74      0.00
   -3   -3    8     -3.75      0.00
   -2   -3    8     -9.04      0.00
   -1   -3    8     -2.23      0.00
    0   -3    8      1.39      0.00
    1   -3    8      3.85      0.00
    2   -3    8     -0.06      0.00
    3   -3    8     -0.11      0.00
    4   -3    8     -0.12      0.00
    5   -3    8      1.17      0.00
    6   -3    8     -0.80      0.00
    7   -3    8     -0.01      0.00
   -7   -2    8      1.03      0.00
   -6   -2    8      0.55      0.00
   -5   -2    8     -0.81      0.00
   -4   -2    8     -1.15      0.00
   -3   -2    8     -4.66      0.00
   -2   -2    8     -7.94      0.00
   -1   -2    8     -3.96      0.00
    0   -2    8     -1.79      0.00
    1   -2    8      3.21      0.00
    2   -2    8      0.78      0.00
    3   -2    8     -0.98      0.00
    4   -2    8     -1.86      0.00
    5   -2    8      0.18      0.00
    6   -2    8     -1.01      0.00
    7   -2    8     -0.03      0.00
   -7   -1    8      1.54      0.00
   -6   -1    8      0.97      0.00
   -5   -1    8     -1.10      0.00
   -4   -1    8     -0.09      0.00
   -3   -1    8     -4.86      0.00
   -2   -1    8     -2.91      0.00
   -1   -1    8     -2.97      0.00
    0   -1    8     -2.51      0.00
    1   -1    8      1.17      0.00
    2   -1    8      1.39      0.00
    3   -1    8     -0.56      0.00
    4   -1    8     -2.38      0.00
    5   -1    8     -0.53      0.00
    6   -1    8     -1.00      0.00
    7   -1    8     -0.20      0.00
   -7    0    8      0.73      0.00
   -6    0    8      0.70      0.00
   -5    0    8     -1.38      0.00
   -4    0    8      0.11      0.00
   -3    0    8     -4.34      0.00
   -2    0    8      2.27      0.00
   -1    0    8     -1.11      0.00
    0    0    8      0.16      0.00
    1    0    8     -1.66      0.00
    2    0    8      1.26      0.00
    3    0    8     -0.51      0.00
    4    0    8     -1.72      0.00
    5    0    8     -0.48      0.00
    6    0    8     -1.30      0.00
    7    0    8     -0.69      0.00
   -7    1    8     -0.49      0.00
   -6    1    8      0.04      0.00
   -5    1    8     -1.66      0.00
   -4    1    8     -0.23      0.00
   -3    1    8     -2.53      0.00
   -2    1    8      4.97      0.00
   -1    1    8     -0.49      0.00
    0    1    8      4.09      0.00
    1    1    8     -3.68      0.00
    2    1    8      1.26      0.00
    3    1    8     -2.04      0.00
    4    1    8     -0.98      0.00
    5    1    8     -0.12      0.00
    6    1    8     -1.22      0.00
    7    1    8     -0.84      0.00
   -7    2    8     -0.91      0.00
   -6    2    8     -0.33      0.00
   -5    2    8     -2.08      0.00
   -4    2    8     -1.49      0.00
   -3    2    8     -0.96      0.00
   -2    2    8      4.93      0.00
   -1    2    8     -1.33      0.00
    0    2    8      5.11      0.00
    1    2    8     -4.81      0.00
    2    2    8      1.82      0.00
    3    2    8     -4.04      0.00
    4    2    8     -1.31      0.00
    5    2    8     -0.43      0.00
    6    2    8     -0.38      0.00
    7    2    8      0.02      0.00
   -7    3    8     -0.63      0.00
   -6    3    8     -0.31      0.00
   -5    3    8     -2.06      0.00
   -4    3    8     -3.10      0.00
   -3    3    8     -1.32      0.00
   -2    3    8      2.65      0.00
   -1    3    8     -2.47      0.00
    0    3    8      1.70      0.00
    1    3    8     -6.13      0.00
    2    3    8      2.14      0.00
    3    3    8     -4.16      0.00
    4    3    8     -2.52      0.00
    5    3    8     -1.47      0.00
    6    3    8      0.21      0.00
    7    3    8      1.07      0.00
   -7    4    8     -0.41      0.00
   -6    4    8     -0.37      0.00
   -5    4    8     -1.22      0.00
   -4    4    8     -3.40      0.00
   -3    4    8     -1.83      0.00
   -2    4    8     -0.49      0.00
   -1    4    8     -2.83      0.00
    0    4    8     -3.23      0.00
    1    4    8     -7.50      0.00
    2    4    8      1.64      0.00
    3    4    8     -1.55      0.00
    4    4    8     -3.34      0.00
    5    4    8     -2.22      0.00
    6    4    8     -0.14      0.00
    7    4    8      0.95      0.00
   -7    5    8     -0.35      0.00
   -6    5    8     -0.58      0.00
   -5    5    8     -0.17      0.00
   -4    5    8     -2.11      0.00
   -3    5    8      0.27      0.00
   -1    5    8     -1.76      0.00
    0    5    8     -5.90      0.00
    1    5    8     -7.55      0.00
    2    5    8      0.69      0.00
    3    5    8      2.01      0.00
    4    5    8     -2.98      0.00
    5    5    8     -2.13      0.00
    6    5    8     -0.78      0.00
    7    5    8     -0.03      0.00
   -7    6    8     -0.31      0.00
   -6    6    8     -0.55      0.00
   -5    6    8      0.64      0.00
   -4    6    8     -0.53      0.00
   -3    6    8      4.01      0.00
   -1    6    8      0.73      0.00
    0    6    8     -5.14      0.00
    1    6    8     -5.63      0.00
    2    6    8      0.08      0.00
    3    6    8      4.08      0.00
    4    6    8     -1.76      0.00
    5    6    8     -1.50      0.00
    6    6    8     -0.92      0.00
    7    6    8     -0.54      0.00
   -7    7    8     -0.58      0.00
   -6    7    8     -0.33      0.00
   -5    7    8      1.43      0.00
   -4    7    8      0.88      0.00
   -3    7    8      6.37      0.00
   -2    7    8      0.95      0.00
   -1    7    8      3.28      0.00
    0    7    8     -2.40      0.00
    1    7    8     -2.52      0.00
    2    7    8      0.65      0.00
    3    7    8      4.33      0.00
    4    7    8     -0.37      0.00
    5    7    8     -0.55      0.00
    6    7    8     -0.53      0.00
    7    7    8     -0.25      0.00
   -7    8    8     -1.31      0.00
   -6    8    8     -0.22      0.00
   -5    8    8      2.19      0.00
   -4    8    8      2.34      0.00
   -3    8    8      6.57      0.00
   -2    8    8      2.28      0.00
   -1    8    8      4.07      0.00
    0    8    8     -0.01      0.00
    1    8    8      0.02      0.00
    2    8    8      2.39      0.00
    3    8    8      4.17      0.00
    4    8    8      0.90      0.00
    5    8    8      0.47      0.00
    6    8    8     -0.01      0.00
    7    8    8      0.11      0.00
   -6    9    8     -0.03      0.00
   -5    9    8      2.52      0.00
   -4    9    8      3.23      0.00
   -2    9    8      2.59      0.00
   -1    9    8      3.15      0.00
    0    9    8      0.81      0.00
    1    9    8      0.64      0.00
    2    9    8      3.70      0.00
    3    9    8      4.16      0.00
    4    9    8      2.11      0.00
    5    9    8      0.97      0.00
    6    9    8      0.26      0.00
    7    9    8      0.15      0.00
   -5   10    8      2.36      0.00
   -4   10    8      2.92      0.00
   -2   10    8      1.93      0.00
   -1   10    8      2.04      0.00
    0   10    8      0.91      0.00
    1   10    8      0.00      0.00
    2   10    8      3.08      0.00
    4   10    8      2.93      0.00
    5   10    8      0.81      0.00
    6   10    8      0.11      0.00
    7   10    8      0.01      0.00
   -6   11    8      0.44      0.00
   -5   11    8      1.89      0.00
   -4   11    8      2.08      0.00
   -3   11    8      1.77      0.00
   -2   11    8      0.44      0.00
   -1   11    8      1.04      0.00
    0   11    8      1.42      0.00
    1   11    8     -0.14      0.00
    2   11    8      1.35      0.00
    3   11    8      1.79      0.00
    4   11    8      2.66      0.00
    5   11    8      0.55      0.00
    6   11    8     -0.39      0.00
    7   11    8     -0.34      0.00
   -5   12    8      1.20      0.00
   -4   12    8      1.44      0.00
   -3   12    8      0.47      0.00
   -2   12    8     -0.87      0.00
   -1   12    8     -0.66      0.00
    0   12    8      1.97      0.00
    1   12    8      0.30      0.00
    2   12    8      0.28      0.00
    3   12    8      0.76      0.00
    4   12    8      1.33      0.00
    5   12    8      0.54      0.00
    6   12    8     -1.10      0.00
   -5   13    8      0.64      0.00
   -4   13    8      0.77      0.00
   -3   13    8      0.22      0.00
   -2   13    8     -1.05      0.00
   -1   13    8     -2.75      0.00
    0   13    8      1.71      0.00
    1   13    8      0.11      0.00
    2   13    8      0.03      0.00
    3   13    8      0.76      0.00
    4   13    8      0.05      0.00
    5   13    8      0.52      0.00
    6   13    8     -1.80      0.00
   -5   14    8      0.68      0.00
   -4   14    8      0.06      0.00
   -3   14    8      0.08      0.00
   -2   14    8     -0.62      0.00
   -1   14    8     -3.75      0.00
    0   14    8      0.76      0.00
    1   14    8     -0.55      0.00
    2   14    8     -0.03      0.00
    3   14    8      0.76      0.00
    4   14    8     -0.42      0.00
    5   14    8      0.17      0.00
    6   14    8     -2.01      0.00
   -4   15    8     -0.03      0.00
   -3   15    8     -0.38      0.00
   -2   15    8     -0.42      0.00
   -1   15    8     -3.02      0.00
    0   15    8     -0.19      0.00
    1   15    8     -0.64      0.00
    2   15    8      0.14      0.00
    3   15    8      0.45      0.00
    4   15    8     -0.41      0.00
    5   15    8     -0.58      0.00
   -4   16    8      0.51      0.00
   -3   16    8     -0.73      0.00
   -2   16    8     -0.26      0.00
   -1   16    8     -1.33      0.00
    0   16    8     -0.55      0.00
    1   16    8     -0.37      0.00
    2   16    8      0.43      0.00
    3   16    8      0.49      0.00
    4   16    8     -0.27      0.00
    5   16    8     -1.33      0.00
   -3   17    8     -0.88      0.00
   -2   17    8      0.07      0.00
   -1   17    8      0.00      0.00
    0   17    8      0.07      0.00
    1   17    8     -0.38      0.00
    2   17    8      0.20      0.00
    3   17    8      0.71      0.00
    4   17    8      0.04      0.00
   -2   18    8      0.06      0.00
   -1   18    8      0.06      0.00
    0   18    8      1.09      0.00
    1   18    8     -0.33      0.00
    2   18    8     -0.33      0.00
    3   18    8      0.32      0.00
   -1   19    8     -0.70      0.00
    0   19    8      1.22      0.00
    1   19    8      0.03      0.00
    2   19    8     -0.36      0.00
   -2  -16    9      0.85      0.00
   -1  -16    9     -0.38      0.00
    0  -16    9      0.29      0.00
    1  -16    9      0.07      0.00
    2  -16    9      0.34      0.00
   -3  -15    9      0.76      0.00
   -2  -15    9      0.90      0.00
   -1  -15    9     -0.61      0.00
    0  -15    9     -1.65      0.00
    1  -15    9     -0.45      0.00
    2  -15    9      0.46      0.00
    3  -15    9      0.12      0.00
   -4  -14    9     -1.42      0.00
   -3  -14    9     -0.10      0.00
   -2  -14    9      0.03      0.00
   -1  -14    9     -0.57      0.00
    0  -14    9     -2.46      0.00
    1  -14    9     -1.26      0.00
    2  -14    9     -0.21      0.00
    3  -14    9      0.61      0.00
   -5  -13    9     -1.00      0.00
   -4  -13    9     -1.44      0.00
   -3  -13    9     -0.82      0.00
   -2  -13    9     -1.02      0.00
   -1  -13    9     -0.46      0.00
    0  -13    9     -1.71      0.00
    1  -13    9     -1.50      0.00
    2  -13    9     -1.22      0.00
    3  -13    9      1.34      0.00
    4  -13    9      0.57      0.00
   -5  -12    9     -1.74      0.00
   -4  -12    9     -1.62      0.00
   -3  -12    9     -1.09      0.00
   -2  -12    9     -1.06      0.00
   -1  -12    9     -0.68      0.00
    0  -12    9     -0.63      0.00
    1  -12    9     -0.74      0.00
    2  -12    9     -1.50      0.00
    3  -12    9      1.80      0.00
    4  -12    9     -0.83      0.00
   -6  -11    9     -0.49      0.00
   -5  -11    9     -2.36      0.00
   -4  -11    9     -1.84      0.00
   -3  -11    9     -1.29      0.00
   -2  -11    9     -0.26      0.00
   -1  -11    9     -1.62      0.00
    0  -11    9     -0.85      0.00
    1  -11    9     -0.12      0.00
    2  -11    9     -0.46      0.00
    3  -11    9      1.99      0.00
    4  -11    9     -2.00      0.00
    5  -11    9     -0.48      0.00
   -6  -10    9     -0.30      0.00
   -5  -10    9     -2.26      0.00
   -4  -10    9     -1.86      0.00
   -3  -10    9     -1.58      0.00
   -2  -10    9      0.26      0.00
   -1  -10    9     -2.58      0.00
    0  -10    9     -2.06      0.00
    1  -10    9     -0.94      0.00
    2  -10    9      1.00      0.00
    3  -10    9      2.64      0.00
    4  -10    9     -2.02      0.00
    5  -10    9     -1.85      0.00
   -6   -9    9      0.12      0.00
   -5   -9    9     -1.59      0.00
   -4   -9    9     -1.77      0.00
   -3   -9    9     -1.69      0.00
   -2   -9    9      0.01      0.00
   -1   -9    9     -2.01      0.00
    0   -9    9     -2.06      0.00
    1   -9    9     -2.33      0.00
    2   -9    9      1.24      0.00
    3   -9    9      3.62      0.00
    4   -9    9     -0.59      0.00
    5   -9    9     -2.36      0.00
    6   -9    9     -1.03      0.00
   -6   -8    9      0.94      0.00
   -5   -8    9     -0.57      0.00
   -4   -8    9     -1.69      0.00
   -3   -8    9     -1.81      0.00
   -2   -8    9     -0.84      0.00
   -1   -8    9     -0.11      0.00
    0   -8    9     -0.18      0.00
    1   -8    9     -2.33      0.00
    2   -8    9     -0.17      0.00
    3   -8    9      3.16      0.00
    4   -8    9      0.83      0.00
    5   -8    9     -1.31      0.00
    6   -8    9      0.19      0.00
   -7   -7    9      1.09      0.00
   -6   -7    9      2.04      0.00
   -5   -7    9      0.90      0.00
   -4   -7    9     -1.03      0.00
   -3   -7    9     -2.19      0.00
   -2   -7    9     -1.81      0.00
   -1   -7    9      1.19      0.00
    0   -7    9      1.63      0.00
    1   -7    9     -0.80      0.00
    2   -7    9     -1.88      0.00
    3   -7    9      0.19      0.00
    4   -7    9      0.40      0.00
    5   -7    9     -0.01      0.00
    6   -7    9      0.67      0.00
   -7   -6    9      1.46      0.00
   -6   -6    9      2.58      0.00
   -5   -6    9      2.39      0.00
   -4   -6    9      0.93      0.00
   -3   -6    9     -2.04      0.00
   -2   -6    9     -1.58      0.00
   -1   -6    9      1.32      0.00
    0   -6    9      2.20      0.00
    1   -6    9      0.88      0.00
    2   -6    9     -2.18      0.00
    3   -6    9     -3.44      0.00
    4   -6    9     -1.39      0.00
    5   -6    9      0.16      0.00
    6   -6    9     -0.17      0.00
   -7   -5    9      1.19      0.00
   -6   -5    9      1.98      0.00
   -5   -5    9      2.76      0.00
   -4   -5    9      3.29      0.00
   -2   -5    9      1.09      0.00
   -1   -5    9      1.88      0.00
    0   -5    9      2.61      0.00
    1   -5    9      1.90      0.00
    2   -5    9     -0.85      0.00
    3   -5    9     -4.64      0.00
    4   -5    9     -2.23      0.00
    5   -5    9     -0.37      0.00
    6   -5    9     -0.78      0.00
    7   -5    9      0.38      0.00
   -7   -4    9      0.61      0.00
   -6   -4    9      0.79      0.00
   -5   -4    9      1.69      0.00
   -4   -4    9      3.86      0.00
   -3   -4    9      0.54      0.00
   -2   -4    9      4.92      0.00
   -1   -4    9      3.63      0.00
    0   -4    9      3.83      0.00
    1   -4    9      1.85      0.00
    2   -4    9      0.44      0.00
    3   -4    9     -2.79      0.00
    4   -4    9     -1.09      0.00
    5   -4    9     -0.45      0.00
    6   -4    9     -0.05      0.00
    7   -4    9      0.09      0.00
   -7   -3    9     -0.16      0.00
   -6   -3    9     -0.10      0.00
   -5   -3    9      0.64      0.00
   -4   -3    9      2.17      0.00
   -3   -3    9      0.08      0.00
   -2   -3    9      6.33      0.00
   -1   -3    9      4.99      0.00
    0   -3    9      5.46      0.00
    1   -3    9      0.57      0.00
    2   -3    9     -0.09      0.00
    3   -3    9     -0.43      0.00
    4   -3    9      0.87      0.00
    5   -3    9      0.25      0.00
    6   -3    9      0.99      0.00
    7   -3    9     -0.04      0.00
   -7   -2    9     -0.86      0.00
   -6   -2    9     -0.41      0.00
   -5   -2    9      0.79      0.00
   -4   -2    9      0.21      0.00
   -3   -2    9     -0.81      0.00
   -2   -2    9      3.64      0.00
   -1   -2    9      4.37      0.00
    0   -2    9      6.92      0.00
    1   -2    9     -0.49      0.00
    2   -2    9     -1.90      0.00
    3   -2    9     -0.08      0.00
    4   -2    9      2.16      0.00
    5   -2    9      1.36      0.00
    6   -2    9      1.27      0.00
    7   -2    9     -0.26      0.00
   -7   -1    9     -0.75      0.00
   -6   -1    9     -0.26      0.00
   -5   -1    9      1.51      0.00
   -4   -1    9     -0.57      0.00
   -3   -1    9     -0.09      0.00
   -2   -1    9     -0.84      0.00
   -1   -1    9      2.50      0.00
    0   -1    9      7.17      0.00
    1   -1    9      0.63      0.00
    2   -1    9     -2.73      0.00
    3   -1    9     -1.42      0.00
    4   -1    9      2.33      0.00
    5   -1    9      2.15      0.00
    6   -1    9      1.16      0.00
    7   -1    9     -0.30      0.00
   -7    0    9      0.21      0.00
   -6    0    9      0.21      0.00
   -5    0    9      1.73      0.00
   -4    0    9     -0.51      0.00
   -3    0    9      1.57      0.00
   -2    0    9     -3.87      0.00
   -1    0    9      1.34      0.00
    0    0    9      4.84      0.00
    1    0    9      3.36      0.00
    2    0    9     -1.84      0.00
    3    0    9     -2.10      0.00
    4    0    9      1.79      0.00
    5    0    9      2.06      0.00
    6    0    9      1.01      0.00
    7    0    9     -0.06      0.00
   -7    1    9      0.95      0.00
   -6    1    9      0.51      0.00
   -5    1    9      1.47      0.00
   -4    1    9      0.17      0.00
   -3    1    9      2.50      0.00
   -2    1    9     -4.38      0.00
   -1    1    9      1.77      0.00
    0    1    9      0.59      0.00
    1    1    9      5.36      0.00
    2    1    9     -0.79      0.00
    3    1    9     -0.73      0.00
    4    1    9      1.32      0.00
    5    1    9      1.50      0.00
    6    1    9      0.33      0.00
    7    1    9     -0.29      0.00
   -7    2    9      0.85      0.00
   -6    2    9      0.26      0.00
   -5    2    9      0.98      0.00
   -4    2    9      1.45      0.00
   -2    2    9     -2.97      0.00
   -1    2    9      2.79      0.00
    0    2    9     -2.50      0.00
    1    2    9      5.73      0.00
    2    2    9     -0.88      0.00
    3    2    9      1.27      0.00
    4    2    9      1.41      0.00
    5    2    9      1.45      0.00
    6    2    9     -0.61      0.00
    7    2    9     -1.13      0.00
   -7    3    9      0.53      0.00
   -6    3    9     -0.08      0.00
   -5    3    9      0.07      0.00
   -4    3    9      2.04      0.00
   -3    3    9      2.91      0.00
   -2    3    9     -0.88      0.00
   -1    3    9      2.83      0.00
    0    3    9     -2.67      0.00
    1    3    9      5.18      0.00
    2    3    9     -1.81      0.00
    3    3    9      1.27      0.00
    4    3    9      1.69      0.00
    5    3    9      1.85      0.00
    6    3    9     -0.86      0.00
    7    3    9     -1.27      0.00
   -7    4    9      0.47      0.00
   -6    4    9      0.10      0.00
   -5    4    9     -1.00      0.00
   -4    4    9      0.78      0.00
   -3    4    9      0.83      0.00
   -2    4    9     -0.02      0.00
   -1    4    9      1.01      0.00
    0    4    9     -1.51      0.00
    1    4    9      3.91      0.00
    2    4    9     -2.83      0.00
    3    4    9     -1.59      0.00
    4    4    9      1.41      0.00
    5    4    9      1.74      0.00
    6    4    9     -0.32      0.00
    7    4    9     -0.12      0.00
   -7    5    9      0.33      0.00
   -6    5    9      0.46      0.00
   -5    5    9     -1.58      0.00
   -4    5    9     -1.08      0.00
   -3    5    9     -3.41      0.00
   -2    5    9     -1.44      0.00
   -1    5    9     -2.49      0.00
    0    5    9     -1.52      0.00
    1    5    9      1.66      0.00
    2    5    9     -3.49      0.00
    3    5    9     -5.25      0.00
    4    5    9      0.32      0.00
    5    5    9      0.88      0.00
    6    5    9      0.16      0.00
    7    5    9      0.92      0.00
   -7    6    9     -0.02      0.00
   -6    6    9      0.38      0.00
   -5    6    9     -1.70      0.00
   -4    6    9     -1.79      0.00
   -3    6    9     -6.56      0.00
   -2    6    9     -3.41      0.00
   -1    6    9     -6.18      0.00
    0    6    9     -3.18      0.00
    1    6    9     -1.11      0.00
    2    6    9     -3.53      0.00
    3    6    9     -6.88      0.00
    4    6    9     -1.15      0.00
    5    6    9     -0.32      0.00
    6    6    9      0.13      0.00
    7    6    9      0.56      0.00
   -7    7    9     -0.10      0.00
   -6    7    9      0.07      0.00
   -5    7    9     -1.82      0.00
   -4    7    9     -1.72      0.00
   -3    7    9     -6.29      0.00
   -2    7    9     -3.45      0.00
   -1    7    9     -7.79      0.00
    0    7    9     -4.80      0.00
    1    7    9     -3.11      0.00
    2    7    9     -3.00      0.00
    3    7    9     -5.86      0.00
    4    7    9     -2.26      0.00
    5    7    9     -1.70      0.00
    6    7    9     -0.27      0.00
    7    7    9     -0.50      0.00
   -6    8    9     -0.06      0.00
   -5    8    9     -1.82      0.00
   -4    8    9     -1.80      0.00
   -2    8    9     -1.71      0.00
   -1    8    9     -6.36      0.00
    0    8    9     -4.57      0.00
    1    8    9     -3.10      0.00
    2    8    9     -2.06      0.00
    3    8    9     -3.68      0.00
    4    8    9     -2.59      0.00
    5    8    9     -2.87      0.00
    6    8    9     -0.75      0.00
    7    8    9     -0.98      0.00
   -6    9    9     -0.24      0.00
   -5    9    9     -1.40      0.00
   -4    9    9     -1.55      0.00
   -3    9    9     -1.64      0.00
   -2    9    9      0.05      0.00
   -1    9    9     -3.38      0.00
    0    9    9     -2.56      0.00
    1    9    9     -1.01      0.00
    2    9    9     -0.44      0.00
    3    9    9     -1.46      0.00
    4    9    9     -2.32      0.00
    5    9    9     -3.02      0.00
    6    9    9     -0.84      0.00
    7    9    9     -0.70      0.00
   -6   10    9     -0.59      0.00
   -5   10    9     -0.79      0.00
   -4   10    9     -0.64      0.00
   -3   10    9      0.00      0.00
   -2   10    9      1.23      0.00
   -1   10    9     -0.83      0.00
    0   10    9     -0.53      0.00
    1   10    9      1.36      0.00
    2   10    9      1.63      0.00
    3   10    9      0.68      0.00
    4   10    9     -1.72      0.00
    5   10    9     -1.97      0.00
    6   10    9     -0.22      0.00
    7   10    9     -0.05      0.00
   -6   11    9     -0.60      0.00
   -4   11    9      0.03      0.00
   -3   11    9      0.65      0.00
   -2   11    9      1.95      0.00
   -1   11    9      0.85      0.00
    0   11    9      0.28      0.00
    1   11    9      2.21      0.00
    2   11    9      2.88      0.00
    3   11    9      2.11      0.00
    4   11    9     -0.85      0.00
    5   11    9     -0.70      0.00
    6   11    9      0.76      0.00
   -5   12    9      0.23      0.00
   -4   12    9      0.10      0.00
   -3   12    9      0.15      0.00
   -2   12    9      1.67      0.00
   -1   12    9      2.02      0.00
    0   12    9      0.11      0.00
    1   12    9      1.80      0.00
    2   12    9      2.70      0.00
    3   12    9      1.98      0.00
    4   12    9      0.01      0.00
    5   12    9     -0.17      0.00
    6   12    9      1.40      0.00
   -5   13    9      0.40      0.00
   -4   13    9      0.23      0.00
   -3   13    9     -0.48      0.00
   -2   13    9      0.49      0.00
   -1   13    9      2.53      0.00
    0   13    9     -0.37      0.00
    1   13    9      1.23      0.00
    2   13    9      1.90      0.00
    3   13    9      0.90      0.00
    4   13    9      0.39      0.00
    5   13    9     -0.38      0.00
    6   13    9      1.38      0.00
   -5   14    9      0.02      0.00
   -4   14    9      0.45      0.00
   -3   14    9     -0.27      0.00
   -2   14    9     -0.32      0.00
   -1   14    9      2.29      0.00
    0   14    9     -0.64      0.00
    1   14    9      0.56      0.00
    2   14    9      1.04      0.00
    3   14    9      0.20      0.00
    4   14    9      0.23      0.00
    5   14    9     -0.57      0.00
   -4   15    9      0.06      0.00
   -3   15    9      0.10      0.00
   -2   15    9     -0.39      0.00
   -1   15    9      1.55      0.00
    0   15    9     -0.37      0.00
    1   15    9     -0.19      0.00
    2   15    9      0.05      0.00
    3   15    9     -0.13      0.00
    4   15    9     -0.25      0.00
    5   15    9     -0.19      0.00
   -4   16    9     -0.80      0.00
   -3   16    9     -0.18      0.00
   -2   16    9     -0.60      0.00
   -1   16    9      0.64      0.00
    0   16    9     -0.09      0.00
    1   16    9     -0.26      0.00
    2   16    9     -0.47      0.00
    3   16    9     -0.60      0.00
    4   16    9     -0.89      0.00
   -3   17    9     -0.52      0.00
   -2   17    9     -1.03      0.00
   -1   17    9      0.19      0.00
    0   17    9     -0.66      0.00
    1   17    9      0.30      0.00
    2   17    9      0.04      0.00
    3   17    9     -0.55      0.00
    4   17    9     -1.33      0.00
   -2   18    9     -0.89      0.00
   -1   18    9      0.79      0.00
    0   18    9     -1.60      0.00
    1   18    9      0.50      0.00
    2   18    9      0.60      0.00
    3   18    9      0.48      0.00
    0   19    9     -1.57      0.00
    1   19    9      0.20      0.00
    2   19    9      0.21      0.00
   -2  -16   10     -0.88      0.00
   -1  -16   10      1.08      0.00
    0  -16   10      0.72      0.00
    1  -16   10      1.34      0.00
   -3  -15   10      0.28      0.00
   -2  -15   10     -0.63      0.00
   -1  -15   10      0.66      0.00
    0  -15   10      2.18      0.00
    1  -15   10      1.71      0.00
    2  -15   10      0.23      0.00
   -4  -14   10      0.99      0.00
   -3  -14   10      1.39      0.00
   -2  -14   10      0.45      0.00
   -1  -14   10     -0.06      0.00
    0  -14   10      2.17      0.00
    1  -14   10      1.50      0.00
    2  -14   10      0.54      0.00
    3  -14   10      1.21      0.00
   -4  -13   10      0.72      0.00
   -3  -13   10      1.88      0.00
   -2  -13   10      1.50      0.00
   -1  -13   10     -0.54      0.00
    0  -13   10      0.67      0.00
    1  -13   10      0.55      0.00
    2  -13   10      0.86      0.00
    3  -13   10      0.33      0.00
    4  -13   10      0.37      0.00
   -5  -12   10      0.91      0.00
   -4  -12   10      0.67      0.00
   -3  -12   10      1.81      0.00
   -2  -12   10      1.69      0.00
   -1  -12   10     -0.28      0.00
    0  -12   10     -0.77      0.00
    1  -12   10     -0.87      0.00
    2  -12   10      0.66      0.00
    3  -12   10     -0.55      0.00
    4  -12   10      1.15      0.00
   -5  -11   10      0.76      0.00
   -4  -11   10      0.62      0.00
   -3  -11   10      1.92      0.00
   -2  -11   10      1.34      0.00
   -1  -11   10      0.90      0.00
    0  -11   10     -0.69      0.00
    1  -11   10     -1.57      0.00
    2  -11   10     -0.26      0.00
    3  -11   10     -1.16      0.00
    4  -11   10      1.43      0.00
    5  -11   10     -0.70      0.00
   -6  -10   10     -1.12      0.00
   -5  -10   10     -0.10      0.00
   -4  -10   10      0.30      0.00
   -3  -10   10      2.31      0.00
   -2  -10   10      1.21      0.00
   -1  -10   10      1.94      0.00
    0  -10   10      0.04      0.00
    1  -10   10     -0.68      0.00
    2  -10   10     -0.90      0.00
    3  -10   10     -1.73      0.00
    4  -10   10      0.63      0.00
    5  -10   10     -0.85      0.00
   -6   -9   10     -1.80      0.00
   -5   -9   10     -1.27      0.00
   -4   -9   10     -0.14      0.00
   -3   -9   10      2.44      0.00
   -2   -9   10      1.55      0.00
   -1   -9   10      1.38      0.00
    0   -9   10     -0.82      0.00
    1   -9   10      0.66      0.00
    2   -9   10     -0.16      0.00
    3   -9   10     -1.80      0.00
    4   -9   10     -0.81      0.00
    5   -9   10     -1.18      0.00
   -6   -8   10     -2.50      0.00
   -5   -8   10     -2.46      0.00
   -4   -8   10     -0.58      0.00
   -3   -8   10      2.17      0.00
   -2   -8   10      2.39      0.00
   -1   -8   10     -0.24      0.00
    0   -8   10     -3.14      0.00
    2   -8   10      1.56      0.00
    3   -8   10     -0.31      0.00
    4   -8   10     -1.24      0.00
    5   -8   10     -1.36      0.00
    6   -8   10     -0.91      0.00
   -6   -7   10     -2.71      0.00
   -5   -7   10     -3.49      0.00
   -4   -7   10     -1.45      0.00
   -2   -7   10      3.22      0.00
   -1   -7   10     -1.14      0.00
    0   -7   10     -4.52      0.00
    1   -7   10     -0.21      0.00
    2   -7   10      2.56      0.00
    3   -7   10      2.49      0.00
    4   -7   10      0.05      0.00
    5   -7   10     -0.84      0.00
    6   -7   10     -0.42      0.00
   -7   -6   10     -0.26      0.00
   -6   -6   10     -1.82      0.00
   -5   -6   10     -3.63      0.00
   -4   -6   10     -2.77      0.00
   -3   -6   10      0.75      0.00
   -2   -6   10      2.65      0.00
   -1   -6   10     -1.15      0.00
    0   -6   10     -4.21      0.00
    1   -6   10     -1.45      0.00
    2   -6   10      1.82      0.00
    3   -6   10      4.54      0.00
    4   -6   10      1.47      0.00
    5   -6   10     -0.01      0.00
    6   -6   10      1.12      0.00
   -7   -5   10      0.12      0.00
   -6   -5   10     -0.30      0.00
   -5   -5   10     -2.23      0.00
   -4   -5   10     -3.24      0.00
   -3   -5   10      0.08      0.00
   -2   -5   10      0.03      0.00
   -1   -5   10     -1.73      0.00
    0   -5   10     -3.76      0.00
    1   -5   10     -2.35      0.00
    2   -5   10      0.14      0.00
    3   -5   10      4.13      0.00
    4   -5   10      1.23      0.00
    5   -5   10      0.14      0.00
    6   -5   10      1.62      0.00
   -7   -4   10      0.06      0.00
   -6   -4   10      0.56      0.00
   -5   -4   10     -0.21      0.00
   -4   -4   10     -1.76      0.00
   -3   -4   10      1.14      0.00
   -2   -4   10     -2.68      0.00
   -1   -4   10     -3.22      0.00
    0   -4   10     -4.30      0.00
    1   -4   10     -2.38      0.00
    2   -4   10     -0.49      0.00
    3   -4   10      2.06      0.00
    4   -4   10     -0.22      0.00
    5   -4   10     -0.45      0.00
    6   -4   10      0.47      0.00
    7   -4   10      0.56      0.00
   -7   -3   10     -0.07      0.00
   -6   -3   10      0.30      0.00
   -5   -3   10      0.55      0.00
   -4   -3   10      0.48      0.00
   -3   -3   10      3.60      0.00
   -2   -3   10     -2.78      0.00
   -1   -3   10     -4.14      0.00
    0   -3   10     -5.67      0.00
    1   -3   10     -1.53      0.00
    2   -3   10      0.74      0.00
    3   -3   10      0.66      0.00
    4   -3   10     -1.26      0.00
    5   -3   10     -1.22      0.00
    6   -3   10     -0.72      0.00
    7   -3   10      0.39      0.00
   -7   -2   10      0.02      0.00
   -6   -2   10     -0.33      0.00
   -5   -2   10     -0.32      0.00
   -4   -2   10      1.44      0.00
   -3   -2   10      4.49      0.00
   -2   -2   10     -0.33      0.00
   -1   -2   10     -3.39      0.00
    0   -2   10     -7.22      0.00
    1   -2   10     -1.26      0.00
    2   -2   10      2.12      0.00
    3   -2   10      1.23      0.00
    4   -2   10     -1.29      0.00
    5   -2   10     -1.85      0.00
    6   -2   10     -0.81      0.00
    7   -2   10      0.56      0.00
   -7   -1   10      0.05      0.00
   -6   -1   10     -0.67      0.00
   -5   -1   10     -1.26      0.00
   -4   -1   10      1.15      0.00
   -3   -1   10      2.20      0.00
   -2   -1   10      2.14      0.00
   -1   -1   10     -1.64      0.00
    0   -1   10     -7.27      0.00
    1   -1   10     -2.59      0.00
    2   -1   10      1.66      0.00
    3   -1   10      2.82      0.00
    4   -1   10     -0.78      0.00
    5   -1   10     -2.02      0.00
    6   -1   10     -0.28      0.00
    7   -1   10      0.58      0.00
   -7    0   10      0.00      0.00
   -6    0   10     -0.62      0.00
   -5    0   10     -1.14      0.00
   -4    0   10      0.85      0.00
   -3    0   10     -1.18      0.00
   -2    0   10      3.02      0.00
   -1    0   10     -0.37      0.00
    0    0   10     -3.94      0.00
    1    0   10     -3.92      0.00
    2    0   10      0.09      0.00
    3    0   10      3.52      0.00
    4    0   10     -0.17      0.00
    5    0   10     -1.39      0.00
    6    0   10      0.36      0.00
    7    0   10      0.33      0.00
   -7    1   10      0.20      0.00
   -6    1   10     -0.16      0.00
   -5    1   10     -0.29      0.00
   -4    1   10      0.61      0.00
   -3    1   10     -3.14      0.00
   -2    1   10      2.61      0.00
   -1    1   10     -0.25      0.00
    0    1   10      1.83      0.00
    1    1   10     -3.31      0.00
    2    1   10     -0.25      0.00
    3    1   10      2.51      0.00
    4    1   10      0.38      0.00
    5    1   10     -0.47      0.00
    6    1   10      1.04      0.00
    7    1   10      0.45      0.00
   -7    2   10      0.39      0.00
   -6    2   10      0.45      0.00
   -5    2   10      0.74      0.00
   -4    2   10      0.29      0.00
   -3    2   10     -3.35      0.00
   -2    2   10      1.64      0.00
   -1    2   10     -0.59      0.00
    0    2   10      6.49      0.00
    1    2   10     -1.19      0.00
    2    2   10      1.35      0.00
    3    2   10      1.01      0.00
    4    2   10      0.83      0.00
    5    2   10     -0.10      0.00
    6    2   10      1.34      0.00
    7    2   10      0.83      0.00
   -7    3   10      0.06      0.00
   -6    3   10      0.50      0.00
   -5    3   10      1.66      0.00
   -4    3   10      0.82      0.00
   -3    3   10     -1.91      0.00
   -2    3   10      0.98      0.00
   -1    3   10     -0.11      0.00
    0    3   10      8.01      0.00
    1    3   10      1.10      0.00
    2    3   10      3.62      0.00
    3    3   10      0.98      0.00
    4    3   10      1.15      0.00
    5    3   10     -0.11      0.00
    6    3   10      1.02      0.00
    7    3   10      0.45      0.00
   -7    4   10     -0.40      0.00
   -6    4   10     -0.10      0.00
   -5    4   10      1.98      0.00
   -4    4   10      2.11      0.00
   -3    4   10      1.13      0.00
   -2    4   10      1.63      0.00
   -1    4   10      1.85      0.00
    0    4   10      7.61      0.00
    1    4   10      3.16      0.00
    2    4   10      5.21      0.00
    3    4   10      2.93      0.00
    4    4   10      1.35      0.00
    5    4   10      0.23      0.00
    6    4   10      0.68      0.00
    7    4   10     -0.47      0.00
   -7    5   10     -0.23      0.00
   -6    5   10     -0.42      0.00
   -5    5   10      1.57      0.00
   -4    5   10      2.24      0.00
   -3    5   10      3.63      0.00
   -2    5   10      2.90      0.00
   -1    5   10      4.50      0.00
    0    5   10      7.15      0.00
    1    5   10      4.81      0.00
    2    5   10      5.26      0.00
    3    5   10      4.87      0.00
    4    5   10      1.52      0.00
    5    5   10      0.92      0.00
    6    5   10      0.65      0.00
    7    5   10     -0.48      0.00
   -7    6   10      0.41      0.00
   -6    6   10     -0.02      0.00
   -5    6   10      1.07      0.00
   -4    6   10      0.64      0.00
   -3    6   10      2.88      0.00
   -2    6   10      2.35      0.00
   -1    6   10      5.94      0.00
    0    6   10      6.80      0.00
    1    6   10      5.29      0.00
    2    6   10      3.45      0.00
    3    6   10      4.43      0.00
    4    6   10      1.66      0.00
    5    6   10      1.63      0.00
    6    6   10      0.57      0.00
    7    6   10      0.67      0.00
   -6    7   10      0.36      0.00
   -5    7   10      0.85      0.00
   -4    7   10     -0.78      0.00
   -3    7   10     -0.34      0.00
   -2    7   10     -0.66      0.00
   -1    7   10      4.87      0.00
    0    7   10      5.45      0.00
    1    7   10      4.04      0.00
    2    7   10      0.53      0.00
    3    7   10      1.69      0.00
    4    7   10      1.47      0.00
    5    7   10      2.37      0.00
    6    7   10      0.33      0.00
    7    7   10      1.50      0.00
   -6    8   10      0.23      0.00
   -5    8   10      0.45      0.00
   -4    8   10     -0.90      0.00
   -3    8   10     -2.79      0.00
   -2    8   10     -3.52      0.00
   -1    8   10      2.18      0.00
    0    8   10      2.64      0.00
    1    8   10      1.34      0.00
    2    8   10     -2.22      0.00
    3    8   10     -1.25      0.00
    4    8   10      0.71      0.00
    5    8   10      2.74      0.00
    6    8   10      0.17      0.00
    7    8   10      1.11      0.00
   -6    9   10      0.04      0.00
   -5    9   10     -0.24      0.00
   -4    9   10     -0.79      0.00
   -3    9   10     -3.20      0.00
   -2    9   10     -4.06      0.00
   -1    9   10      0.00      0.00
    0    9   10     -0.44      0.00
    1    9   10     -1.63      0.00
    2    9   10     -4.10      0.00
    3    9   10     -3.02      0.00
    4    9   10     -0.30      0.00
    5    9   10      2.03      0.00
    6    9   10     -0.05      0.00
    7    9   10      0.08      0.00
   -6   10   10      0.08      0.00
   -5   10   10     -0.74      0.00
   -4   10   10     -1.10      0.00
   -3   10   10     -2.46      0.00
   -2   10   10     -2.97      0.00
   -1   10   10     -0.63      0.00
    0   10   10     -2.06      0.00
    1   10   10     -3.19      0.00
    2   10   10     -4.79      0.00
    3   10   10     -3.66      0.00
    4   10   10     -0.96      0.00
    5   10   10      0.54      0.00
    6   10   10     -0.51      0.00
   -5   11   10     -0.93      0.00
   -4   11   10     -1.24      0.00
   -3   11   10     -1.19      0.00
   -2   11   10     -1.54      0.00
   -1   11   10     -0.27      0.00
    0   11   10     -1.67      0.00
    1   11   10     -2.69      0.00
    2   11   10     -4.07      0.00
    3   11   10     -3.20      0.00
    4   11   10     -0.99      0.00
    5   11   10     -0.43      0.00
    6   11   10     -0.70      0.00
   -5   12   10     -1.07      0.00
   -4   12   10     -1.16      0.00
   -3   12   10      0.08      0.00
   -2   12   10     -0.11      0.00
   -1   12   10      0.27      0.00
    0   12   10     -0.09      0.00
    1   12   10     -1.24      0.00
    2   12   10     -2.63      0.00
    3   12   10     -1.71      0.00
    4   12   10     -0.52      0.00
    5   12   10     -0.09      0.00
    6   12   10     -0.20      0.00
   -5   13   10     -0.97      0.00
   -4   13   10     -1.26      0.00
   -2   13   10      0.79      0.00
   -1   13   10      0.44      0.00
    0   13   10      1.39      0.00
    1   13   10     -0.07      0.00
    2   13   10     -1.47      0.00
    3   13   10     -0.32      0.00
    4   13   10      0.02      0.00
    5   13   10      0.97      0.00
    6   13   10      0.60      0.00
   -4   14   10     -1.11      0.00
   -3   14   10     -0.05      0.00
   -2   14   10      0.70      0.00
   -1   14   10     -0.03      0.00
    0   14   10      1.67      0.00
    1   14   10      0.57      0.00
    2   14   10     -0.63      0.00
    3   14   10      0.09      0.00
    4   14   10      0.33      0.00
    5   14   10      1.51      0.00
   -4   15   10     -0.20      0.00
   -3   15   10      0.24      0.00
   -2   15   10      0.54      0.00
   -1   15   10     -0.60      0.00
    0   15   10      0.75      0.00
    1   15   10      0.57      0.00
    2   15   10      0.15      0.00
    3   15   10      0.14      0.00
    4   15   10      0.60      0.00
    5   15   10      1.05      0.00
   -3   16   10      1.34      0.00
   -2   16   10      1.18      0.00
   -1   16   10     -0.60      0.00
    0   16   10      0.07      0.00
    1   16   10     -0.11      0.00
    2   16   10      0.26      0.00
    3   16   10      0.31      0.00
    4   16   10      1.09      0.00
   -3   17   10      1.66      0.00
   -2   17   10      1.68      0.00
   -1   17   10     -0.67      0.00
    0   17   10      0.63      0.00
    1   17   10     -0.63      0.00
    2   17   10     -0.31      0.00
    3   17   10     -0.07      0.00
    4   17   10      1.33      0.00
   -1   18   10     -1.70      0.00
    0   18   10      1.35      0.00
    1   18   10     -0.38      0.00
    2   18   10     -0.28      0.00
    3   18   10     -1.02      0.00
   -2  -15   11     -0.19      0.00
   -1  -15   11     -0.70      0.00
    0  -15   11     -1.33      0.00
    1  -15   11     -1.06      0.00
   -3  -14   11     -1.30      0.00
   -2  -14   11     -0.75      0.00
   -1  -14   11      0.22      0.00
    0  -14   11     -0.73      0.00
    1  -14   11     -0.10      0.00
    2  -14   11      0.13      0.00
   -4  -13   11      1.02      0.00
   -3  -13   11     -1.01      0.00
   -2  -13   11     -0.93      0.00
   -1  -13   11      0.99      0.00
    0  -13   11      0.92      0.00
    1  -13   11      1.05      0.00
    2  -13   11     -0.13      0.00
    3  -13   11     -1.33      0.00
   -4  -12   11      0.94      0.00
   -3  -12   11     -0.64      0.00
   -2  -12   11     -0.72      0.00
   -1  -12   11      1.01      0.00
    0  -12   11      2.22      0.00
    1  -12   11      2.12      0.00
    2  -12   11     -0.22      0.00
    3  -12   11     -0.46      0.00
    4  -12   11     -0.91      0.00
   -5  -11   11      0.84      0.00
   -4  -11   11      0.95      0.00
   -3  -11   11     -0.74      0.00
   -2  -11   11     -0.65      0.00
   -1  -11   11      0.09      0.00
    0  -11   11      1.95      0.00
    1  -11   11      2.22      0.00
    2  -11   11      0.10      0.00
    3  -11   11      0.33      0.00
    4  -11   11     -0.31      0.00
   -5  -10   11      1.35      0.00
   -4  -10   11      1.36      0.00
   -3  -10   11     -1.05      0.00
   -2  -10   11     -0.88      0.00
   -1  -10   11     -0.80      0.00
    0  -10   11      1.20      0.00
    1  -10   11      1.01      0.00
    2  -10   11     -0.04      0.00
    3  -10   11      0.74      0.00
    4  -10   11      0.60      0.00
    5  -10   11      2.36      0.00
   -6   -9   11      1.31      0.00
   -5   -9   11      1.74      0.00
   -4   -9   11      1.70      0.00
   -3   -9   11     -1.00      0.00
   -2   -9   11     -1.32      0.00
   -1   -9   11     -0.62      0.00
    0   -9   11      1.84      0.00
    1   -9   11     -0.32      0.00
    2   -9   11     -1.09      0.00
    3   -9   11      0.43      0.00
    4   -9   11      1.14      0.00
    5   -9   11      2.31      0.00
   -6   -8   11      1.42      0.00
   -5   -8   11      2.10      0.00
   -4   -8   11      1.67      0.00
   -3   -8   11     -0.57      0.00
   -1   -8   11      0.08      0.00
    0   -8   11      3.32      0.00
    1   -8   11     -0.67      0.00
    2   -8   11     -2.08      0.00
    3   -8   11     -0.64      0.00
    4   -8   11      0.64      0.00
    5   -8   11      0.99      0.00
   -6   -7   11      1.04      0.00
   -5   -7   11      2.37      0.00
   -4   -7   11      1.56      0.00
   -3   -7   11     -0.03      0.00
   -2   -7   11     -2.66      0.00
   -1   -7   11      0.21      0.00
    0   -7   11      3.63      0.00
    1   -7   11     -0.28      0.00
    2   -7   11     -1.78      0.00
    3   -7   11     -1.78      0.00
    4   -7   11     -0.30      0.00
    5   -7   11     -0.66      0.00
    6   -7   11     -1.38      0.00
   -6   -6   11     -0.12      0.00
   -5   -6   11      1.85      0.00
   -4   -6   11      1.33      0.00
   -3   -6   11      0.32      0.00
   -2   -6   11     -2.12      0.00
   -1   -6   11      0.12      0.00
    0   -6   11      2.76      0.00
    1   -6   11      0.45      0.00
    2   -6   11     -0.25      0.00
    3   -6   11     -2.12      0.00
    4   -6   11     -0.38      0.00
    5   -6   11     -1.09      0.00
    6   -6   11     -2.55      0.00
   -6   -5   11     -1.16      0.00
   -5   -5   11      0.28      0.00
   -4   -5   11      0.22      0.00
   -3   -5   11     -0.42      0.00
   -2   -5   11     -0.39      0.00
   -1   -5   11      0.78      0.00
    0   -5   11      2.26      0.00
    1   -5   11      1.46      0.00
    2   -5   11      1.22      0.00
    3   -5   11     -1.51      0.00
    4   -5   11      0.52      0.00
    5   -5   11     -0.10      0.00
    6   -5   11     -2.07      0.00
   -7   -4   11     -0.14      0.00
   -6   -4   11     -1.02      0.00
   -5   -4   11     -1.12      0.00
   -4   -4   11     -1.57      0.00
   -3   -4   11     -2.77      0.00
   -2   -4   11      0.71      0.00
   -1   -4   11      1.75      0.00
    0   -4   11      2.58      0.00
    1   -4   11      2.09      0.00
    2   -4   11      1.31      0.00
    3   -4   11     -0.59      0.00
    4   -4   11      1.09      0.00
    5   -4   11      0.84      0.00
    6   -4   11     -0.50      0.00
   -7   -3   11      0.24      0.00
   -6   -3   11     -0.01      0.00
   -5   -3   11     -1.05      0.00
   -4   -3   11     -2.35      0.00
   -3   -3   11     -5.01      0.00
   -2   -3   11     -0.09      0.00
   -1   -3   11      1.70      0.00
    0   -3   11      3.12      0.00
    1   -3   11      1.83      0.00
    2   -3   11      0.23      0.00
    3   -3   11     -0.18      0.00
    4   -3   11      0.60      0.00
    5   -3   11      0.85      0.00
    6   -3   11      0.23      0.00
    7   -3   11      0.09      0.00
   -7   -2   11     -0.08      0.00
   -6   -2   11      0.71      0.00
   -5   -2   11      0.02      0.00
   -4   -2   11     -1.53      0.00
   -3   -2   11     -4.51      0.00
   -2   -2   11     -1.60      0.00
   -1   -2   11      0.23      0.00
    0   -2   11      3.18      0.00
    1   -2   11      1.31      0.00
    2   -2   11     -0.41      0.00
    3   -2   11     -0.80      0.00
    4   -2   11     -0.37      0.00
    5   -2   11      0.40      0.00
    6   -2   11     -0.39      0.00
    7   -2   11     -0.24      0.00
   -7   -1   11     -0.70      0.00
   -6   -1   11      0.71      0.00
   -5   -1   11      0.58      0.00
   -4   -1   11     -0.74      0.00
   -3   -1   11     -1.46      0.00
   -2   -1   11     -2.12      0.00
   -1   -1   11     -1.73      0.00
    0   -1   11      1.62      0.00
    1   -1   11      0.89      0.00
    2   -1   11      0.18      0.00
    3   -1   11     -2.23      0.00
    4   -1   11     -1.11      0.00
    5   -1   11     -0.11      0.00
    6   -1   11     -1.35      0.00
    7   -1   11     -0.40      0.00
   -7    0   11     -1.29      0.00
   -6    0   11      0.24      0.00
   -5    0   11      0.23      0.00
   -4    0   11     -1.08      0.00
   -3    0   11      1.33      0.00
   -2    0   11     -1.75      0.00
   -1    0   11     -2.76      0.00
    0    0   11     -2.21      0.00
    1    0   11     -0.26      0.00
    2    0   11      0.61      0.00
    3    0   11     -3.39      0.00
    4    0   11     -1.61      0.00
    5    0   11     -0.81      0.00
    6    0   11     -1.90      0.00
    7    0   11     -0.19      0.00
   -7    1   11     -1.60      0.00
   -6    1   11     -0.43      0.00
   -5    1   11     -0.47      0.00
   -4    1   11     -1.61      0.00
   -3    1   11      2.35      0.00
   -2    1   11     -1.29      0.00
   -1    1   11     -2.19      0.00
    0    1   11     -6.56      0.00
    1    1   11     -2.24      0.00
    2    1   11     -0.50      0.00
    3    1   11     -3.16      0.00
    4    1   11     -2.03      0.00
    5    1   11     -1.30      0.00
    6    1   11     -1.78      0.00
    7    1   11     -0.30      0.00
   -7    2   11     -1.12      0.00
   -6    2   11     -0.88      0.00
   -5    2   11     -1.18      0.00
   -4    2   11     -1.73      0.00
   -3    2   11      2.17      0.00
   -2    2   11     -0.76      0.00
   -1    2   11     -0.69      0.00
    0    2   11     -8.72      0.00
    1    2   11     -3.82      0.00
    2    2   11     -2.54      0.00
    3    2   11     -1.66      0.00
    4    2   11     -2.27      0.00
    5    2   11     -1.19      0.00
    6    2   11     -1.07      0.00
    7    2   11     -0.56      0.00
   -7    3   11      0.04      0.00
   -6    3   11     -0.57      0.00
   -5    3   11     -1.61      0.00
   -4    3   11     -2.10      0.00
   -3    3   11      1.16      0.00
   -2    3   11     -0.25      0.00
   -1    3   11      0.37      0.00
    0    3   11     -8.04      0.00
    1    3   11     -4.42      0.00
    2    3   11     -4.02      0.00
    3    3   11     -0.40      0.00
    4    3   11     -2.09      0.00
    5    3   11     -0.96      0.00
    6    3   11     -0.48      0.00
    7    3   11     -0.25      0.00
   -7    4   11      0.86      0.00
   -6    4   11      0.16      0.00
   -5    4   11     -1.29      0.00
   -4    4   11     -2.30      0.00
   -3    4   11     -0.18      0.00
   -2    4   11     -0.17      0.00
   -1    4   11      0.30      0.00
    0    4   11     -5.98      0.00
    1    4   11     -4.44      0.00
    2    4   11     -4.14      0.00
    3    4   11     -0.38      0.00
    4    4   11     -1.41      0.00
    5    4   11     -1.08      0.00
    6    4   11     -0.71      0.00
    7    4   11      0.18      0.00
   -7    5   11      0.68      0.00
   -6    5   11      0.34      0.00
   -5    5   11     -0.44      0.00
   -4    5   11     -0.97      0.00
   -3    5   11      0.01      0.00
   -2    5   11      0.22      0.00
   -1    5   11     -0.11      0.00
    0    5   11     -3.78      0.00
    1    5   11     -3.75      0.00
    2    5   11     -2.58      0.00
    3    5   11     -0.55      0.00
    4    5   11     -0.55      0.00
    5    5   11     -1.23      0.00
    6    5   11     -1.11      0.00
    7    5   11     -0.27      0.00
   -6    6   11     -0.05      0.00
   -5    6   11      0.09      0.00
   -4    6   11      1.15      0.00
   -3    6   11      2.29      0.00
   -2    6   11      2.09      0.00
   -1    6   11      0.30      0.00
    0    6   11     -1.63      0.00
    1    6   11     -1.98      0.00
    2    6   11      0.33      0.00
    3    6   11      0.63      0.00
    4    6   11      0.15      0.00
    5    6   11     -1.15      0.00
    6    6   11     -0.70      0.00
    7    6   11     -1.17      0.00
   -6    7   11     -0.15      0.00
   -5    7   11      0.20      0.00
   -4    7   11      1.83      0.00
   -3    7   11      4.16      0.00
   -2    7   11      4.37      0.00
   -1    7   11      1.40      0.00
    0    7   11      0.48      0.00
    1    7   11      0.27      0.00
    2    7   11      3.10      0.00
    3    7   11      2.67      0.00
    4    7   11      0.79      0.00
    5    7   11     -1.00      0.00
    6    7   11      0.20      0.00
    7    7   11     -1.23      0.00
   -6    8   11      0.25      0.00
   -5    8   11      0.37      0.00
   -3    8   11      3.60      0.00
   -2    8   11      4.62      0.00
   -1    8   11      1.73      0.00
    0    8   11      2.15      0.00
    1    8   11      1.94      0.00
    2    8   11      4.37      0.00
    3    8   11      3.82      0.00
    4    8   11      1.62      0.00
    5    8   11     -0.60      0.00
    6    8   11      0.64      0.00
    7    8   11     -0.29      0.00
   -6    9   11      0.51      0.00
   -5    9   11      0.50      0.00
   -3    9   11      1.86      0.00
   -2    9   11      2.71      0.00
   -1    9   11      0.50      0.00
    0    9   11      2.63      0.00
    1    9   11      2.28      0.00
    2    9   11      4.12      0.00
    3    9   11      3.60      0.00
    4    9   11      2.36      0.00
    5    9   11      0.27      0.00
    6    9   11      0.45      0.00
   -6   10   11      0.40      0.00
   -5   10   11      0.25      0.00
   -4   10   11      0.50      0.00
   -3   10   11      0.78      0.00
   -2   10   11      0.70      0.00
   -1   10   11     -1.41      0.00
    0   10   11      1.60      0.00
    1   10   11      1.12      0.00
    2   10   11      2.89      0.00
    3   10   11      2.76      0.00
    4   10   11      2.41      0.00
    5   10   11      0.99      0.00
    6   10   11     -0.13      0.00
   -5   11   11     -0.02      0.00
   -4   11   11      0.89      0.00
   -3   11   11      0.33      0.00
   -2   11   11     -0.29      0.00
   -1   11   11     -2.63      0.00
    0   11   11     -0.32      0.00
    1   11   11     -0.78      0.00
    2   11   11      1.19      0.00
    3   11   11      1.53      0.00
    4   11   11      1.57      0.00
    5   11   11      0.74      0.00
    6   11   11     -1.07      0.00
   -5   12   11      0.07      0.00
   -4   12   11      1.26      0.00
   -3   12   11      0.19      0.00
   -2   12   11     -0.52      0.00
   -1   12   11     -2.61      0.00
    0   12   11     -1.96      0.00
    1   12   11     -1.92      0.00
    2   12   11     -0.04      0.00
    3   12   11      0.08      0.00
    4   12   11      0.40      0.00
    5   12   11     -0.38      0.00
    6   12   11     -2.00      0.00
   -5   13   11      0.15      0.00
   -4   13   11      1.50      0.00
   -3   13   11      0.50      0.00
   -2   13   11     -0.14      0.00
   -1   13   11     -1.37      0.00
    0   13   11     -2.33      0.00
    1   13   11     -1.64      0.00
    2   13   11     -0.22      0.00
    3   13   11     -0.68      0.00
    4   13   11     -0.28      0.00
    5   13   11     -1.41      0.00
   -4   14   11      1.05      0.00
   -3   14   11      0.53      0.00
   -2   14   11      0.33      0.00
   -1   14   11      0.40      0.00
    0   14   11     -1.26      0.00
    1   14   11     -0.54      0.00
    2   14   11      0.00      0.00
    3   14   11     -0.40      0.00
    4   14   11     -0.26      0.00
    5   14   11     -1.57      0.00
   -4   15   11      0.01      0.00
   -3   15   11     -0.56      0.00
   -2   15   11     -0.17      0.00
   -1   15   11      1.32      0.00
    0   15   11      0.19      0.00
    1   15   11      0.59      0.00
    2   15   11      0.07      0.00
    3   15   11      0.02      0.00
    4   15   11     -0.26      0.00
    5   15   11     -0.91      0.00
   -3   16   11     -1.70      0.00
   -2   16   11     -1.35      0.00
   -1   16   11      1.04      0.00
    0   16   11      0.50      0.00
    1   16   11      1.16      0.00
    2   16   11      0.35      0.00
    3   16   11      0.09      0.00
    4   16   11     -0.71      0.00
   -2   17   11     -1.50      0.00
   -1   17   11      1.04      0.00
    0   17   11     -0.24      0.00
    1   17   11      0.82      0.00
    2   17   11      0.65      0.00
    3   17   11      0.38      0.00
   -1   18   11      2.08      0.00
    0   18   11     -0.45      0.00
    1   18   11      0.16      0.00
    2   18   11      0.15      0.00
   -1  -15   12      0.36      0.00
    0  -15   12     -0.13      0.00
   -2  -14   12     -0.23      0.00
   -1  -14   12     -0.79      0.00
    0  -14   12     -0.88      0.00
    1  -14   12     -1.24      0.00
    2  -14   12     -1.00      0.00
   -3  -13   12     -0.20      0.00
   -2  -13   12     -0.58      0.00
   -1  -13   12     -1.60      0.00
    0  -13   12     -2.09      0.00
    1  -13   12     -1.82      0.00
    2  -13   12     -0.47      0.00
    3  -13   12      0.69      0.00
   -4  -12   12     -0.63      0.00
   -3  -12   12     -0.44      0.00
   -2  -12   12     -0.62      0.00
   -1  -12   12     -1.34      0.00
    0  -12   12     -2.47      0.00
    1  -12   12     -2.14      0.00
    2  -12   12     -0.16      0.00
    3  -12   12     -0.21      0.00
   -5  -11   12     -0.40      0.00
   -4  -11   12     -0.68      0.00
   -3  -11   12     -0.43      0.00
   -2  -11   12     -0.19      0.00
   -1  -11   12     -0.06      0.00
    0  -11   12     -1.19      0.00
    1  -11   12     -1.42      0.00
    2  -11   12     -0.09      0.00
    3  -11   12     -0.95      0.00
    4  -11   12     -1.32      0.00
   -5  -10   12     -0.11      0.00
   -4  -10   12     -1.07      0.00
   -3  -10   12     -0.30      0.00
   -2  -10   12      0.36      0.00
   -1  -10   12      1.09      0.00
    0  -10   12      0.31      0.00
    1  -10   12      0.18      0.00
    2  -10   12      0.37      0.00
    3  -10   12     -1.09      0.00
    4  -10   12     -1.26      0.00
   -5   -9   12      0.22      0.00
   -4   -9   12     -1.09      0.00
   -3   -9   12     -0.25      0.00
   -2   -9   12      0.75      0.00
   -1   -9   12      1.26      0.00
    0   -9   12      0.20      0.00
    1   -9   12      1.33      0.00
    2   -9   12      1.07      0.00
    3   -9   12     -0.89      0.00
    4   -9   12     -0.52      0.00
    5   -9   12     -1.29      0.00
   -6   -8   12     -0.38      0.00
   -5   -8   12      0.07      0.00
   -4   -8   12     -0.62      0.00
   -3   -8   12     -0.44      0.00
   -2   -8   12      1.16      0.00
   -1   -8   12      1.03      0.00
    0   -8   12     -0.92      0.00
    1   -8   12      1.44      0.00
    2   -8   12      1.07      0.00
    3   -8   12     -0.90      0.00
    4   -8   12      0.09      0.00
    5   -8   12      0.67      0.00
   -6   -7   12     -0.16      0.00
   -5   -7   12     -0.41      0.00
   -4   -7   12     -0.09      0.00
   -3   -7   12     -0.90      0.00
   -2   -7   12      1.44      0.00
   -1   -7   12      1.09      0.00
    0   -7   12     -1.35      0.00
    1   -7   12      1.04      0.00
    2   -7   12      0.04      0.00
    3   -7   12     -1.08      0.00
    4   -7   12     -0.20      0.00
    5   -7   12      1.90      0.00
   -6   -6   12      0.70      0.00
   -5   -6   12     -0.30      0.00
   -4   -6   12      0.51      0.00
   -3   -6   12     -1.21      0.00
   -2   -6   12      1.06      0.00
   -1   -6   12      1.23      0.00
    0   -6   12     -0.91      0.00
    1   -6   12      0.28      0.00
    2   -6   12     -1.44      0.00
    3   -6   12     -0.92      0.00
    4   -6   12     -1.18      0.00
    5   -6   12      1.12      0.00
    6   -6   12      2.38      0.00
   -6   -5   12      1.36      0.00
   -5   -5   12      0.61      0.00
   -4   -5   12      1.48      0.00
   -3   -5   12     -0.49      0.00
   -2   -5   12      0.35      0.00
   -1   -5   12      1.17      0.00
    0   -5   12     -0.25      0.00
    1   -5   12     -0.73      0.00
    2   -5   12     -2.41      0.00
    3   -5   12     -0.43      0.00
    4   -5   12     -1.70      0.00
    5   -5   12     -0.52      0.00
    6   -5   12      1.19      0.00
   -6   -4   12      1.06      0.00
   -5   -4   12      1.36      0.00
   -4   -4   12      2.10      0.00
   -3   -4   12      1.19      0.00
   -2   -4   12      0.37      0.00
   -1   -4   12      1.30      0.00
    0   -4   12      0.64      0.00
    1   -4   12     -0.97      0.00
    2   -4   12     -2.16      0.00
    3   -4   12     -0.20      0.00
    4   -4   12     -1.09      0.00
    5   -4   12     -0.97      0.00
    6   -4   12      0.09      0.00
   -6   -3   12      0.33      0.00
   -5   -3   12      1.27      0.00
   -4   -3   12      1.35      0.00
   -3   -3   12      2.13      0.00
   -2   -3   12      1.09      0.00
   -1   -3   12      1.93      0.00
    0   -3   12      1.64      0.00
    1   -3   12      0.16      0.00
    2   -3   12     -0.95      0.00
    3   -3   12     -0.28      0.00
    4   -3   12      0.15      0.00
    5   -3   12     -0.02      0.00
    6   -3   12      0.30      0.00
   -7   -2   12      0.64      0.00
   -6   -2   12     -0.02      0.00
   -5   -2   12      0.90      0.00
   -4   -2   12      0.07      0.00
   -3   -2   12      1.22      0.00
   -2   -2   12      1.30      0.00
   -1   -2   12      2.73      0.00
    0   -2   12      2.34      0.00
    1   -2   12      1.66      0.00
    2   -2   12      0.01      0.00
    3   -2   12      0.28      0.00
    4   -2   12      1.21      0.00
    5   -2   12      1.06      0.00
    6   -2   12      1.34      0.00
   -7   -1   12      0.91      0.00
   -6   -1   12      0.03      0.00
   -5   -1   12      0.78      0.00
   -4   -1   12      0.07      0.00
   -3   -1   12     -0.18      0.00
   -2   -1   12      0.71      0.00
   -1   -1   12      3.15      0.00
    0   -1   12      3.02      0.00
    1   -1   12      2.59      0.00
    2   -1   12      0.07      0.00
    3   -1   12      1.92      0.00
    4   -1   12      1.83      0.00
    5   -1   12      1.66      0.00
    6   -1   12      2.12      0.00
    7   -1   12      0.11      0.00
   -7    0   12      1.15      0.00
   -6    0   12      0.25      0.00
   -5    0   12      0.61      0.00
   -4    0   12      1.14      0.00
   -3    0   12     -0.58      0.00
   -2    0   12      0.26      0.00
   -1    0   12      2.65      0.00
    0    0   12      4.06      0.00
    1    0   12      2.98      0.00
    2    0   12     -0.13      0.00
    3    0   12      3.32      0.00
    4    0   12      1.99      0.00
    5    0   12      1.85      0.00
    6    0   12      2.18      0.00
    7    0   12      0.05      0.00
   -7    1   12      1.08      0.00
   -6    1   12      0.62      0.00
   -4    1   12      1.54      0.00
   -3    1   12     -0.61      0.00
   -2    1   12      0.20      0.00
   -1    1   12      0.97      0.00
    0    1   12      4.60      0.00
    1    1   12      2.73      0.00
    2    1   12      0.07      0.00
    3    1   12      2.65      0.00
    4    1   12      1.65      0.00
    5    1   12      1.48      0.00
    6    1   12      1.37      0.00
    7    1   12      0.32      0.00
   -7    2   12      0.25      0.00
   -6    2   12      0.74      0.00
   -5    2   12      0.32      0.00
   -4    2   12      1.14      0.00
   -3    2   12     -1.18      0.00
   -2    2   12     -0.23      0.00
   -1    2   12     -1.30      0.00
    0    2   12      3.69      0.00
    1    2   12      1.65      0.00
    2    2   12      0.37      0.00
    3    2   12     -0.05      0.00
    4    2   12      0.99      0.00
    5    2   12      0.72      0.00
    6    2   12      0.10      0.00
    7    2   12      0.53      0.00
   -6    3   12      0.20      0.00
   -5    3   12      0.36      0.00
   -4    3   12      0.97      0.00
   -3    3   12     -1.59      0.00
   -2    3   12     -0.96      0.00
   -1    3   12     -2.99      0.00
    0    3   12      1.66      0.00
    1    3   12      0.41      0.00
    2    3   12      0.47      0.00
    3    3   12     -2.48      0.00
    4    3   12      0.30      0.00
    5    3   12      0.33      0.00
    6    3   12     -0.42      0.00
    7    3   12      0.06      0.00
   -6    4   12     -0.55      0.00
   -5    4   12     -0.24      0.00
   -4    4   12      0.60      0.00
   -3    4   12     -1.57      0.00
   -2    4   12     -1.33      0.00
   -1    4   12     -3.51      0.00
    0    4   12     -0.54      0.00
    1    4   12     -0.42      0.00
    2    4   12      0.27      0.00
    3    4   12     -2.86      0.00
    4    4   12     -0.34      0.00
    5    4   12      0.39      0.00
    6    4   12      0.31      0.00
    7    4   12     -0.43      0.00
   -6    5   12     -0.69      0.00
   -5    5   12     -1.11      0.00
   -4    5   12     -0.78      0.00
   -3    5   12     -2.18      0.00
   -2    5   12     -1.62      0.00
   -1    5   12     -3.36      0.00
    0    5   12     -2.38      0.00
    1    5   12     -1.18      0.00
    2    5   12     -0.48      0.00
    3    5   12     -2.01      0.00
    4    5   12     -0.83      0.00
    5    5   12      0.29      0.00
    6    5   12      1.01      0.00
    7    5   12     -0.06      0.00
   -6    6   12     -0.28      0.00
   -5    6   12     -1.33      0.00
   -4    6   12     -1.92      0.00
   -3    6   12     -3.01      0.00
   -2    6   12     -2.20      0.00
   -1    6   12     -3.07      0.00
    0    6   12     -3.45      0.00
    1    6   12     -1.94      0.00
    2    6   12     -1.48      0.00
    3    6   12     -1.57      0.00
    4    6   12     -1.12      0.00
    5    6   12     -0.11      0.00
    6    6   12      0.61      0.00
    7    6   12      0.67      0.00
   -6    7   12     -0.01      0.00
   -5    7   12     -0.84      0.00
   -3    7   12     -2.14      0.00
   -2    7   12     -2.11      0.00
   -1    7   12     -2.23      0.00
    0    7   12     -3.40      0.00
    1    7   12     -1.86      0.00
    2    7   12     -1.65      0.00
    3    7   12     -1.51      0.00
    4    7   12     -1.42      0.00
    5    7   12     -0.49      0.00
    6    7   12     -0.13      0.00
   -6    8   12      0.05      0.00
   -4    8   12      0.21      0.00
   -3    8   12      0.20      0.00
   -2    8   12     -0.68      0.00
   -1    8   12     -0.30      0.00
    0    8   12     -2.32      0.00
    1    8   12     -0.61      0.00
    2    8   12     -0.69      0.00
    3    8   12     -0.93      0.00
    4    8   12     -1.95      0.00
    5    8   12     -0.88      0.00
    6    8   12     -0.13      0.00
   -4    9   12      0.82      0.00
   -3    9   12      1.48      0.00
   -2    9   12      0.76      0.00
   -1    9   12      1.96      0.00
    0    9   12     -0.75      0.00
    1    9   12      1.26      0.00
    2    9   12      0.61      0.00
    3    9   12     -0.05      0.00
    4    9   12     -2.39      0.00
    5    9   12     -1.25      0.00
    6    9   12      0.61      0.00
   -4   10   12      0.44      0.00
   -3   10   12      0.92      0.00
   -2   10   12      0.87      0.00
   -1   10   12      3.09      0.00
    0   10   12      0.70      0.00
    1   10   12      3.05      0.00
    2   10   12      1.82      0.00
    3   10   12      0.53      0.00
    4   10   12     -2.16      0.00
    5   10   12     -1.13      0.00
    6   10   12      1.57      0.00
   -4   11   12     -0.23      0.00
   -3   11   12      0.05      0.00
   -2   11   12      0.28      0.00
   -1   11   12      2.61      0.00
    0   11   12      1.49      0.00
    1   11   12      3.88      0.00
    2   11   12      2.74      0.00
    3   11   12      1.06      0.00
    4   11   12     -1.14      0.00
    5   11   12     -0.40      0.00
    6   11   12      2.36      0.00
   -5   12   12      1.06      0.00
   -4   12   12     -0.94      0.00
   -3   12   12     -0.31      0.00
   -2   12   12     -0.02      0.00
   -1   12   12      1.20      0.00
    0   12   12      1.42      0.00
    1   12   12      3.01      0.00
    2   12   12      2.65      0.00
    3   12   12      1.61      0.00
    4   12   12     -0.03      0.00
    5   12   12      0.40      0.00
   -4   13   12     -1.33      0.00
   -3   13   12     -0.43      0.00
   -2   13   12     -0.11      0.00
   -1   13   12     -0.35      0.00
    0   13   12      0.68      0.00
    1   13   12      0.93      0.00
    2   13   12      1.39      0.00
    3   13   12      1.46      0.00
    4   13   12      0.36      0.00
    5   13   12      0.80      0.00
   -4   14   12     -0.91      0.00
   -3   14   12     -0.05      0.00
   -2   14   12      0.11      0.00
   -1   14   12     -1.30      0.00
    0   14   12     -0.20      0.00
    1   14   12     -0.89      0.00
    2   14   12      0.11      0.00
    3   14   12      0.58      0.00
    4   14   12      0.10      0.00
    5   14   12      0.72      0.00
   -3   15   12      0.84      0.00
   -2   15   12      0.95      0.00
   -1   15   12     -1.07      0.00
    0   15   12     -0.49      0.00
    1   15   12     -1.54      0.00
    2   15   12     -0.47      0.00
    3   15   12     -0.06      0.00
    4   15   12      0.09      0.00
   -3   16   12      1.12      0.00
   -2   16   12      1.58      0.00
   -1   16   12     -0.39      0.00
    0   16   12      0.02      0.00
    1   16   12     -1.03      0.00
    2   16   12     -0.81      0.00
    3   16   12     -0.23      0.00
    4   16   12      0.57      0.00
   -2   17   12      0.99      0.00
   -1   17   12     -0.61      0.00
    0   17   12      0.41      0.00
    1   17   12     -0.04      0.00
    2   17   12     -0.95      0.00
    3   17   12     -0.42      0.00
    0   18   12     -0.05      0.00
    1   18   12      0.44      0.00
   -1  -14   13      1.26      0.00
    0  -14   13      1.51      0.00
    1  -14   13      1.30      0.00
   -3  -13   13     -0.01      0.00
   -2  -13   13      0.84      0.00
   -1  -13   13      1.23      0.00
    0  -13   13      1.61      0.00
    1  -13   13      1.35      0.00
    2  -13   13      0.96      0.00
   -3  -12   13      0.31      0.00
   -2  -12   13      0.54      0.00
   -1  -12   13      0.17      0.00
    0  -12   13      0.61      0.00
    1  -12   13      0.86      0.00
    2  -12   13      0.59      0.00
    3  -12   13      1.52      0.00
   -4  -11   13     -0.39      0.00
   -3  -11   13      0.64      0.00
   -2  -11   13      0.10      0.00
   -1  -11   13     -1.39      0.00
    0  -11   13     -1.63      0.00
    1  -11   13     -0.69      0.00
    2  -11   13     -0.09      0.00
    3  -11   13      1.40      0.00
   -5  -10   13     -0.96      0.00
   -4  -10   13     -0.16      0.00
   -3  -10   13      0.63      0.00
   -2  -10   13     -0.09      0.00
   -1  -10   13     -2.28      0.00
    0  -10   13     -3.33      0.00
    1  -10   13     -2.46      0.00
    2  -10   13     -0.96      0.00
    3  -10   13      0.65      0.00
    4  -10   13      0.39      0.00
   -5   -9   13     -1.22      0.00
   -4   -9   13     -0.24      0.00
   -3   -9   13      0.49      0.00
   -2   -9   13      0.09      0.00
   -1   -9   13     -2.09      0.00
    0   -9   13     -2.94      0.00
    1   -9   13     -3.02      0.00
    2   -9   13     -1.23      0.00
    3   -9   13      0.46      0.00
    4   -9   13     -1.22      0.00
   -5   -8   13     -0.71      0.00
   -4   -8   13     -0.37      0.00
   -3   -8   13      0.91      0.00
   -2   -8   13      0.37      0.00
   -1   -8   13     -1.64      0.00
    0   -8   13     -1.32      0.00
    1   -8   13     -2.44      0.00
    2   -8   13     -0.53      0.00
    3   -8   13      1.24      0.00
    4   -8   13     -1.21      0.00
    5   -8   13     -1.23      0.00
   -5   -7   13     -0.02      0.00
   -4   -7   13     -0.33      0.00
   -3   -7   13      2.09      0.00
   -2   -7   13      0.57      0.00
   -1   -7   13     -1.69      0.00
    0   -7   13     -0.26      0.00
    1   -7   13     -1.67      0.00
    2   -7   13      0.60      0.00
    3   -7   13      1.85      0.00
    4   -7   13      0.27      0.00
    5   -7   13     -1.36      0.00
   -6   -6   13     -0.44      0.00
   -5   -6   13     -0.09      0.00
   -4   -6   13     -0.54      0.00
   -3   -6   13      3.20      0.00
   -2   -6   13      0.74      0.00
   -1   -6   13     -2.17      0.00
    0   -6   13     -0.42      0.00
    1   -6   13     -0.95      0.00
    2   -6   13      1.59      0.00
    3   -6   13      1.24      0.00
    4   -6   13      1.57      0.00
    5   -6   13      0.07      0.00
   -6   -5   13     -0.99      0.00
   -5   -5   13     -0.86      0.00
   -4   -5   13     -1.10      0.00
   -3   -5   13      3.17      0.00
   -2   -5   13      0.71      0.00
   -1   -5   13     -2.74      0.00
    0   -5   13     -1.64      0.00
    1   -5   13     -0.56      0.00
    2   -5   13      2.02      0.00
    3   -5   13      0.03      0.00
    4   -5   13      1.57      0.00
    5   -5   13      1.36      0.00
    6   -5   13     -0.02      0.00
   -6   -4   13     -0.69      0.00
   -5   -4   13     -1.46      0.00
   -4   -4   13     -1.13      0.00
   -3   -4   13      2.21      0.00
   -2   -4   13      0.29      0.00
   -1   -4   13     -2.99      0.00
    0   -4   13     -3.23      0.00
    1   -4   13     -1.22      0.00
    2   -4   13      1.36      0.00
    3   -4   13     -0.52      0.00
    4   -4   13      0.65      0.00
    5   -4   13      1.14      0.00
    6   -4   13      0.15      0.00
   -6   -3   13     -0.17      0.00
   -5   -3   13     -1.61      0.00
   -4   -3   13     -0.14      0.00
   -3   -3   13      1.47      0.00
   -2   -3   13     -0.13      0.00
   -1   -3   13     -2.57      0.00
    0   -3   13     -3.84      0.00
    1   -3   13     -2.53      0.00
    2   -3   13     -0.15      0.00
    3   -3   13     -0.59      0.00
    4   -3   13     -0.28      0.00
    5   -3   13     -0.05      0.00
    6   -3   13     -0.46      0.00
   -6   -2   13      0.01      0.00
   -5   -2   13     -1.54      0.00
   -4   -2   13      0.71      0.00
   -3   -2   13      1.04      0.00
   -2   -2   13     -0.15      0.00
   -1   -2   13     -1.72      0.00
    0   -2   13     -2.80      0.00
    1   -2   13     -2.90      0.00
    2   -2   13     -1.05      0.00
    3   -2   13     -1.34      0.00
    4   -2   13     -0.98      0.00
    5   -2   13     -1.02      0.00
    6   -2   13     -1.08      0.00
   -6   -1   13     -0.07      0.00
   -5   -1   13     -1.04      0.00
   -4   -1   13      0.41      0.00
   -3   -1   13      0.06      0.00
   -2   -1   13     -0.13      0.00
   -1   -1   13     -1.05      0.00
    0   -1   13     -1.19      0.00
    1   -1   13     -1.79      0.00
    2   -1   13     -0.40      0.00
    3   -1   13     -2.82      0.00
    4   -1   13     -1.34      0.00
    5   -1   13     -1.39      0.00
    6   -1   13     -1.41      0.00
   -6    0   13     -0.31      0.00
   -5    0   13      0.08      0.00
   -4    0   13     -0.09      0.00
   -3    0   13     -0.99      0.00
   -2    0   13     -0.40      0.00
   -1    0   13     -0.49      0.00
    0    0   13     -0.13      0.00
    1    0   13     -0.07      0.00
    2    0   13      1.08      0.00
    3    0   13     -3.35      0.00
    4    0   13     -0.94      0.00
    5    0   13     -1.09      0.00
    6    0   13     -1.37      0.00
   -6    1   13     -0.61      0.00
   -5    1   13      1.02      0.00
   -4    1   13      0.26      0.00
   -3    1   13     -0.58      0.00
   -2    1   13     -0.38      0.00
   -1    1   13      0.64      0.00
    0    1   13      0.64      0.00
    1    1   13      1.61      0.00
    2    1   13      2.19      0.00
    3    1   13     -1.58      0.00
    4    1   13      0.16      0.00
    5    1   13     -0.15      0.00
    6    1   13     -0.55      0.00
   -6    2   13     -0.50      0.00
   -5    2   13      1.03      0.00
   -4    2   13      0.65      0.00
   -3    2   13      0.93      0.00
   -2    2   13      0.30      0.00
   -1    2   13      2.22      0.00
    0    2   13      1.65      0.00
    1    2   13      2.87      0.00
    2    2   13      2.34      0.00
    3    2   13      1.43      0.00
    4    2   13      1.05      0.00
    5    2   13      0.69      0.00
    6    2   13      0.67      0.00
   -6    3   13      0.25      0.00
   -5    3   13      0.77      0.00
   -4    3   13      0.37      0.00
   -3    3   13      1.63      0.00
   -2    3   13      0.78      0.00
   -1    3   13      3.24      0.00
    0    3   13      2.66      0.00
    1    3   13      3.16      0.00
    2    3   13      1.44      0.00
    3    3   13      2.96      0.00
    4    3   13      1.11      0.00
    5    3   13      0.73      0.00
    6    3   13      0.90      0.00
   -6    4   13      0.92      0.00
   -5    4   13      1.07      0.00
   -4    4   13      0.42      0.00
   -3    4   13      1.31      0.00
   -2    4   13      0.41      0.00
   -1    4   13      3.09      0.00
    0    4   13      3.38      0.00
    1    4   13      2.59      0.00
    2    4   13      0.06      0.00
    3    4   13      1.80      0.00
    4    4   13      0.69      0.00
    5    4   13      0.43      0.00
    6    4   13     -0.13      0.00
   -6    5   13      0.73      0.00
   -5    5   13      1.40      0.00
   -4    5   13      1.23      0.00
   -3    5   13      1.13      0.00
   -2    5   13     -0.21      0.00
   -1    5   13      2.24      0.00
    0    5   13      3.63      0.00
    1    5   13      1.86      0.00
    2    5   13     -0.95      0.00
    3    5   13     -0.46      0.00
    4    5   13      0.32      0.00
    5    5   13      0.46      0.00
    6    5   13     -0.92      0.00
   -6    6   13     -0.03      0.00
   -5    6   13      0.94      0.00
   -4    6   13      1.31      0.00
   -3    6   13      0.65      0.00
   -2    6   13     -0.65      0.00
   -1    6   13      1.19      0.00
    0    6   13      3.10      0.00
    1    6   13      0.93      0.00
    2    6   13     -1.60      0.00
    3    6   13     -1.87      0.00
    4    6   13      0.18      0.00
    5    6   13      0.61      0.00
    6    6   13     -0.65      0.00
   -6    7   13     -0.65      0.00
   -5    7   13     -0.03      0.00
   -4    7   13     -0.03      0.00
   -3    7   13     -1.14      0.00
   -2    7   13     -1.36      0.00
   -1    7   13     -0.12      0.00
    0    7   13      1.77      0.00
    1    7   13     -0.57      0.00
    2    7   13     -2.48      0.00
    3    7   13     -2.42      0.00
    4    7   13      0.36      0.00
    5    7   13      0.52      0.00
    6    7   13     -0.19      0.00
   -6    8   13     -0.91      0.00
   -5    8   13     -0.90      0.00
   -4    8   13     -1.29      0.00
   -3    8   13     -2.89      0.00
   -2    8   13     -1.98      0.00
   -1    8   13     -1.51      0.00
    0    8   13      0.39      0.00
    1    8   13     -2.16      0.00
    2    8   13     -3.34      0.00
    3    8   13     -2.90      0.00
    4    8   13      0.82      0.00
    5    8   13      0.49      0.00
    6    8   13     -0.35      0.00
   -4    9   13     -1.32      0.00
   -3    9   13     -2.63      0.00
   -2    9   13     -1.35      0.00
   -1    9   13     -2.05      0.00
    0    9   13     -0.26      0.00
    1    9   13     -3.12      0.00
    2    9   13     -3.63      0.00
    3    9   13     -3.13      0.00
    4    9   13      1.20      0.00
    5    9   13      0.59      0.00
    6    9   13     -0.88      0.00
   -5   10   13     -1.96      0.00
   -4   10   13     -0.61      0.00
   -3   10   13     -1.12      0.00
   -2   10   13      0.04      0.00
   -1   10   13     -1.22      0.00
    0   10   13     -0.05      0.00
    1   10   13     -3.27      0.00
    2   10   13     -3.65      0.00
    3   10   13     -2.85      0.00
    4   10   13      1.06      0.00
    5   10   13      0.51      0.00
    6   10   13     -1.32      0.00
   -5   11   13     -1.49      0.00
   -4   11   13      0.25      0.00
   -3   11   13     -0.34      0.00
   -2   11   13      0.34      0.00
   -1   11   13      0.08      0.00
    0   11   13      0.53      0.00
    1   11   13     -2.52      0.00
    2   11   13     -3.53      0.00
    3   11   13     -2.42      0.00
    4   11   13      0.37      0.00
    5   11   13      0.30      0.00
   -4   12   13      1.18      0.00
   -3   12   13     -0.38      0.00
   -2   12   13     -0.72      0.00
   -1   12   13      0.70      0.00
    0   12   13      0.82      0.00
    1   12   13     -0.94      0.00
    2   12   13     -2.58      0.00
    3   12   13     -1.93      0.00
    4   12   13     -0.26      0.00
    5   12   13      0.23      0.00
   -4   13   13      1.65      0.00
   -3   13   13     -0.38      0.00
   -2   13   13     -1.65      0.00
   -1   13   13      0.55      0.00
    0   13   13      0.53      0.00
    1   13   13      0.59      0.00
    2   13   13     -0.95      0.00
    3   13   13     -1.10      0.00
    4   13   13     -0.26      0.00
    5   13   13      0.24      0.00
   -4   14   13      1.26      0.00
   -3   14   13     -0.39      0.00
   -2   14   13     -1.76      0.00
   -1   14   13      0.07      0.00
    0   14   13     -0.11      0.00
    1   14   13      1.07      0.00
    2   14   13      0.08      0.00
    3   14   13     -0.32      0.00
    4   14   13      0.07      0.00
   -3   15   13     -0.51      0.00
   -2   15   13     -1.49      0.00
   -1   15   13     -0.35      0.00
    0   15   13     -0.70      0.00
    1   15   13      0.51      0.00
    2   15   13      0.25      0.00
    3   15   13     -0.14      0.00
    4   15   13     -0.06      0.00
   -2   16   13     -0.90      0.00
   -1   16   13     -0.17      0.00
    0   16   13     -0.86      0.00
    1   16   13     -0.45      0.00
    2   16   13      0.41      0.00
    3   16   13     -0.15      0.00
   -1   17   13      0.64      0.00
    0   17   13     -0.34      0.00
    1   17   13     -1.17      0.00
    2   17   13      0.61      0.00
   -2  -13   14     -0.28      0.00
   -1  -13   14      0.11      0.00
    0  -13   14      0.33      0.00
    1  -13   14      0.01      0.00
   -3  -12   14     -0.57      0.00
   -2  -12   14     -0.54      0.00
   -1  -12   14      0.57      0.00
    0  -12   14      1.30      0.00
    1  -12   14      0.83      0.00
    2  -12   14     -0.14      0.00
   -3  -11   14     -0.84      0.00
   -2  -11   14     -0.74      0.00
   -1  -11   14      0.99      0.00
    0  -11   14      2.49      0.00
    1  -11   14      2.11      0.00
    2  -11   14      1.15      0.00
    3  -11   14      0.22      0.00
   -4  -10   14      0.91      0.00
   -3  -10   14     -0.51      0.00
   -2  -10   14     -1.00      0.00
   -1  -10   14      0.83      0.00
    0  -10   14      2.75      0.00
    1  -10   14      2.74      0.00
    2  -10   14      1.78      0.00
    3  -10   14      1.55      0.00
   -4   -9   14      1.00      0.00
   -3   -9   14     -0.22      0.00
   -2   -9   14     -1.45      0.00
   -1   -9   14      0.25      0.00
    0   -9   14      1.49      0.00
    1   -9   14      2.01      0.00
    2   -9   14      1.03      0.00
    3   -9   14      1.32      0.00
    4   -9   14      3.11      0.00
   -5   -8   14      0.03      0.00
   -4   -8   14      0.64      0.00
   -3   -8   14     -0.80      0.00
   -2   -8   14     -1.77      0.00
   -1   -8   14      0.09      0.00
    0   -8   14     -0.18      0.00
    1   -8   14      0.90      0.00
    2   -8   14     -0.31      0.00
    3   -8   14     -0.11      0.00
    4   -8   14      2.12      0.00
   -5   -7   14     -0.44      0.00
   -4   -7   14      0.28      0.00
   -3   -7   14     -2.15      0.00
   -2   -7   14     -1.60      0.00
   -1   -7   14      0.82      0.00
    0   -7   14     -0.83      0.00
    1   -7   14      0.47      0.00
    2   -7   14     -1.09      0.00
    3   -7   14     -0.86      0.00
    4   -7   14      0.07      0.00
    5   -7   14      0.25      0.00
   -5   -6   14     -0.19      0.00
   -4   -6   14      0.48      0.00
   -3   -6   14     -3.23      0.00
   -2   -6   14     -1.08      0.00
   -1   -6   14      1.95      0.00
    0   -6   14     -0.04      0.00
    1   -6   14      0.68      0.00
    2   -6   14     -1.23      0.00
    3   -6   14     -0.16      0.00
    4   -6   14     -1.01      0.00
    5   -6   14     -0.64      0.00
   -6   -5   14     -0.26      0.00
   -5   -5   14      0.31      0.00
   -4   -5   14      0.96      0.00
   -3   -5   14     -3.30      0.00
   -2   -5   14     -0.61      0.00
   -1   -5   14      2.56      0.00
    0   -5   14      1.60      0.00
    1   -5   14      1.32      0.00
    2   -5   14     -0.91      0.00
    3   -5   14      0.89      0.00
    4   -5   14     -0.81      0.00
    5   -5   14     -1.07      0.00
   -6   -4   14     -0.99      0.00
   -5   -4   14      0.44      0.00
   -4   -4   14      0.71      0.00
   -3   -4   14     -2.71      0.00
   -2   -4   14     -0.34      0.00
   -1   -4   14      1.99      0.00
    0   -4   14      2.65      0.00
    1   -4   14      2.21      0.00
    2   -4   14      0.09      0.00
    3   -4   14      1.29      0.00
    4   -4   14     -0.37      0.00
    5   -4   14     -0.76      0.00
    6   -4   14      0.37      0.00
   -6   -3   14     -1.34      0.00
   -5   -3   14      0.29      0.00
   -4   -3   14     -0.43      0.00
   -3   -3   14     -2.00      0.00
   -2   -3   14     -0.09      0.00
   -1   -3   14      0.54      0.00
    0   -3   14      1.80      0.00
    1   -3   14      2.33      0.00
    2   -3   14      1.26      0.00
    3   -3   14      1.53      0.00
    4   -3   14     -0.21      0.00
    5   -3   14     -0.23      0.00
    6   -3   14      0.50      0.00
   -6   -2   14     -0.82      0.00
   -5   -2   14      0.01      0.00
   -4   -2   14     -1.39      0.00
   -3   -2   14     -0.90      0.00
   -2   -2   14      0.40      0.00
   -1   -2   14     -0.56      0.00
    0   -2   14     -0.44      0.00
    1   -2   14      0.89      0.00
    2   -2   14      1.25      0.00
    3   -2   14      2.35      0.00
    4   -2   14     -0.06      0.00
    5   -2   14      0.10      0.00
    6   -2   14      0.28      0.00
   -6   -1   14      0.20      0.00
   -5   -1   14     -0.69      0.00
   -4   -1   14     -1.60      0.00
   -3   -1   14      0.67      0.00
   -2   -1   14      1.03      0.00
   -1   -1   14     -0.61      0.00
    0   -1   14     -2.18      0.00
    1   -1   14     -1.21      0.00
    2   -1   14     -0.19      0.00
    3   -1   14      3.31      0.00
    4   -1   14     -0.07      0.00
    5   -1   14      0.04      0.00
    6   -1   14      0.30      0.00
   -6    0   14      1.18      0.00
   -5    0   14     -1.61      0.00
   -4    0   14     -1.57      0.00
   -3    0   14      1.43      0.00
   -2    0   14      1.18      0.00
   -1    0   14     -0.39      0.00
    0    0   14     -2.71      0.00
    1    0   14     -2.68      0.00
    2    0   14     -1.67      0.00
    3    0   14      3.22      0.00
    4    0   14     -0.66      0.00
    5    0   14     -0.61      0.00
    6    0   14      0.42      0.00
   -6    1   14      1.55      0.00
   -5    1   14     -1.78      0.00
   -4    1   14     -1.37      0.00
   -3    1   14      0.59      0.00
   -2    1   14      0.51      0.00
   -1    1   14     -0.85      0.00
    0    1   14     -2.84      0.00
    1    1   14     -3.35      0.00
    2    1   14     -2.02      0.00
    3    1   14      1.69      0.00
    4    1   14     -1.33      0.00
    5    1   14     -1.45      0.00
    6    1   14     -0.11      0.00
   -6    2   14      0.90      0.00
   -5    2   14     -1.00      0.00
   -4    2   14     -0.38      0.00
   -3    2   14     -0.36      0.00
   -2    2   14     -0.08      0.00
   -1    2   14     -1.55      0.00
    0    2   14     -2.89      0.00
    1    2   14     -3.29      0.00
    2    2   14     -1.10      0.00
    3    2   14     -0.04      0.00
    4    2   14     -1.10      0.00
    5    2   14     -1.46      0.00
    6    2   14     -0.85      0.00
   -6    3   14     -0.28      0.00
   -5    3   14     -0.32      0.00
   -4    3   14      0.81      0.00
   -3    3   14      0.12      0.00
   -2    3   14      0.49      0.00
   -1    3   14     -1.42      0.00
    0    3   14     -2.53      0.00
    1    3   14     -2.29      0.00
    2    3   14      0.58      0.00
    3    3   14     -0.18      0.00
    4    3   14     -0.06      0.00
    5    3   14     -0.62      0.00
    6    3   14     -0.58      0.00
   -6    4   14     -0.85      0.00
   -5    4   14     -0.21      0.00
   -4    4   14      0.90      0.00
   -3    4   14      1.19      0.00
   -2    4   14      1.77      0.00
   -1    4   14     -0.47      0.00
    0    4   14     -1.88      0.00
    1    4   14     -0.87      0.00
    2    4   14      2.06      0.00
    3    4   14      1.44      0.00
    4    4   14      0.81      0.00
    5    4   14     -0.09      0.00
    6    4   14      0.43      0.00
   -6    5   14     -0.44      0.00
   -5    5   14      0.02      0.00
   -4    5   14      0.35      0.00
   -3    5   14      1.64      0.00
   -2    5   14      2.49      0.00
   -1    5   14      0.43      0.00
    0    5   14     -1.29      0.00
    1    5   14      0.20      0.00
    2    5   14      2.57      0.00
    3    5   14      3.03      0.00
    4    5   14      1.04      0.00
    5    5   14     -0.19      0.00
    6    5   14      0.66      0.00
   -6    6   14      0.19      0.00
   -5    6   14      0.62      0.00
   -4    6   14      0.72      0.00
   -3    6   14      2.14      0.00
   -2    6   14      2.61      0.00
   -1    6   14      0.87      0.00
    0    6   14     -0.71      0.00
    1    6   14      0.99      0.00
    2    6   14      2.52      0.00
    3    6   14      3.29      0.00
    4    6   14      0.85      0.00
    5    6   14     -0.08      0.00
    6    6   14     -0.13      0.00
   -5    7   14      0.84      0.00
   -4    7   14      1.76      0.00
   -3    7   14      3.19      0.00
   -2    7   14      2.60      0.00
   -1    7   14      1.07      0.00
    0    7   14     -0.19      0.00
    1    7   14      1.70      0.00
    2    7   14      2.59      0.00
    3    7   14      2.92      0.00
    4    7   14      0.51      0.00
    5    7   14      0.47      0.00
    6    7   14     -0.77      0.00
   -5    8   14      0.48      0.00
   -4    8   14      1.90      0.00
   -3    8   14      3.30      0.00
   -2    8   14      1.78      0.00
   -1    8   14      0.92      0.00
    0    8   14     -0.21      0.00
    1    8   14      1.89      0.00
    2    8   14      2.50      0.00
    3    8   14      2.90      0.00
    4    8   14      0.12      0.00
    5    8   14      0.76      0.00
    6    8   14     -0.69      0.00
   -5    9   14      0.18      0.00
   -4    9   14      1.01      0.00
   -3    9   14      1.81      0.00
   -2    9   14     -0.27      0.00
   -1    9   14      0.00      0.00
    0    9   14     -0.89      0.00
    1    9   14      1.37      0.00
    2    9   14      1.95      0.00
    3    9   14      2.91      0.00
    4    9   14     -0.17      0.00
    5    9   14      0.58      0.00
    6    9   14     -0.28      0.00
   -5   10   14      0.14      0.00
   -4   10   14      0.12      0.00
   -3   10   14      0.45      0.00
   -2   10   14     -1.75      0.00
   -1   10   14     -1.26      0.00
    0   10   14     -1.70      0.00
    1   10   14      0.65      0.00
    2   10   14      1.51      0.00
    3   10   14      2.40      0.00
    4   10   14     -0.15      0.00
    5   10   14      0.31      0.00
   -4   11   14     -0.56      0.00
   -3   11   14      0.46      0.00
   -2   11   14     -0.81      0.00
   -1   11   14     -1.62      0.00
    0   11   14     -1.88      0.00
    1   11   14      0.04      0.00
    2   11   14      1.27      0.00
    3   11   14      1.50      0.00
    4   11   14      0.14      0.00
    5   11   14      0.00      0.00
   -4   12   14     -1.21      0.00
   -3   12   14      0.82      0.00
   -2   12   14      1.35      0.00
   -1   12   14     -0.74      0.00
    0   12   14     -1.17      0.00
    1   12   14     -0.42      0.00
    2   12   14      0.64      0.00
    3   12   14      0.54      0.00
    4   12   14      0.36      0.00
    5   12   14     -0.38      0.00
   -4   13   14     -1.38      0.00
   -3   13   14      0.58      0.00
   -2   13   14      2.18      0.00
   -1   13   14      0.30      0.00
    0   13   14     -0.06      0.00
    1   13   14     -0.43      0.00
    2   13   14     -0.07      0.00
    3   13   14     -0.11      0.00
    4   13   14      0.19      0.00
   -3   14   14      0.22      0.00
   -2   14   14      1.28      0.00
   -1   14   14      0.60      0.00
    0   14   14      0.65      0.00
    1   14   14      0.03      0.00
    2   14   14     -0.07      0.00
    3   14   14      0.01      0.00
    4   14   14     -0.04      0.00
   -2   15   14      0.02      0.00
   -1   15   14      0.17      0.00
    0   15   14      0.70      0.00
    1   15   14      0.59      0.00
    2   15   14      0.24      0.00
    3   15   14      0.57      0.00
   -2   16   14     -0.68      0.00
   -1   16   14     -0.59      0.00
    0   16   14      0.35      0.00
    1   16   14      1.08      0.00
    2   16   14      0.04      0.00
    3   16   14      0.63      0.00
    0   17   14     -0.15      0.00
    1   17   14      1.42      0.00
   -2  -12   15      0.98      0.00
   -1  -12   15      0.59      0.00
    0  -12   15     -0.53      0.00
    1  -12   15     -0.83      0.00
   -3  -11   15      0.38      0.00
   -2  -11   15      0.96      0.00
   -1  -11   15      0.96      0.00
    0  -11   15     -0.08      0.00
    1  -11   15     -0.73      0.00
    2  -11   15     -1.23      0.00
   -3  -10   15     -0.02      0.00
   -2  -10   15      0.82      0.00
   -1  -10   15      1.20      0.00
    0  -10   15      0.63      0.00
    1  -10   15      0.05      0.00
    2  -10   15     -0.68      0.00
    3  -10   15     -2.21      0.00
   -4   -9   15     -0.65      0.00
   -3   -9   15     -0.16      0.00
   -2   -9   15      0.83      0.00
   -1   -9   15      1.21      0.00
    0   -9   15      1.59      0.00
    1   -9   15      1.17      0.00
    2   -9   15      0.94      0.00
    3   -9   15     -1.11      0.00
   -4   -8   15     -0.16      0.00
   -3   -8   15      0.17      0.00
   -2   -8   15      0.66      0.00
   -1   -8   15      0.53      0.00
    0   -8   15      2.12      0.00
    1   -8   15      1.44      0.00
    2   -8   15      1.96      0.00
    3   -8   15      0.46      0.00
    4   -8   15     -1.25      0.00
   -5   -7   15      1.29      0.00
   -4   -7   15     -0.06      0.00
   -3   -7   15      0.72      0.00
   -2   -7   15      0.08      0.00
   -1   -7   15     -0.73      0.00
    0   -7   15      1.71      0.00
    1   -7   15      0.51      0.00
    2   -7   15      1.59      0.00
    3   -7   15      0.85      0.00
    4   -7   15      0.40      0.00
   -5   -6   15      1.20      0.00
   -4   -6   15     -0.42      0.00
   -3   -6   15      1.11      0.00
   -2   -6   15     -0.42      0.00
   -1   -6   15     -1.65      0.00
    0   -6   15      0.57      0.00
    1   -6   15     -0.79      0.00
    2   -6   15      0.65      0.00
    3   -6   15      0.15      0.00
    4   -6   15      0.77      0.00
    5   -6   15     -0.47      0.00
   -5   -5   15      1.17      0.00
   -4   -5   15     -0.62      0.00
   -3   -5   15      1.25      0.00
   -2   -5   15     -0.26      0.00
   -1   -5   15     -1.33      0.00
    0   -5   15     -0.48      0.00
    1   -5   15     -1.70      0.00
    2   -5   15     -0.16      0.00
    3   -5   15     -0.46      0.00
    4   -5   15      0.44      0.00
    5   -5   15     -0.46      0.00
   -5   -4   15      1.29      0.00
   -4   -4   15     -0.05      0.00
   -3   -4   15      1.34      0.00
   -2   -4   15      0.24      0.00
   -1   -4   15      0.13      0.00
    0   -4   15     -0.37      0.00
    1   -4   15     -1.76      0.00
    2   -4   15     -0.88      0.00
    3   -4   15     -0.69      0.00
    4   -4   15      0.49      0.00
    5   -4   15     -0.08      0.00
   -5   -3   15      1.27      0.00
   -4   -3   15      0.98      0.00
   -3   -3   15      1.26      0.00
   -2   -3   15      0.25      0.00
   -1   -3   15      1.56      0.00
    0   -3   15      1.13      0.00
    1   -3   15     -0.63      0.00
    2   -3   15     -1.17      0.00
    3   -3   15     -1.12      0.00
    4   -3   15      0.88      0.00
    5   -3   15      0.41      0.00
   -6   -2   15      0.21      0.00
   -5   -2   15      1.09      0.00
   -4   -2   15      1.54      0.00
   -3   -2   15      0.51      0.00
   -2   -2   15     -0.48      0.00
   -1   -2   15      1.85      0.00
    0   -2   15      2.73      0.00
    1   -2   15      1.11      0.00
    2   -2   15     -0.49      0.00
    3   -2   15     -1.98      0.00
    4   -2   15      1.08      0.00
    5   -2   15      0.71      0.00
   -6   -1   15     -1.61      0.00
   -5   -1   15      1.09      0.00
   -4   -1   15      1.36      0.00
   -3   -1   15     -0.69      0.00
   -2   -1   15     -1.19      0.00
   -1   -1   15      1.23      0.00
    0   -1   15      3.20      0.00
    1   -1   15      2.18      0.00
    2   -1   15      0.54      0.00
    3   -1   15     -2.76      0.00
    4   -1   15      1.16      0.00
    5   -1   15      1.07      0.00
    6   -1   15      0.61      0.00
   -6    0   15     -2.79      0.00
   -5    0   15      1.09      0.00
   -4    0   15      0.74      0.00
   -3    0   15     -1.19      0.00
   -2    0   15     -1.12      0.00
   -1    0   15      0.65      0.00
    0    0   15      2.86      0.00
    1    0   15      2.37      0.00
    2    0   15      0.88      0.00
    3    0   15     -2.83      0.00
    4    0   15      1.18      0.00
    5    0   15      1.67      0.00
    6    0   15      0.40      0.00
   -6    1   15     -2.59      0.00
   -5    1   15      0.63      0.00
   -4    1   15     -0.35      0.00
   -3    1   15     -0.81      0.00
   -2    1   15     -0.73      0.00
   -1    1   15      0.18      0.00
    0    1   15      2.31      0.00
    2    1   15      0.41      0.00
    3    1   15     -1.99      0.00
    4    1   15      0.60      0.00
    5    1   15      1.73      0.00
    6    1   15      0.49      0.00
   -6    2   15     -1.14      0.00
   -5    2   15     -0.02      0.00
   -4    2   15     -1.70      0.00
   -3    2   15     -0.78      0.00
   -2    2   15     -1.17      0.00
   -1    2   15     -0.88      0.00
    0    2   15      1.16      0.00
    1    2   15      1.87      0.00
    2    2   15     -0.45      0.00
    3    2   15     -0.91      0.00
    4    2   15     -0.66      0.00
    5    2   15      0.55      0.00
    6    2   15      0.43      0.00
   -6    3   15      0.35      0.00
   -5    3   15     -0.26      0.00
   -4    3   15     -2.22      0.00
   -3    3   15     -1.57      0.00
   -1    3   15     -2.37      0.00
    0    3   15     -0.60      0.00
    1    3   15      0.52      0.00
    2    3   15     -1.30      0.00
    3    3   15     -0.70      0.00
    4    3   15     -1.69      0.00
    5    3   15     -0.79      0.00
    6    3   15     -0.25      0.00
   -6    4   15      0.79      0.00
   -5    4   15     -0.30      0.00
   -4    4   15     -1.50      0.00
   -3    4   15     -2.11      0.00
   -2    4   15     -3.05      0.00
   -1    4   15     -3.10      0.00
    0    4   15     -1.82      0.00
    2    4   15     -1.50      0.00
    3    4   15     -1.37      0.00
    4    4   15     -1.77      0.00
    5    4   15     -0.89      0.00
    6    4   15     -0.59      0.00
   -5    5   15     -0.62      0.00
   -4    5   15     -0.91      0.00
   -3    5   15     -2.05      0.00
   -1    5   15     -2.51      0.00
    0    5   15     -1.84      0.00
    1    5   15     -1.41      0.00
    2    5   15     -0.81      0.00
    3    5   15     -1.63      0.00
    4    5   15     -1.23      0.00
    5    5   15     -0.26      0.00
    6    5   15      0.35      0.00
   -5    6   15     -0.70      0.00
   -4    6   15     -1.42      0.00
   -3    6   15     -2.23      0.00
   -2    6   15     -1.71      0.00
   -1    6   15     -1.36      0.00
    0    6   15     -1.16      0.00
    2    6   15     -0.06      0.00
    3    6   15     -0.95      0.00
    4    6   15     -0.74      0.00
    5    6   15     -0.34      0.00
    6    6   15      1.76      0.00
   -5    7   15      0.15      0.00
   -4    7   15     -1.89      0.00
   -2    7   15     -1.19      0.00
   -1    7   15     -0.44      0.00
    0    7   15     -0.30      0.00
    1    7   15     -1.10      0.00
    2    7   15      0.12      0.00
    3    7   15     -0.36      0.00
    4    7   15     -0.52      0.00
    5    7   15     -1.07      0.00
    6    7   15      2.27      0.00
   -5    8   15      1.29      0.00
   -4    8   15     -1.26      0.00
   -3    8   15     -1.47      0.00
   -2    8   15      0.18      0.00
   -1    8   15      0.42      0.00
    0    8   15      0.69      0.00
    1    8   15     -0.46      0.00
    2    8   15      0.37      0.00
    3    8   15     -0.56      0.00
    4    8   15     -0.47      0.00
    5    8   15     -1.48      0.00
   -5    9   15      1.63      0.00
   -4    9   15     -0.35      0.00
   -3    9   15      0.02      0.00
   -2    9   15      2.37      0.00
   -1    9   15      1.47      0.00
    0    9   15      1.57      0.00
    1    9   15      0.39      0.00
    2    9   15      1.00      0.00
    3    9   15     -0.89      0.00
    4    9   15     -0.44      0.00
    5    9   15     -1.41      0.00
   -4   10   15     -0.08      0.00
   -3   10   15      0.29      0.00
   -2   10   15      3.14      0.00
   -1   10   15      2.02      0.00
    0   10   15      1.83      0.00
    1   10   15      0.78      0.00
    2   10   15      1.30      0.00
    3   10   15     -0.63      0.00
    4   10   15     -0.45      0.00
    5   10   15     -1.20      0.00
   -4   11   15     -0.01      0.00
   -3   11   15     -0.54      0.00
   -2   11   15      1.45      0.00
   -1   11   15      1.38      0.00
    0   11   15      1.29      0.00
    1   11   15      0.61      0.00
    2   11   15      1.06      0.00
    3   11   15      0.08      0.00
    4   11   15     -0.58      0.00
    5   11   15     -0.81      0.00
   -4   12   15      0.28      0.00
   -3   12   15     -0.82      0.00
   -2   12   15     -0.54      0.00
   -1   12   15      0.22      0.00
    0   12   15      0.44      0.00
    1   12   15      0.23      0.00
    2   12   15      0.84      0.00
    3   12   15      0.76      0.00
    4   12   15     -0.68      0.00
   -3   13   15     -0.21      0.00
   -2   13   15     -0.59      0.00
   -1   13   15     -0.26      0.00
    0   13   15     -0.04      0.00
    1   13   15     -0.11      0.00
    2   13   15      0.65      0.00
    3   13   15      0.87      0.00
    4   13   15     -0.47      0.00
   -3   14   15      0.22      0.00
   -2   14   15      0.76      0.00
   -1   14   15      0.00      0.00
    0   14   15     -0.06      0.00
    1   14   15     -0.31      0.00
    2   14   15      0.21      0.00
    3   14   15      0.28      0.00
    4   14   15     -0.15      0.00
   -2   15   15      1.68      0.00
   -1   15   15      0.33      0.00
    0   15   15     -0.17      0.00
    1   15   15     -0.48      0.00
    2   15   15     -0.03      0.00
    3   15   15     -0.30      0.00
   -1   16   15      0.42      0.00
    0   16   15     -0.55      0.00
    1   16   15     -0.94      0.00
    2   16   15      0.18      0.00
   -2  -11   16      0.39      0.00
   -1  -11   16     -0.61      0.00
    0  -11   16     -0.62      0.00
    1  -11   16     -0.69      0.00
   -3  -10   16     -0.65      0.00
   -2  -10   16      0.66      0.00
   -1  -10   16     -0.53      0.00
    0  -10   16     -0.75      0.00
    1  -10   16     -1.23      0.00
    2  -10   16     -0.77      0.00
   -3   -9   16     -0.84      0.00
   -2   -9   16      0.64      0.00
   -1   -9   16     -0.45      0.00
    0   -9   16     -0.93      0.00
    1   -9   16     -1.32      0.00
    2   -9   16     -1.80      0.00
    3   -9   16     -0.78      0.00
   -4   -8   16     -0.47      0.00
   -3   -8   16     -0.49      0.00
   -2   -8   16      0.64      0.00
   -1   -8   16      0.00      0.00
    0   -8   16     -1.00      0.00
    1   -8   16     -0.51      0.00
    2   -8   16     -1.62      0.00
    3   -8   16     -1.51      0.00
   -4   -7   16      0.10      0.00
   -3   -7   16      0.10      0.00
   -2   -7   16      0.70      0.00
   -1   -7   16      0.60      0.00
    0   -7   16     -0.90      0.00
    1   -7   16      0.73      0.00
    2   -7   16     -0.46      0.00
    3   -7   16     -1.16      0.00
    4   -7   16     -1.28      0.00
   -4   -6   16      0.58      0.00
   -3   -6   16      0.50      0.00
   -2   -6   16      0.40      0.00
   -1   -6   16      0.55      0.00
    0   -6   16     -0.79      0.00
    1   -6   16      1.46      0.00
    2   -6   16      0.44      0.00
    3   -6   16     -0.57      0.00
    4   -6   16     -0.84      0.00
   -5   -5   16     -1.42      0.00
   -4   -5   16      0.53      0.00
   -3   -5   16      0.48      0.00
   -2   -5   16     -0.37      0.00
   -1   -5   16     -0.43      0.00
    0   -5   16     -0.95      0.00
    1   -5   16      1.29      0.00
    2   -5   16      0.65      0.00
    3   -5   16     -0.43      0.00
    4   -5   16     -0.26      0.00
   -5   -4   16     -1.20      0.00
   -4   -4   16      0.04      0.00
   -3   -4   16      0.09      0.00
   -2   -4   16     -0.91      0.00
   -1   -4   16     -1.61      0.00
    0   -4   16     -1.59      0.00
    1   -4   16      0.35      0.00
    2   -4   16      0.56      0.00
    3   -4   16     -0.30      0.00
    4   -4   16     -0.22      0.00
    5   -4   16      0.40      0.00
   -5   -3   16     -0.56      0.00
   -4   -3   16     -0.25      0.00
   -3   -3   16     -0.24      0.00
   -2   -3   16     -0.58      0.00
   -1   -3   16     -1.99      0.00
    0   -3   16     -2.34      0.00
    1   -3   16     -0.90      0.00
    2   -3   16      0.18      0.00
    3   -3   16      0.30      0.00
    4   -3   16     -0.47      0.00
    5   -3   16     -0.28      0.00
   -5   -2   16      0.15      0.00
   -4   -2   16      0.07      0.00
   -3   -2   16     -0.02      0.00
   -2   -2   16      0.38      0.00
   -1   -2   16     -1.41      0.00
    0   -2   16     -2.41      0.00
    1   -2   16     -1.55      0.00
    2   -2   16     -0.46      0.00
    3   -2   16      1.11      0.00
    4   -2   16     -0.63      0.00
    5   -2   16     -0.39      0.00
   -5   -1   16      0.49      0.00
   -4   -1   16      0.70      0.00
   -3   -1   16      0.56      0.00
   -2   -1   16      1.12      0.00
   -1   -1   16     -0.51      0.00
    0   -1   16     -1.71      0.00
    1   -1   16     -1.24      0.00
    2   -1   16     -0.79      0.00
    3   -1   16      1.62      0.00
    4   -1   16     -0.65      0.00
    5   -1   16     -0.59      0.00
   -5    0   16      0.45      0.00
   -4    0   16      1.15      0.00
   -3    0   16      0.64      0.00
   -2    0   16      1.29      0.00
   -1    0   16      0.55      0.00
    0    0   16     -0.76      0.00
    1    0   16     -0.91      0.00
    2    0   16     -0.65      0.00
    3    0   16      1.46      0.00
    4    0   16     -0.26      0.00
    5    0   16     -0.98      0.00
   -5    1   16      0.29      0.00
   -4    1   16      1.43      0.00
   -3    1   16      0.08      0.00
   -2    1   16      1.34      0.00
   -1    1   16      2.29      0.00
    0    1   16      0.57      0.00
    1    1   16     -0.96      0.00
    2    1   16     -0.44      0.00
    3    1   16      0.45      0.00
    4    1   16      0.73      0.00
    5    1   16     -0.63      0.00
   -5    2   16      0.02      0.00
   -4    2   16      1.45      0.00
   -3    2   16     -0.47      0.00
   -2    2   16      1.59      0.00
   -1    2   16      4.36      0.00
    0    2   16      2.61      0.00
    1    2   16     -0.44      0.00
    2    2   16     -0.20      0.00
    3    2   16     -0.85      0.00
    4    2   16      1.69      0.00
    5    2   16      0.63      0.00
   -5    3   16     -0.27      0.00
   -4    3   16      0.78      0.00
   -3    3   16     -0.80      0.00
   -2    3   16      1.36      0.00
   -1    3   16      5.16      0.00
    0    3   16      4.26      0.00
    1    3   16      0.90      0.00
    2    3   16      0.10      0.00
    3    3   16     -1.31      0.00
    4    3   16      1.74      0.00
    5    3   16      1.30      0.00
   -5    4   16     -0.19      0.00
   -4    4   16     -0.15      0.00
   -3    4   16     -1.09      0.00
   -2    4   16      0.02      0.00
   -1    4   16      3.75      0.00
    0    4   16      4.13      0.00
    1    4   16      1.69      0.00
    2    4   16     -0.13      0.00
    3    4   16     -0.87      0.00
    4    4   16      1.03      0.00
    5    4   16      0.52      0.00
   -5    5   16      0.11      0.00
   -4    5   16     -0.19      0.00
   -3    5   16     -0.98      0.00
   -2    5   16     -1.45      0.00
   -1    5   16      1.35      0.00
    0    5   16      2.56      0.00
    1    5   16      1.27      0.00
    2    5   16     -1.05      0.00
    3    5   16     -0.70      0.00
    4    5   16      0.36      0.00
    5    5   16     -0.37      0.00
   -5    6   16     -0.18      0.00
   -4    6   16      0.57      0.00
   -3    6   16     -0.27      0.00
   -2    6   16     -1.62      0.00
   -1    6   16     -0.20      0.00
    0    6   16      0.96      0.00
    1    6   16      0.51      0.00
    2    6   16     -1.71      0.00
    3    6   16     -1.20      0.00
    4    6   16      0.14      0.00
    5    6   16     -0.09      0.00
   -5    7   16     -1.18      0.00
   -4    7   16      0.84      0.00
   -3    7   16      0.03      0.00
   -2    7   16     -1.05      0.00
   -1    7   16     -0.56      0.00
    0    7   16     -0.13      0.00
    1    7   16     -0.05      0.00
    2    7   16     -1.79      0.00
    3    7   16     -1.53      0.00
    4    7   16      0.27      0.00
    5    7   16      0.76      0.00
   -5    8   16     -1.91      0.00
   -4    8   16      0.36      0.00
   -3    8   16     -0.68      0.00
   -2    8   16     -1.46      0.00
   -1    8   16     -0.67      0.00
    0    8   16     -0.86      0.00
    1    8   16     -0.63      0.00
    2    8   16     -2.15      0.00
    3    8   16     -1.23      0.00
    4    8   16      0.51      0.00
    5    8   16      1.23      0.00
   -4    9   16      0.13      0.00
   -3    9   16     -1.12      0.00
   -2    9   16     -2.64      0.00
   -1    9   16     -0.86      0.00
    0    9   16     -1.07      0.00
    1    9   16     -0.97      0.00
    2    9   16     -2.75      0.00
    3    9   16     -0.82      0.00
    4    9   16      0.57      0.00
    5    9   16      1.36      0.00
   -4   10   16      0.37      0.00
   -3   10   16     -0.35      0.00
   -2   10   16     -2.64      0.00
   -1   10   16     -0.55      0.00
    0   10   16     -0.59      0.00
    1   10   16     -0.66      0.00
    2   10   16     -2.55      0.00
    3   10   16     -0.67      0.00
    4   10   16      0.46      0.00
    5   10   16      1.38      0.00
   -4   11   16      0.28      0.00
   -3   11   16      0.43      0.00
   -2   11   16     -1.18      0.00
   -1   11   16      0.32      0.00
    0   11   16      0.12      0.00
    1   11   16     -0.09      0.00
    2   11   16     -1.56      0.00
    3   11   16     -0.72      0.00
    4   11   16      0.44      0.00
   -3   12   16     -0.09      0.00
   -2   12   16     -0.27      0.00
   -1   12   16      0.84      0.00
    0   12   16      0.42      0.00
    1   12   16      0.19      0.00
    2   12   16     -0.76      0.00
    3   12   16     -0.93      0.00
    4   12   16      0.48      0.00
   -3   13   16     -1.14      0.00
   -2   13   16     -0.95      0.00
   -1   13   16      0.59      0.00
    0   13   16      0.28      0.00
    1   13   16      0.19      0.00
    2   13   16     -0.40      0.00
    3   13   16     -1.05      0.00
    4   13   16      0.22      0.00
   -2   14   16     -2.05      0.00
   -1   14   16      0.28      0.00
    0   14   16      0.38      0.00
    1   14   16      0.24      0.00
    2   14   16     -0.14      0.00
    3   14   16     -0.78      0.00
   -1   15   16      0.44      0.00
    0   15   16      1.11      0.00
    1   15   16      0.63      0.00
    2   15   16      0.01      0.00
   -1  -10   17      0.30      0.00
    0  -10   17     -0.97      0.00
    1  -10   17     -0.18      0.00
   -2   -9   17     -0.97      0.00
   -1   -9   17      0.72      0.00
    0   -9   17     -0.62      0.00
    1   -9   17     -0.55      0.00
    2   -9   17      0.25      0.00
   -3   -8   17      0.21      0.00
   -2   -8   17     -0.83      0.00
   -1   -8   17      0.64      0.00
    0   -8   17     -0.03      0.00
    1   -8   17     -0.96      0.00
    2   -8   17     -0.16      0.00
    3   -8   17      0.89      0.00
   -3   -7   17     -0.92      0.00
   -2   -7   17     -0.37      0.00
   -1   -7   17      0.28      0.00
    0   -7   17      0.61      0.00
    1   -7   17     -1.10      0.00
    2   -7   17     -0.59      0.00
    3   -7   17      0.39      0.00
   -4   -6   17     -1.25      0.00
   -3   -6   17     -1.62      0.00
   -2   -6   17      0.26      0.00
   -1   -6   17      0.20      0.00
    0   -6   17      1.14      0.00
    1   -6   17     -0.79      0.00
    2   -6   17     -0.49      0.00
    3   -6   17      0.31      0.00
    4   -6   17      0.40      0.00
   -4   -5   17     -0.86      0.00
   -3   -5   17     -1.80      0.00
   -2   -5   17      0.68      0.00
   -1   -5   17      0.45      0.00
    0   -5   17      1.40      0.00
    1   -5   17     -0.20      0.00
    2   -5   17     -0.17      0.00
    3   -5   17      0.55      0.00
    4   -5   17     -0.34      0.00
   -4   -4   17     -0.45      0.00
   -3   -4   17     -1.38      0.00
   -2   -4   17      0.58      0.00
   -1   -4   17      0.50      0.00
    0   -4   17      1.35      0.00
    1   -4   17      0.46      0.00
    2   -4   17      0.04      0.00
    3   -4   17      0.38      0.00
    4   -4   17     -0.75      0.00
   -5   -3   17     -0.56      0.00
   -4   -3   17     -0.50      0.00
   -3   -3   17     -0.54      0.00
   -2   -3   17      0.07      0.00
   -1   -3   17      0.07      0.00
    0   -3   17      0.83      0.00
    1   -3   17      0.79      0.00
    2   -3   17      0.33      0.00
    3   -3   17     -0.20      0.00
    4   -3   17     -0.80      0.00
   -5   -2   17     -1.30      0.00
   -4   -2   17     -0.95      0.00
   -3   -2   17      0.17      0.00
   -2   -2   17     -0.45      0.00
   -1   -2   17     -0.49      0.00
    0   -2   17     -0.19      0.00
    1   -2   17      0.28      0.00
    2   -2   17      0.63      0.00
    3   -2   17     -0.60      0.00
    4   -2   17     -0.50      0.00
    5   -2   17     -0.64      0.00
   -5   -1   17     -1.41      0.00
   -4   -1   17     -1.17      0.00
   -3   -1   17      0.58      0.00
   -2   -1   17     -0.64      0.00
   -1   -1   17     -0.89      0.00
    0   -1   17     -1.23      0.00
    1   -1   17     -0.63      0.00
    2   -1   17      0.59      0.00
    3   -1   17     -0.58      0.00
    4   -1   17     -0.16      0.00
    5   -1   17     -0.34      0.00
   -5    0   17     -0.93      0.00
   -4    0   17     -0.82      0.00
   -3    0   17      1.04      0.00
   -2    0   17     -0.42      0.00
   -1    0   17     -1.58      0.00
    0    0   17     -1.97      0.00
    1    0   17     -0.80      0.00
    2    0   17      0.47      0.00
    3    0   17     -0.08      0.00
    4    0   17     -0.32      0.00
    5    0   17      0.43      0.00
   -5    1   17     -0.23      0.00
   -4    1   17     -0.34      0.00
   -3    1   17      1.71      0.00
   -2    1   17      0.12      0.00
   -1    1   17     -2.82      0.00
    0    1   17     -2.80      0.00
    1    1   17     -0.38      0.00
    2    1   17      0.56      0.00
    3    1   17      1.06      0.00
    4    1   17     -0.91      0.00
    5    1   17      0.61      0.00
   -5    2   17      0.37      0.00
   -4    2   17     -0.02      0.00
   -3    2   17      2.34      0.00
   -2    2   17      1.04      0.00
   -1    2   17     -3.56      0.00
    0    2   17     -3.57      0.00
    1    2   17     -0.50      0.00
    2    2   17      0.48      0.00
    3    2   17      2.24      0.00
    4    2   17     -1.05      0.00
    5    2   17      0.20      0.00
   -5    3   17      0.66      0.00
   -4    3   17      0.36      0.00
   -3    3   17      2.80      0.00
   -2    3   17      2.49      0.00
   -1    3   17     -2.50      0.00
    0    3   17     -3.21      0.00
    1    3   17     -0.96      0.00
    2    3   17      0.24      0.00
    3    3   17      2.42      0.00
    4    3   17     -0.41      0.00
    5    3   17      0.36      0.00
   -5    4   17      0.58      0.00
   -4    4   17      0.59      0.00
   -3    4   17      2.86      0.00
   -2    4   17      3.90      0.00
   -1    4   17     -0.22      0.00
    0    4   17     -1.59      0.00
    1    4   17     -0.60      0.00
    2    4   17      0.66      0.00
    3    4   17      1.80      0.00
    4    4   17      0.32      0.00
    5    4   17      1.15      0.00
   -5    5   17      0.56      0.00
   -4    5   17      0.29      0.00
   -3    5   17      2.14      0.00
   -2    5   17      3.97      0.00
   -1    5   17      1.23      0.00
    0    5   17     -0.15      0.00
    1    5   17      0.40      0.00
    2    5   17      1.65      0.00
    3    5   17      1.55      0.00
    4    5   17      0.60      0.00
    5    5   17      1.32      0.00
   -5    6   17      0.99      0.00
   -4    6   17     -0.14      0.00
   -3    6   17      1.09      0.00
   -2    6   17      2.31      0.00
   -1    6   17      0.88      0.00
    0    6   17      0.20      0.00
    1    6   17      0.94      0.00
    2    6   17      2.14      0.00
    3    6   17      1.92      0.00
    4    6   17      0.52      0.00
    5    6   17      0.54      0.00
   -4    7   17     -0.08      0.00
   -3    7   17      0.84      0.00
   -2    7   17      0.53      0.00
   -1    7   17     -0.23      0.00
    0    7   17      0.06      0.00
    1    7   17      0.90      0.00
    2    7   17      2.07      0.00
    3    7   17      2.15      0.00
    4    7   17      0.31      0.00
    5    7   17     -0.17      0.00
   -4    8   17      0.16      0.00
   -3    8   17      1.31      0.00
   -2    8   17      0.30      0.00
   -1    8   17     -0.83      0.00
    0    8   17     -0.02      0.00
    1    8   17      0.67      0.00
    2    8   17      2.24      0.00
    3    8   17      1.93      0.00
    4    8   17      0.11      0.00
    5    8   17     -0.32      0.00
   -4    9   17      0.04      0.00
   -3    9   17      1.21      0.00
   -2    9   17      1.04      0.00
   -1    9   17     -0.98      0.00
    0    9   17     -0.34      0.00
    1    9   17      0.14      0.00
    2    9   17      2.29      0.00
    3    9   17      1.44      0.00
    4    9   17      0.25      0.00
   -3   10   17      0.44      0.00
   -2   10   17      1.15      0.00
   -1   10   17     -1.35      0.00
    0   10   17     -0.92      0.00
    1   10   17     -0.54      0.00
    2   10   17      1.39      0.00
    3   10   17      0.78      0.00
    4   10   17      0.66      0.00
   -3   11   17      0.40      0.00
   -2   11   17      0.61      0.00
   -1   11   17     -1.78      0.00
    0   11   17     -1.16      0.00
    1   11   17     -0.64      0.00
    2   11   17      0.15      0.00
    3   11   17      0.27      0.00
    4   11   17      0.82      0.00
   -3   12   17      1.49      0.00
   -2   12   17      0.61      0.00
   -1   12   17     -1.61      0.00
    0   12   17     -0.84      0.00
    1   12   17     -0.15      0.00
    2   12   17     -0.37      0.00
    3   12   17      0.38      0.00
   -2   13   17      1.37      0.00
   -1   13   17     -0.97      0.00
    0   13   17     -0.53      0.00
    1   13   17      0.14      0.00
    2   13   17     -0.34      0.00
    3   13   17      0.75      0.00
   -1   14   17     -0.60      0.00
    0   14   17     -0.76      0.00
    1   14   17     -0.16      0.00
    2   14   17     -0.43      0.00
   -1   -9   18     -1.21      0.00
    0   -9   18      0.52      0.00
   -2   -8   18      1.42      0.00
   -1   -8   18     -0.72      0.00
    0   -8   18      0.23      0.00
    1   -8   18      0.20      0.00
    2   -8   18      0.19      0.00
   -3   -7   18      1.08      0.00
   -2   -7   18      0.44      0.00
   -1   -7   18      0.00      0.00
    0   -7   18     -0.05      0.00
    1   -7   18      0.12      0.00
    2   -7   18     -0.10      0.00
   -3   -6   18      1.46      0.00
   -2   -6   18     -0.31      0.00
   -1   -6   18      0.53      0.00
    0   -6   18     -0.24      0.00
    1   -6   18      0.30      0.00
    2   -6   18     -0.13      0.00
    3   -6   18      0.10      0.00
   -3   -5   18      1.82      0.00
   -2   -5   18     -0.38      0.00
   -1   -5   18      0.78      0.00
    0   -5   18     -0.24      0.00
    1   -5   18      0.50      0.00
    2   -5   18      0.19      0.00
    3   -5   18     -0.02      0.00
   -4   -4   18      0.20      0.00
   -3   -4   18      1.55      0.00
   -2   -4   18     -0.13      0.00
   -1   -4   18      0.99      0.00
    0   -4   18      0.09      0.00
    1   -4   18      0.41      0.00
    2   -4   18      0.38      0.00
    3   -4   18      0.19      0.00
    4   -4   18      1.06      0.00
   -4   -3   18      0.19      0.00
   -3   -3   18      0.47      0.00
   -2   -3   18     -0.07      0.00
   -1   -3   18      1.15      0.00
    0   -3   18      0.91      0.00
    1   -3   18      0.38      0.00
    2   -3   18      0.05      0.00
    3   -3   18      0.33      0.00
    4   -3   18      1.00      0.00
   -4   -2   18      0.27      0.00
   -3   -2   18     -0.70      0.00
   -2   -2   18     -0.30      0.00
   -1   -2   18      0.97      0.00
    0   -2   18      1.87      0.00
    1   -2   18      0.97      0.00
    2   -2   18     -0.20      0.00
    3   -2   18      0.19      0.00
    4   -2   18      0.37      0.00
   -4   -1   18      0.08      0.00
   -3   -1   18     -1.28      0.00
   -2   -1   18     -0.66      0.00
   -1   -1   18      0.41      0.00
    0   -1   18      2.22      0.00
    1   -1   18      1.58      0.00
    2   -1   18      0.04      0.00
    3   -1   18      0.09      0.00
    4   -1   18     -0.12      0.00
   -4    0   18     -0.35      0.00
   -3    0   18     -1.19      0.00
   -2    0   18     -1.12      0.00
   -1    0   18      0.03      0.00
    0    0   18      1.78      0.00
    1    0   18      1.20      0.00
    2    0   18      0.17      0.00
    3    0   18     -0.11      0.00
    4    0   18      0.08      0.00
   -4    1   18     -0.48      0.00
   -3    1   18     -0.74      0.00
   -2    1   18     -1.71      0.00
   -1    1   18      0.11      0.00
    0    1   18      1.14      0.00
    1    1   18      0.29      0.00
    2    1   18     -0.15      0.00
    3    1   18     -0.88      0.00
    4    1   18      0.44      0.00
    5    1   18     -1.66      0.00
   -4    2   18     -0.31      0.00
   -3    2   18     -0.42      0.00
   -2    2   18     -2.33      0.00
   -1    2   18      0.07      0.00
    0    2   18      0.43      0.00
    1    2   18     -0.11      0.00
    2    2   18     -0.34      0.00
    3    2   18     -1.79      0.00
    4    2   18      0.07      0.00
    5    2   18     -1.56      0.00
   -4    3   18     -0.27      0.00
   -3    3   18     -0.60      0.00
   -2    3   18     -2.80      0.00
   -1    3   18     -0.54      0.00
    0    3   18     -0.56      0.00
    1    3   18     -0.27      0.00
    2    3   18     -0.39      0.00
    3    3   18     -1.94      0.00
    4    3   18     -0.79      0.00
    5    3   18     -1.65      0.00
   -4    4   18     -0.37      0.00
   -3    4   18     -0.94      0.00
   -2    4   18     -2.70      0.00
   -1    4   18     -1.01      0.00
    0    4   18     -1.21      0.00
    1    4   18     -0.80      0.00
    2    4   18     -0.94      0.00
    3    4   18     -1.57      0.00
    4    4   18     -1.29      0.00
    5    4   18     -1.70      0.00
   -4    5   18     -0.28      0.00
   -3    5   18     -0.78      0.00
   -2    5   18     -1.57      0.00
   -1    5   18     -0.49      0.00
    0    5   18     -0.66      0.00
    1    5   18     -1.16      0.00
    2    5   18     -1.56      0.00
    3    5   18     -1.49      0.00
    4    5   18     -1.32      0.00
    5    5   18     -1.13      0.00
   -4    6   18     -0.14      0.00
   -3    6   18     -0.41      0.00
   -2    6   18      0.18      0.00
   -1    6   18      0.64      0.00
    0    6   18      0.47      0.00
    1    6   18     -0.72      0.00
    2    6   18     -1.29      0.00
    3    6   18     -1.60      0.00
    4    6   18     -1.19      0.00
   -4    7   18     -0.09      0.00
   -3    7   18     -0.58      0.00
   -2    7   18      1.17      0.00
   -1    7   18      1.29      0.00
    0    7   18      0.94      0.00
    1    7   18      0.07      0.00
    2    7   18     -0.49      0.00
    3    7   18     -1.39      0.00
    4    7   18     -0.97      0.00
   -4    8   18      0.11      0.00
   -3    8   18     -0.92      0.00
   -2    8   18      0.71      0.00
   -1    8   18      1.15      0.00
    0    8   18      0.73      0.00
    1    8   18      0.76      0.00
    2    8   18     -0.11      0.00
    3    8   18     -0.95      0.00
    4    8   18     -0.77      0.00
   -3    9   18     -0.55      0.00
   -2    9   18     -0.19      0.00
   -1    9   18      0.94      0.00
    0    9   18      0.59      0.00
    1    9   18      1.29      0.00
    2    9   18      0.12      0.00
    3    9   18     -0.43      0.00
    4    9   18     -1.04      0.00
   -3   10   18      0.14      0.00
   -2   10   18     -0.38      0.00
   -1   10   18      1.19      0.00
    0   10   18      0.57      0.00
    1   10   18      1.16      0.00
    2   10   18      0.63      0.00
    3   10   18      0.22      0.00
    4   10   18     -1.59      0.00
   -2   11   18     -0.03      0.00
   -1   11   18      1.50      0.00
    0   11   18      0.26      0.00
    1   11   18      0.07      0.00
    2   11   18      0.86      0.00
    3   11   18      0.59      0.00
   -2   12   18      0.07      0.00
   -1   12   18      1.29      0.00
    0   12   18     -0.19      0.00
    1   12   18     -1.00      0.00
    2   12   18      0.54      0.00
    3   12   18      0.30      0.00
   -1   13   18      0.70      0.00
    0   13   18     -0.32      0.00
    1   13   18     -1.02      0.00
    2   13   18      0.36      0.00
   -1   -7   19     -0.01      0.00
    0   -7   19     -1.04      0.00
    1   -7   19     -0.32      0.00
   -2   -6   19      0.69      0.00
   -1   -6   19     -0.30      0.00
    0   -6   19     -0.69      0.00
    1   -6   19     -1.20      0.00
    2   -6   19     -0.37      0.00
   -3   -5   19     -1.51      0.00
   -2   -5   19      0.38      0.00
   -1   -5   19     -0.52      0.00
    0   -5   19     -0.20      0.00
    1   -5   19     -1.44      0.00
    2   -5   19     -1.02      0.00
   -3   -4   19     -1.74      0.00
   -2   -4   19      0.13      0.00
   -1   -4   19     -0.70      0.00
    0   -4   19     -0.15      0.00
    1   -4   19     -0.82      0.00
    2   -4   19     -0.59      0.00
    3   -4   19     -0.41      0.00
   -3   -3   19     -0.98      0.00
   -2   -3   19      0.36      0.00
   -1   -3   19     -0.72      0.00
    0   -3   19     -0.81      0.00
    1   -3   19     -0.32      0.00
    2   -3   19      0.44      0.00
    3   -3   19      0.24      0.00
   -4   -2   19      0.47      0.00
   -3   -2   19     -0.06      0.00
   -2   -2   19      0.75      0.00
   -1   -2   19     -0.26      0.00
    0   -2   19     -1.44      0.00
    1   -2   19     -0.62      0.00
    2   -2   19      0.69      0.00
    3   -2   19      0.69      0.00
   -4   -1   19      0.98      0.00
   -3   -1   19      0.16      0.00
   -2   -1   19      0.99      0.00
   -1   -1   19      0.64      0.00
    0   -1   19     -1.07      0.00
    1   -1   19     -0.86      0.00
    2   -1   19      0.14      0.00
    3   -1   19      0.45      0.00
    4   -1   19      0.43      0.00
   -4    0   19      1.37      0.00
   -3    0   19     -0.48      0.00
   -2    0   19      1.05      0.00
   -1    0   19      1.26      0.00
    0    0   19      0.06      0.00
    1    0   19     -0.21      0.00
    2    0   19      0.03      0.00
    3    0   19      0.19      0.00
    4    0   19      0.00      0.00
   -4    1   19      1.46      0.00
   -3    1   19     -1.44      0.00
   -2    1   19      0.94      0.00
   -1    1   19      1.05      0.00
    0    1   19      0.93      0.00
    1    1   19      0.52      0.00
    2    1   19      0.52      0.00
    3    1   19      0.55      0.00
    4    1   19     -0.13      0.00
   -4    2   19      1.44      0.00
   -3    2   19     -1.71      0.00
   -2    2   19      0.66      0.00
   -1    2   19      0.31      0.00
    0    2   19      1.28      0.00
    1    2   19      0.47      0.00
    2    2   19      0.67      0.00
    3    2   19      0.94      0.00
    4    2   19      0.51      0.00
   -4    3   19      1.47      0.00
   -3    3   19     -0.83      0.00
   -2    3   19      0.29      0.00
   -1    3   19     -0.36      0.00
    0    3   19      1.34      0.00
    1    3   19      0.25      0.00
    2    3   19      0.46      0.00
    3    3   19      0.66      0.00
    4    3   19      1.21      0.00
   -4    4   19      1.21      0.00
   -3    4   19      0.34      0.00
   -2    4   19     -0.14      0.00
   -1    4   19     -0.77      0.00
    0    4   19      0.81      0.00
    1    4   19      0.36      0.00
    2    4   19      0.53      0.00
    3    4   19      0.21      0.00
    4    4   19      1.33      0.00
   -4    5   19      0.48      0.00
   -3    5   19      0.66      0.00
   -2    5   19     -0.73      0.00
   -1    5   19     -0.95      0.00
    0    5   19     -0.35      0.00
    1    5   19      0.20      0.00
    2    5   19      0.40      0.00
    3    5   19      0.07      0.00
    4    5   19      1.16      0.00
   -3    6   19      0.31      0.00
   -2    6   19     -1.26      0.00
   -1    6   19     -0.77      0.00
    0    6   19     -1.11      0.00
    1    6   19     -0.52      0.00
    2    6   19     -0.61      0.00
    3    6   19     -0.17      0.00
    4    6   19      0.95      0.00
   -3    7   19      0.05      0.00
   -2    7   19     -1.17      0.00
   -1    7   19     -0.26      0.00
    0    7   19     -0.71      0.00
    1    7   19     -1.19      0.00
    2    7   19     -1.71      0.00
    3    7   19     -0.69      0.00
    4    7   19      0.55      0.00
   -3    8   19     -0.27      0.00
   -2    8   19     -0.54      0.00
   -1    8   19      0.11      0.00
    0    8   19      0.20      0.00
    1    8   19     -1.45      0.00
    2    8   19     -1.89      0.00
    3    8   19     -0.98      0.00
    4    8   19      0.21      0.00
   -3    9   19     -1.06      0.00
   -2    9   19     -0.18      0.00
   -1    9   19     -0.14      0.00
    0    9   19      0.76      0.00
    1    9   19     -1.17      0.00
    2    9   19     -1.38      0.00
    3    9   19     -0.96      0.00
   -2   10   19     -0.50      0.00
   -1   10   19     -0.85      0.00
    0   10   19      0.97      0.00
    1   10   19     -0.13      0.00
    2   10   19     -0.74      0.00
    3   10   19     -1.02      0.00
   -2   11   19     -1.02      0.00
   -1   11   19     -1.34      0.00
    0   11   19      1.10      0.00
    1   11   19      1.22      0.00
    2   11   19     -0.04      0.00
   -1   12   19     -1.11      0.00
    0   12   19      1.08      0.00
    1   12   19      1.67      0.00
    2   12   19      0.36      0.00
    0   -6   20      0.55      0.00
   -1   -5   20      0.25      0.00
    0   -5   20     -0.07      0.00
    1   -5   20      1.06      0.00
   -2   -4   20     -0.02      0.00
   -1   -4   20      0.55      0.00
    0   -4   20     -0.09      0.00
    1   -4   20      0.05      0.00
    2   -4   20     -0.51      0.00
   -2   -3   20     -0.66      0.00
   -1   -3   20      0.40      0.00
    0   -3   20      0.47      0.00
    1   -3   20     -0.27      0.00
    2   -3   20     -1.65      0.00
   -3   -2   20      0.66      0.00
   -2   -2   20     -0.99      0.00
   -1   -2   20     -0.25      0.00
    0   -2   20      0.57      0.00
    1   -2   20      0.10      0.00
    2   -2   20     -1.35      0.00
    3   -2   20     -1.54      0.00
   -3   -1   20      0.60      0.00
   -2   -1   20     -0.77      0.00
   -1   -1   20     -0.99      0.00
    0   -1   20     -0.29      0.00
    1   -1   20     -0.02      0.00
    2   -1   20     -0.53      0.00
    3   -1   20     -1.07      0.00
   -3    0   20      1.04      0.00
   -2    0   20     -0.31      0.00
   -1    0   20     -1.09      0.00
    0    0   20     -1.20      0.00
    1    0   20     -0.73      0.00
    2    0   20     -0.55      0.00
    3    0   20     -0.62      0.00
   -3    1   20      1.50      0.00
   -2    1   20      0.13      0.00
   -1    1   20     -0.36      0.00
    0    1   20     -1.29      0.00
    1    1   20     -0.82      0.00
    2    1   20     -0.88      0.00
    3    1   20     -0.30      0.00
   -3    2   20      1.19      0.00
   -2    2   20      0.45      0.00
   -1    2   20      0.57      0.00
    0    2   20     -1.04      0.00
    1    2   20     -0.14      0.00
    2    2   20     -0.52      0.00
    3    2   20      0.55      0.00
   -3    3   20     -0.03      0.00
   -2    3   20      0.58      0.00
   -1    3   20      1.01      0.00
    0    3   20     -1.02      0.00
    1    3   20      0.11      0.00
    2    3   20     -0.01      0.00
    3    3   20      1.68      0.00
   -3    4   20     -1.09      0.00
   -2    4   20      0.59      0.00
   -1    4   20      0.86      0.00
    0    4   20     -0.67      0.00
    1    4   20     -0.21      0.00
    2    4   20     -0.02      0.00
    3    4   20      2.01      0.00
   -3    5   20     -1.09      0.00
   -2    5   20      0.64      0.00
   -1    5   20      0.40      0.00
    0    5   20      0.28      0.00
    1    5   20     -0.07      0.00
    2    5   20      0.17      0.00
    3    5   20      1.58      0.00
   -3    6   20     -0.43      0.00
   -2    6   20      0.62      0.00
   -1    6   20     -0.07      0.00
    0    6   20      0.85      0.00
    1    6   20      0.69      0.00
    2    6   20      1.11      0.00
    3    6   20      1.39      0.00
   -2    7   20      0.34      0.00
   -1    7   20     -0.25      0.00
    0    7   20      0.34      0.00
    1    7   20      1.20      0.00
    2    7   20      1.82      0.00
    3    7   20      1.53      0.00
   -2    8   20      0.08      0.00
   -1    8   20      0.07      0.00
    0    8   20     -0.65      0.00
    1    8   20      1.10      0.00
    2    8   20      1.50      0.00
    3    8   20      1.33      0.00
   -2    9   20      0.19      0.00
   -1    9   20      0.77      0.00
    0    9   20     -1.32      0.00
    1    9   20      0.48      0.00
    2    9   20      0.66      0.00
   -1   10   20      1.35      0.00
    0   10   20     -1.48      0.00
    1   10   20     -0.45      0.00
    2   10   20     -0.10      0.00
    0   11   20     -1.30      0.00
    1   11   20     -1.05      0.00
   -1   -3   21      0.56      0.00
    0   -3   21      0.24      0.00
    1   -3   21      0.22      0.00
   -1   -2   21      1.16      0.00
    0   -2   21      0.95      0.00
    1   -2   21      0.14      0.00
   -2   -1   21     -0.02      0.00
   -1   -1   21      1.12      0.00
    0   -1   21      1.82      0.00
    1   -1   21      0.90      0.00
    2   -1   21      0.10      0.00
   -2    0   21     -0.90      0.00
   -1    0   21      0.50      0.00
    0    0   21      1.85      0.00
    1    0   21      1.60      0.00
    2    0   21      0.44      0.00
   -2    1   21     -1.11      0.00
   -1    1   21     -0.11      0.00
    0    1   21      1.22      0.00
    1    1   21      1.18      0.00
    2    1   21      0.62      0.00
   -2    2   21     -0.84      0.00
   -1    2   21     -0.24      0.00
    0    2   21      1.10      0.00
    1    2   21      0.40      0.00
    2    2   21      0.26      0.00
   -2    3   21     -0.44      0.00
   -1    3   21     -0.06      0.00
    0    3   21      1.45      0.00
    1    3   21      0.43      0.00
    2    3   21      0.25      0.00
   -2    4   21     -0.14      0.00
   -1    4   21      0.03      0.00
    0    4   21      0.97      0.00
    1    4   21      0.63      0.00
    2    4   21      0.69      0.00
   -2    5   21      0.11      0.00
   -1    5   21     -0.02      0.00
    0    5   21     -0.50      0.00
    1    5   21     -0.04      0.00
    2    5   21      0.49      0.00
   -2    6   21      0.52      0.00
   -1    6   21     -0.04      0.00
    0    6   21     -1.40      0.00
    1    6   21     -1.08      0.00
    2    6   21     -0.41      0.00
   -1    7   21     -0.07      0.00
    0    7   21     -0.82      0.00
    1    7   21     -1.43      0.00
    2    7   21     -0.87      0.00
   -1    8   21     -0.26      0.00
    0    8   21      0.53      0.00
    1    8   21     -1.08      0.00
    0    9   21      1.54      0.00
    1    9   21     -0.47      0.00
    0    0   22     -0.93      0.00
    0    1   22     -0.26      0.00
    1    1   22     -0.77      0.00
   -1    2   22     -0.43      0.00
    0    2   22     -0.58      0.00
    1    2   22     -0.11      0.00
   -1    3   22     -0.70      0.00
    0    3   22     -1.04      0.00
    1    3   22     -0.05      0.00
   -1    4   22     -0.41      0.00
    0    4   22     -0.39      0.00
    1    4   22      0.23      0.00
    0    5   22      0.85      0.00
    1    5   22      1.03      0.00
    3    0    0     -3.13      0.00
   -6    1    0      1.14      0.00
   -3    1    0     -4.90      0.00
    0    1    0    100.66      0.00
    2    1    0     14.14      0.00
    3    5    0     -8.32      0.00
   -8    6    0     -0.34      0.00
    3    6    0     -7.61      0.00
   -8    7    0     -0.18      0.00
   -8    8    0     -0.09      0.00
    8    8    0      0.46      0.00
   -8    9    0     -0.11      0.00
    8    9    0      0.54      0.00
    8   10    0      0.33      0.00
   -7   11    0      0.39      0.00
    8   11    0      0.08      0.00
   -7   12    0      0.36      0.00
   -6   13    0      0.77      0.00
    7   13    0     -0.66      0.00
   -6   14    0      0.22      0.00
    7   14    0     -0.42      0.00
   -6   15    0     -0.22      0.00
    6   15    0      0.02      0.00
    7   15    0     -0.16      0.00
   -5   16    0      0.28      0.00
    6   16    0     -0.19      0.00
   -5   17    0      0.06      0.00
   -4   17    0     -0.59      0.00
    5   17    0      0.66      0.00
    6   17    0     -0.31      0.00
   -4   18    0     -0.56      0.00
    5   18    0      0.64      0.00
   -3   19    0      1.05      0.00
   -2   19    0      0.37      0.00
    4   19    0     -0.06      0.00
   -2   20    0     -0.26      0.00
   -1   20    0      1.37      0.00
    0   20    0      0.72      0.00
    1   20    0      0.53      0.00
    2   20    0     -0.32      0.00
    3   20    0      0.50      0.00
   -3  -20    1     -0.33      0.00
   -2  -20    1      0.29      0.00
   -1  -20    1     -0.21      0.00
    0  -20    1     -1.22      0.00
    1  -20    1     -2.60      0.00
    2  -20    1     -0.78      0.00
   -4  -19    1      0.18      0.00
   -3  -19    1     -0.06      0.00
    2  -19    1     -1.99      0.00
    3  -19    1     -1.95      0.00
   -5  -18    1     -0.16      0.00
   -4  -18    1      0.53      0.00
    3  -18    1     -2.95      0.00
    4  -18    1     -0.10      0.00
   -6  -17    1      0.27      0.00
   -5  -17    1      0.31      0.00
    4  -17    1     -0.35      0.00
   -6  -16    1      0.18      0.00
    5  -16    1     -0.56      0.00
   -6  -15    1     -0.09      0.00
    5  -15    1     -0.44      0.00
    6  -15    1      0.08      0.00
   -7  -14    1      0.22      0.00
    6  -14    1     -0.16      0.00
   -7  -13    1      0.56      0.00
    6  -13    1     -0.54      0.00
    7  -12    1     -0.20      0.00
   -8  -11    1      0.27      0.00
    7  -11    1     -0.31      0.00
   -8  -10    1     -0.11      0.00
    7  -10    1     -0.53      0.00
   -8   -9    1     -0.52      0.00
    8   -9    1      0.02      0.00
   -8   -8    1     -0.58      0.00
    8   -8    1      0.33      0.00
   -3   -7    1      3.97      0.00
    8   -7    1      0.61      0.00
    8   -6    1      0.58      0.00
   -3   -4    1     -3.63      0.00
   -6   -1    1     -2.13      0.00
    0   -1    1    -86.25      0.00
    0    0    1    -79.28      0.00
    0    1    1    -41.80      0.00
   -8    6    1      0.26      0.00
   -8    7    1      0.23      0.00
   -8    8    1      0.45      0.00
   -8    9    1      0.57      0.00
    1    9    1      4.59      0.00
    8    9    1     -0.74      0.00
   -1   10    1      1.06      0.00
    8   10    1     -0.40      0.00
   -7   11    1     -0.58      0.00
    8   11    1      0.05      0.00
   -7   12    1     -0.44      0.00
    7   13    1      0.44      0.00
   -6   14    1      0.32      0.00
    7   14    1      0.10      0.00
   -6   15    1      0.52      0.00
    7   15    1     -0.11      0.00
   -5   16    1     -0.51      0.00
    6   16    1      0.26      0.00
   -5   17    1     -0.70      0.00
   -4   17    1      0.60      0.00
    5   17    1     -0.36      0.00
    6   17    1      0.51      0.00
   -4   18    1      0.44      0.00
    5   18    1     -0.34      0.00
   -3   19    1     -0.35      0.00
    4   19    1      0.59      0.00
   -2   20    1      0.55      0.00
   -1   20    1     -0.33      0.00
    0   20    1     -0.29      0.00
    1   20    1     -0.37      0.00
    2   20    1      0.60      0.00
    3   20    1     -0.29      0.00
    4   20    1      0.54      0.00
   -3  -20    2     -0.52      0.00
   -2  -20    2     -0.91      0.00
   -1  -20    2     -1.13      0.00
    0  -20    2      0.41      0.00
    1  -20    2      2.50      0.00
    2  -20    2      1.74      0.00
   -4  -19    2     -0.58      0.00
   -3  -19    2     -1.26      0.00
    2  -19    2      2.55      0.00
    3  -19    2      2.40      0.00
   -5  -18    2     -0.51      0.00
   -4  -18    2     -0.99      0.00
    3  -18    2      3.01      0.00
    4  -18    2      0.73      0.00
   -5  -17    2     -1.09      0.00
    4  -17    2      0.56      0.00
   -6  -16    2     -0.06      0.00
    5  -16    2      0.49      0.00
   -6  -15    2      0.50      0.00
    5  -15    2      0.03      0.00
   -7  -14    2     -0.27      0.00
    6  -14    2      0.18      0.00
   -7  -13    2     -0.67      0.00
    6  -13    2      0.77      0.00
   -7  -12    2     -0.99      0.00
    7  -12    2      0.14      0.00
   -8  -11    2      0.01      0.00
    7  -11    2      0.15      0.00
   -8  -10    2      0.27      0.00
    7  -10    2      0.25      0.00
   -8   -9    2      0.27      0.00
   -1   -9    2     -3.19      0.00
   -8   -8    2     -0.05      0.00
    1   -8    2     -4.80      0.00
    8   -8    2     -0.42      0.00
    8   -7    2     -0.51      0.00
    8   -6    2     -0.25      0.00
    8   -5    2      0.19      0.00
   -3    2    2      1.86      0.00
    3    2    2     -5.22      0.00
   -8    6    2     -0.89      0.00
   -8    7    2     -0.82      0.00
   -8    8    2     -0.80      0.00
   -3    8    2     -1.59      0.00
   -1    8    2     -7.35      0.00
   -8    9    2     -0.57      0.00
    8    9    2      0.22      0.00
    8   10    2     -0.45      0.00
   -7   11    2      0.33      0.00
    8   11    2     -0.74      0.00
   -7   12    2     -0.04      0.00
    8   12    2     -0.51      0.00
    7   13    2      0.64      0.00
   -6   14    2     -0.81      0.00
    7   14    2      0.67      0.00
   -6   15    2     -0.43      0.00
    7   15    2      0.34      0.00
   -5   16    2      1.22      0.00
    6   16    2     -0.81      0.00
   -5   17    2      1.30      0.00
   -4   17    2     -0.03      0.00
    6   17    2     -0.78      0.00
   -4   18    2     -0.18      0.00
    5   18    2      0.00      0.00
   -3   19    2     -0.16      0.00
    4   19    2     -0.79      0.00
   -2   20    2     -0.70      0.00
   -1   20    2     -0.17      0.00
    0   20    2      0.38      0.00
    2   20    2     -0.61      0.00
    3   20    2      0.29      0.00
    4   20    2     -0.40      0.00
   -3  -20    3      0.83      0.00
   -2  -20    3      1.28      0.00
   -1  -20    3      2.54      0.00
    0  -20    3      1.17      0.00
    1  -20    3     -0.83      0.00
    2  -20    3     -1.32      0.00
   -4  -19    3      0.05      0.00
   -3  -19    3      1.19      0.00
   -2  -19    3      1.92      0.00
    1  -19    3      0.46      0.00
    2  -19    3     -1.22      0.00
    3  -19    3     -1.67      0.00
   -5  -18    3      0.72      0.00
   -4  -18    3     -0.31      0.00
    3  -18    3     -1.58      0.00
    4  -18    3     -0.11      0.00
   -5  -17    3      1.04      0.00
    4  -17    3      0.70      0.00
   -6  -16    3      0.25      0.00
    5  -16    3      0.05      0.00
   -6  -15    3     -0.21      0.00
    5  -15    3     -0.08      0.00
   -7  -14    3      0.33      0.00
    6  -14    3     -0.59      0.00
   -7  -13    3      0.56      0.00
    6  -13    3     -1.17      0.00
   -7  -12    3      0.70      0.00
    7  -12    3      0.05      0.00
   -8  -11    3     -0.28      0.00
    7  -11    3      0.41      0.00
   -8  -10    3      0.09      0.00
    7  -10    3      0.52      0.00
   -8   -9    3      0.57      0.00
   -8   -8    3      0.80      0.00
    8   -8    3      0.32      0.00
   -8   -7    3      0.72      0.00
    8   -7    3      0.37      0.00
    8   -6    3      0.21      0.00
   -3   -5    3     -7.61      0.00
    8   -5    3      0.11      0.00
   -3   -3    3     -6.66      0.00
    3   -1    3     -2.69      0.00
   -3    0    3      0.57      0.00
    3    4    3     -5.79      0.00
   -8    6    3      1.25      0.00
   -8    7    3      0.84      0.00
   -2    7    3      7.30      0.00
   -8    8    3      0.39      0.00
   -2    8    3      3.50      0.00
    8    8    3      0.16      0.00
   -8    9    3      0.10      0.00
    8    9    3      0.83      0.00
    8   10    3      1.17      0.00
   -7   11    3      0.40      0.00
    8   11    3      0.82      0.00
   -7   12    3      0.59      0.00
    7   13    3     -1.43      0.00
   -6   14    3      0.27      0.00
    7   14    3     -0.83      0.00
   -6   15    3     -0.20      0.00
    7   15    3     -0.08      0.00
   -5   16    3     -1.53      0.00
    6   16    3      0.99      0.00
   -5   17    3     -1.20      0.00
   -4   17    3     -0.23      0.00
    6   17    3      0.49      0.00
   -4   18    3      0.15      0.00
    5   18    3     -0.35      0.00
   -3   19    3      0.24      0.00
    4   19    3      0.58      0.00
   -2   20    3      1.04      0.00
   -1   20    3      0.38      0.00
    2   20    3      0.29      0.00
    3   20    3     -0.26      0.00
    4   20    3      0.21      0.00
   -2  -20    4     -0.88      0.00
   -1  -20    4     -2.35      0.00
    0  -20    4     -1.07      0.00
    1  -20    4     -0.12      0.00
   -4  -19    4      0.70      0.00
   -3  -19    4     -0.23      0.00
   -2  -19    4     -0.69      0.00
   -1  -19    4     -2.27      0.00
    0  -19    4     -1.30      0.00
    1  -19    4     -0.18      0.00
    2  -19    4      0.01      0.00
   -4  -18    4      1.50      0.00
    3  -18    4      0.57      0.00
   -5  -17    4     -0.61      0.00
    4  -17    4     -1.03      0.00
   -6  -16    4     -0.51      0.00
   -5  -16    4     -0.31      0.00
    4  -16    4     -0.39      0.00
    5  -16    4     -0.09      0.00
   -6  -15    4     -0.46      0.00
    5  -15    4      0.86      0.00
   -6  -14    4      0.08      0.00
    6  -14    4      0.72      0.00
   -7  -13    4     -0.47      0.00
    6  -13    4      0.91      0.00
   -7  -12    4     -0.78      0.00
    7  -11    4     -1.05      0.00
   -8  -10    4     -0.47      0.00
    7  -10    4     -1.28      0.00
   -8   -9    4     -0.54      0.00
   -8   -8    4     -0.15      0.00
    8   -8    4     -0.61      0.00
   -8   -7    4      0.37      0.00
    8   -7    4     -0.76      0.00
    8   -6    4     -0.74      0.00
   -3   -5    4      4.90      0.00
    8   -5    4     -0.87      0.00
    8   -4    4     -0.98      0.00
   -2    2    4      9.57      0.00
   -1    2    4     -0.74      0.00
   -1    4    4      1.41      0.00
   -8    5    4     -0.95      0.00
   -8    6    4     -0.73      0.00
   -8    7    4     -0.19      0.00
   -8    8    4      0.28      0.00
    8    8    4     -0.77      0.00
   -8    9    4      0.25      0.00
    8    9    4     -1.04      0.00
   -7   10    4     -0.62      0.00
    8   10    4     -0.97      0.00
   -7   11    4     -0.32      0.00
    8   11    4     -0.45      0.00
   -7   12    4     -0.11      0.00
   -6   13    4      0.11      0.00
    7   13    4      1.16      0.00
   -6   14    4      0.49      0.00
    7   14    4      0.56      0.00
   -6   15    4      0.50      0.00
    7   15    4      0.02      0.00
   -5   16    4      1.03      0.00
    6   16    4     -0.16      0.00
   -5   17    4      0.77      0.00
   -4   17    4      0.24      0.00
    5   17    4      0.99      0.00
    6   17    4      0.36      0.00
   -4   18    4      0.04      0.00
    5   18    4      1.16      0.00
   -3   19    4      0.40      0.00
    4   19    4     -0.31      0.00
   -2   20    4     -0.94      0.00
   -1   20    4     -0.20      0.00
    0   20    4      0.13      0.00
    2   20    4      0.00      0.00
    3   20    4      0.05      0.00
    4   20    4     -0.10      0.00
   -2  -20    5      0.45      0.00
   -1  -20    5      1.23      0.00
    0  -20    5     -0.25      0.00
   -3  -19    5     -0.23      0.00
   -2  -19    5     -0.20      0.00
   -1  -19    5      0.75      0.00
    0  -19    5     -0.72      0.00
    1  -19    5     -0.93      0.00
    2  -19    5      0.05      0.00
   -4  -18    5     -1.26      0.00
   -3  -18    5     -0.25      0.00
    2  -18    5      0.09      0.00
    3  -18    5     -0.94      0.00
   -5  -17    5      0.13      0.00
   -4  -17    5     -1.58      0.00
    3  -17    5     -1.97      0.00
    4  -17    5     -0.52      0.00
   -5  -16    5      0.02      0.00
    4  -16    5     -1.59      0.00
   -6  -15    5      0.77      0.00
    5  -15    5     -1.38      0.00
   -6  -14    5      0.38      0.00
    5  -14    5     -1.45      0.00
    6  -14    5     -0.48      0.00
   -7  -13    5      0.47      0.00
    6  -13    5     -0.51      0.00
   -7  -12    5      0.78      0.00
    6  -12    5     -0.13      0.00
   -7  -11    5      0.53      0.00
    7  -11    5      0.84      0.00
   -8  -10    5     -0.07      0.00
    7  -10    5      0.94      0.00
   -8   -9    5     -0.39      0.00
    7   -9    5      0.36      0.00
   -8   -8    5     -0.67      0.00
   -8   -7    5     -0.73      0.00
    8   -7    5      0.75      0.00
   -8   -6    5     -0.85      0.00
    8   -6    5      0.93      0.00
    8   -5    5      1.31      0.00
    8   -4    5      1.46      0.00
   -3    1    5     -4.03      0.00
   -3    3    5      1.16      0.00
   -8    5    5      0.02      0.00
   -8    6    5      0.02      0.00
   -2    6    5      7.36      0.00
   -8    7    5     -0.33      0.00
   -8    8    5     -0.59      0.00
    8    8    5      0.11      0.00
    8    9    5      0.25      0.00
   -7   10    5      0.01      0.00
    8   10    5      0.38      0.00
   -7   11    5     -0.48      0.00
    8   11    5      0.28      0.00
   -7   12    5     -0.60      0.00
   -6   13    5     -0.37      0.00
    7   13    5     -0.61      0.00
   -6   14    5     -0.31      0.00
    7   14    5     -0.50      0.00
   -6   15    5     -0.16      0.00
    6   15    5     -0.03      0.00
    7   15    5     -0.27      0.00
   -5   16    5     -0.39      0.00
    6   16    5     -0.66      0.00
   -5   17    5     -0.53      0.00
   -4   17    5     -0.29      0.00
    5   17    5     -1.87      0.00
    6   17    5     -0.87      0.00
   -4   18    5     -0.27      0.00
    5   18    5     -1.33      0.00
   -3   19    5     -0.89      0.00
    4   19    5      0.46      0.00
   -2   20    5      0.37      0.00
   -1   20    5     -0.40      0.00
    0   20    5      0.25      0.00
    1   20    5     -0.24      0.00
    2   20    5      0.02      0.00
    3   20    5      0.21      0.00
    4   20    5      0.21      0.00
   -3  -19    6      0.35      0.00
   -2  -19    6      0.69      0.00
   -1  -19    6     -0.23      0.00
    0  -19    6      0.60      0.00
    1  -19    6      0.35      0.00
    2  -19    6     -0.07      0.00
   -4  -18    6      0.15      0.00
   -3  -18    6      0.26      0.00
    1  -18    6      0.22      0.00
    2  -18    6     -0.12      0.00
    3  -18    6      0.91      0.00
   -5  -17    6     -0.01      0.00
   -4  -17    6      0.04      0.00
    3  -17    6      1.74      0.00
    4  -17    6      1.24      0.00
   -5  -16    6      0.34      0.00
    4  -16    6      1.28      0.00
   -6  -15    6     -0.32      0.00
    5  -15    6      0.72      0.00
   -6  -14    6     -0.04      0.00
    5  -14    6      0.34      0.00
   -7  -13    6     -0.10      0.00
    6  -13    6      0.41      0.00
   -7  -12    6     -0.17      0.00
    6  -12    6      0.17      0.00
   -7  -11    6      0.21      0.00
    7  -10    6      0.03      0.00
   -8   -9    6      0.54      0.00
    7   -9    6      0.81      0.00
   -8   -8    6      0.32      0.00
   -8   -7    6      0.10      0.00
    8   -7    6     -0.25      0.00
   -8   -6    6      0.41      0.00
    1   -6    6     -4.82      0.00
    8   -6    6     -0.76      0.00
   -8   -5    6      0.94      0.00
    8   -5    6     -1.30      0.00
    8   -4    6     -1.32      0.00
    8   -3    6     -0.85      0.00
   -3    3    6     -2.20      0.00
    3    3    6     -7.88      0.00
   -8    4    6      1.08      0.00
   -8    5    6      0.51      0.00
   -8    6    6      0.21      0.00
   -8    7    6      0.35      0.00
   -3    7    6      2.30      0.00
   -2    7    6     -1.35      0.00
    8    7    6      1.11      0.00
   -8    8    6      0.48      0.00
    8    8    6      0.93      0.00
    8    9    6      0.53      0.00
   -7   10    6     -0.19      0.00
    8   10    6      0.09      0.00
   -7   11    6      0.14      0.00
    8   11    6     -0.04      0.00
   -7   12    6      0.14      0.00
    7   12    6     -0.18      0.00
   -6   13    6     -0.23      0.00
    7   13    6      0.19      0.00
   -6   14    6     -0.23      0.00
    7   14    6      0.24      0.00
   -6   15    6     -0.07      0.00
   -5   15    6      0.01      0.00
    6   15    6     -0.29      0.00
   -5   16    6      0.43      0.00
    6   16    6      0.27      0.00
   -5   17    6      0.54      0.00
   -4   17    6      0.25      0.00
    5   17    6      0.72      0.00
    6   17    6      0.35      0.00
   -4   18    6      0.12      0.00
    5   18    6      0.06      0.00
   -3   19    6      0.07      0.00
   -2   19    6     -0.45      0.00
    4   19    6     -0.92      0.00
   -2   20    6     -0.35      0.00
   -1   20    6      0.58      0.00
    0   20    6     -0.19      0.00
    1   20    6      0.85      0.00
    2   20    6      0.12      0.00
    3   20    6     -0.03      0.00
   -2  -19    7     -0.77      0.00
   -1  -19    7      0.19      0.00
    0  -19    7      0.08      0.00
    1  -19    7      0.17      0.00
   -3  -18    7      0.01      0.00
   -2  -18    7     -0.96      0.00
   -1  -18    7      0.48      0.00
    0  -18    7      0.52      0.00
    1  -18    7      0.06      0.00
    2  -18    7     -0.46      0.00
   -4  -17    7      1.01      0.00
   -3  -17    7      0.21      0.00
    2  -17    7     -0.57      0.00
    3  -17    7     -0.32      0.00
   -5  -16    7     -1.00      0.00
    4  -16    7      0.82      0.00
   -5  -15    7     -1.74      0.00
    4  -15    7      2.29      0.00
    5  -15    7      0.25      0.00
   -6  -14    7     -0.39      0.00
    5  -14    7      0.60      0.00
   -6  -13    7     -0.32      0.00
    6  -13    7     -0.05      0.00
   -7  -12    7     -0.14      0.00
    6  -12    7      0.28      0.00
   -7  -11    7     -0.24      0.00
    6  -11    7      0.53      0.00
   -7  -10    7     -0.53      0.00
    7  -10    7     -0.37      0.00
    7   -9    7     -1.44      0.00
   -8   -8    7      0.10      0.00
    7   -8    7     -2.22      0.00
   -8   -7    7      0.15      0.00
   -8   -6    7     -0.21      0.00
    8   -6    7      0.41      0.00
   -8   -5    7     -0.41      0.00
    8   -5    7      0.77      0.00
   -8   -4    7      0.16      0.00
    8   -4    7      0.62      0.00
   -8   -3    7      0.94      0.00
   -2   -3    7      4.75      0.00
    8   -3    7      0.36      0.00
   -8   -2    7      0.96      0.00
    8   -2    7      0.27      0.00
    8   -1    7      0.02      0.00
   -3    0    7      7.58      0.00
   -8    2    7     -1.60      0.00
   -8    3    7     -1.73      0.00
   -8    4    7     -1.17      0.00
   -8    5    7     -0.39      0.00
   -1    5    7      1.74      0.00
   -8    6    7     -0.02      0.00
    1    6    7      7.22      0.00
    8    6    7     -1.90      0.00
   -8    7    7     -0.06      0.00
   -3    7    7     -2.46      0.00
    8    7    7     -1.24      0.00
    8    8    7     -0.83      0.00
   -7    9    7      1.53      0.00
    8    9    7     -0.51      0.00
   -7   10    7      1.54      0.00
    8   10    7     -0.24      0.00
   -7   11    7      1.05      0.00
   -7   12    7      0.60      0.00
    7   12    7      0.45      0.00
   -6   13    7      0.45      0.00
    7   13    7      0.46      0.00
   -6   14    7      0.20      0.00
    7   14    7      0.48      0.00
   -5   15    7     -0.72      0.00
    6   15    7      1.35      0.00
   -5   16    7     -0.95      0.00
    6   16    7      0.81      0.00
   -4   17    7     -0.35      0.00
    5   17    7      1.23      0.00
   -4   18    7     -0.10      0.00
   -3   18    7      1.01      0.00
    4   18    7      1.04      0.00
    5   18    7      1.10      0.00
   -3   19    7      1.08      0.00
   -2   19    7      0.56      0.00
    3   19    7     -0.09      0.00
    4   19    7      0.61      0.00
   -2   20    7      0.65      0.00
   -1   20    7      0.13      0.00
    0   20    7     -0.01      0.00
    1   20    7     -0.82      0.00
    2   20    7     -0.18      0.00
    3   20    7     -0.28      0.00
   -1  -19    8     -0.50      0.00
    0  -19    8     -0.28      0.00
   -3  -18    8     -0.24      0.00
   -2  -18    8      0.09      0.00
   -1  -18    8     -1.01      0.00
    0  -18    8     -1.16      0.00
    1  -18    8      0.69      0.00
    2  -18    8      1.31      0.00
   -4  -17    8     -0.56      0.00
   -3  -17    8     -0.61      0.00
    2  -17    8      1.14      0.00
    3  -17    8     -0.22      0.00
   -5  -16    8      1.45      0.00
   -4  -16    8     -0.06      0.00
    3  -16    8     -0.69      0.00
    4  -16    8     -1.46      0.00
   -5  -15    8      1.93      0.00
    4  -15    8     -2.61      0.00
   -6  -14    8     -0.01      0.00
    5  -14    8     -0.40      0.00
   -6  -13    8     -0.04      0.00
    5  -13    8     -0.87      0.00
   -6  -12    8      0.34      0.00
    6  -12    8     -0.36      0.00
   -7  -11    8     -0.25      0.00
    6  -11    8      0.00      0.00
   -7  -10    8     -0.02      0.00
    1  -10    8      1.73      0.00
   -7   -9    8      0.55      0.00
   -3   -9    8     -0.36      0.00
    7   -9    8      1.44      0.00
    7   -8    8      1.83      0.00
   -8   -7    8     -0.27      0.00
    7   -7    8      0.99      0.00
   -8   -6    8     -0.28      0.00
   -8   -5    8     -0.53      0.00
    8   -5    8     -0.10      0.00
   -8   -4    8     -1.04      0.00
    8   -4    8     -0.06      0.00
   -8   -3    8     -1.17      0.00
    8   -3    8     -0.31      0.00
   -8   -2    8     -0.63      0.00
    8   -2    8     -0.69      0.00
   -8   -1    8     -0.04      0.00
    8   -1    8     -0.57      0.00
   -8    0    8      0.31      0.00
    8    0    8      0.01      0.00
   -8    1    8      0.75      0.00
    8    1    8      0.59      0.00
   -8    2    8      1.27      0.00
    8    2    8      1.24      0.00
   -8    3    8      1.30      0.00
    8    3    8      2.11      0.00
   -8    4    8      0.71      0.00
    8    4    8      2.49      0.00
   -8    5    8      0.07      0.00
   -2    5    8     -2.08      0.00
    8    5    8      1.74      0.00
   -8    6    8     -0.17      0.00
   -2    6    8     -1.09      0.00
    8    6    8      0.53      0.00
   -8    7    8     -0.14      0.00
    8    7    8     -0.08      0.00
    8    8    8     -0.07      0.00
   -7    9    8     -1.89      0.00
   -3    9    8      5.61      0.00
    8    9    8     -0.02      0.00
   -7   10    8     -1.74      0.00
   -6   10    8      0.34      0.00
   -3   10    8      3.87      0.00
    3   10    8      3.38      0.00
    8   10    8     -0.03      0.00
   -7   11    8     -1.01      0.00
   -6   12    8      0.09      0.00
    7   12    8     -0.90      0.00
   -6   13    8     -0.19      0.00
    7   13    8     -1.24      0.00
   -6   14    8     -0.07      0.00
    7   14    8     -0.93      0.00
   -5   15    8      1.05      0.00
    6   15    8     -1.56      0.00
   -5   16    8      1.08      0.00
    6   16    8     -0.95      0.00
   -4   17    8      0.84      0.00
    5   17    8     -1.36      0.00
   -4   18    8      0.56      0.00
   -3   18    8     -0.99      0.00
    4   18    8      0.28      0.00
    5   18    8     -0.59      0.00
   -3   19    8     -0.82      0.00
   -2   19    8     -0.29      0.00
    3   19    8     -0.30      0.00
    4   19    8      0.12      0.00
   -2   20    8     -0.27      0.00
   -1   20    8     -0.93      0.00
    0   20    8      0.38      0.00
    1   20    8      0.12      0.00
    2   20    8     -0.07      0.00
    3   20    8     -0.24      0.00
   -2  -18    9      0.26      0.00
   -1  -18    9      0.79      0.00
    0  -18    9      1.67      0.00
    1  -18    9     -0.50      0.00
   -3  -17    9      0.66      0.00
   -2  -17    9      0.44      0.00
   -1  -17    9      0.26      0.00
    0  -17    9      1.78      0.00
    1  -17    9     -0.04      0.00
    2  -17    9     -0.31      0.00
   -4  -16    9     -0.78      0.00
   -3  -16    9      1.04      0.00
    3  -16    9     -0.01      0.00
   -5  -15    9     -1.08      0.00
   -4  -15    9     -1.29      0.00
    4  -15    9      1.43      0.00
   -5  -14    9     -0.87      0.00
    4  -14    9      1.48      0.00
    5  -14    9     -0.13      0.00
   -6  -13    9      0.16      0.00
    5  -13    9      0.17      0.00
   -6  -12    9     -0.31      0.00
    5  -12    9      0.27      0.00
    6  -12    9     -0.16      0.00
   -7  -11    9      0.56      0.00
    6  -11    9     -0.80      0.00
   -7  -10    9      0.42      0.00
    6  -10    9     -1.42      0.00
   -7   -9    9      0.12      0.00
    7   -9    9     -0.69      0.00
   -7   -8    9      0.37      0.00
    7   -8    9     -0.45      0.00
    7   -7    9      0.30      0.00
   -8   -6    9      0.45      0.00
    7   -6    9      0.65      0.00
   -8   -5    9      0.51      0.00
   -3   -5    9     -0.67      0.00
   -8   -4    9      0.64      0.00
    8   -4    9      0.03      0.00
   -8   -3    9      0.55      0.00
    8   -3    9      0.45      0.00
   -8   -2    9      0.41      0.00
    8   -2    9      0.85      0.00
   -8   -1    9      0.52      0.00
    8   -1    9      0.63      0.00
   -8    0    9      0.51      0.00
    8    0    9      0.03      0.00
   -8    1    9     -0.09      0.00
    8    1    9     -0.49      0.00
   -8    2    9     -0.81      0.00
   -3    2    9      2.91      0.00
    8    2    9     -0.93      0.00
   -8    3    9     -0.90      0.00
    8    3    9     -1.18      0.00
   -8    4    9     -0.43      0.00
    8    4    9     -0.73      0.00
   -8    5    9     -0.03      0.00
    8    5    9      0.28      0.00
   -8    6    9      0.08      0.00
    8    6    9      0.87      0.00
    8    7    9      0.64      0.00
   -7    8    9      0.28      0.00
   -3    8    9     -3.95      0.00
    8    8    9      0.27      0.00
   -7    9    9      0.62      0.00
    8    9    9      0.23      0.00
   -7   10    9      0.54      0.00
   -7   11    9      0.18      0.00
   -5   11    9     -0.25      0.00
    7   11    9      0.79      0.00
   -6   12    9     -0.13      0.00
    7   12    9      1.51      0.00
   -6   13    9      0.29      0.00
    7   13    9      1.48      0.00
   -6   14    9      0.32      0.00
    6   14    9      0.85      0.00
   -5   15    9     -0.48      0.00
    6   15    9      0.29      0.00
   -5   16    9     -0.50      0.00
    5   16    9      0.36      0.00
    6   16    9      0.09      0.00
   -4   17    9     -1.14      0.00
    5   17    9      0.29      0.00
   -3   18    9     -0.29      0.00
    4   18    9     -1.00      0.00
    5   18    9     -0.20      0.00
   -3   19    9      0.00      0.00
   -2   19    9     -0.27      0.00
   -1   19    9      1.74      0.00
    3   19    9      1.30      0.00
    4   19    9     -0.15      0.00
   -2   20    9     -0.01      0.00
   -1   20    9      1.66      0.00
    0   20    9     -0.65      0.00
    1   20    9      0.06      0.00
    2   20    9     -0.39      0.00
    3   20    9      0.87      0.00
   -1  -18   10     -0.12      0.00
    0  -18   10     -1.30      0.00
   -3  -17   10     -0.63      0.00
   -2  -17   10     -0.57      0.00
   -1  -17   10      0.69      0.00
    0  -17   10     -0.89      0.00
    1  -17   10      0.65      0.00
    2  -17   10     -0.21      0.00
   -4  -16   10      0.83      0.00
   -3  -16   10     -0.58      0.00
    2  -16   10     -0.02      0.00
    3  -16   10      0.83      0.00
   -5  -15   10      0.39      0.00
   -4  -15   10      1.17      0.00
    3  -15   10      1.40      0.00
    4  -15   10     -0.45      0.00
   -5  -14   10      0.32      0.00
    4  -14   10     -0.27      0.00
   -6  -13   10     -0.01      0.00
   -5  -13   10      0.53      0.00
    5  -13   10     -0.18      0.00
   -6  -12   10     -0.04      0.00
    5  -12   10     -0.49      0.00
   -6  -11   10     -0.48      0.00
    6  -11   10      0.48      0.00
   -7  -10   10     -0.36      0.00
    6  -10   10      0.67      0.00
   -7   -9   10     -0.29      0.00
    6   -9   10     -0.04      0.00
   -7   -8   10     -0.52      0.00
    1   -8   10      0.81      0.00
    7   -8   10     -0.59      0.00
   -7   -7   10     -0.63      0.00
   -3   -7   10      1.65      0.00
    7   -7   10     -0.57      0.00
    7   -6   10      0.06      0.00
   -8   -5   10      0.12      0.00
    7   -5   10      0.62      0.00
   -8   -4   10     -0.07      0.00
   -8   -3   10     -0.24      0.00
    8   -3   10     -0.24      0.00
   -8   -2   10     -0.46      0.00
    8   -2   10     -0.52      0.00
   -8   -1   10     -0.67      0.00
    8   -1   10     -0.43      0.00
   -8    0   10     -0.38      0.00
    8    0   10     -0.24      0.00
   -8    1   10      0.45      0.00
    8    1   10     -0.18      0.00
   -8    2   10      1.03      0.00
    8    2   10     -0.08      0.00
   -8    3   10      0.90      0.00
    8    3   10     -0.06      0.00
   -8    4   10      0.45      0.00
    8    4   10     -0.36      0.00
   -8    5   10      0.17      0.00
    8    5   10     -0.65      0.00
    8    6   10     -0.40      0.00
   -7    7   10      0.76      0.00
    8    7   10      0.11      0.00
   -7    8   10      0.59      0.00
    8    8   10      0.22      0.00
   -7    9   10      0.22      0.00
   -7   10   10     -0.07      0.00
    7   10   10     -0.81      0.00
   -6   11   10      0.01      0.00
    7   11   10     -1.36      0.00
   -6   12   10     -0.26      0.00
    7   12   10     -1.41      0.00
   -6   13   10     -0.38      0.00
   -3   13   10      0.38      0.00
    7   13   10     -0.87      0.00
   -5   14   10     -0.42      0.00
    6   14   10      1.04      0.00
   -5   15   10      0.10      0.00
    6   15   10      0.87      0.00
   -4   16   10      0.78      0.00
    5   16   10      0.28      0.00
   -4   17   10      0.89      0.00
    5   17   10      0.05      0.00
   -3   18   10      0.77      0.00
   -2   18   10      1.02      0.00
    4   18   10      0.79      0.00
   -2   19   10     -0.03      0.00
   -1   19   10     -2.75      0.00
    0   19   10      0.91      0.00
    1   19   10     -0.03      0.00
    2   19   10      0.66      0.00
    3   19   10     -1.33      0.00
    4   19   10      0.05      0.00
   -1   20   10     -2.33      0.00
    0   20   10     -0.03      0.00
    1   20   10     -0.11      0.00
    2   20   10      1.16      0.00
    3   20   10     -0.62      0.00
   -2  -17   11      0.30      0.00
   -1  -17   11     -0.93      0.00
    0  -17   11      0.12      0.00
    1  -17   11     -1.26      0.00
   -3  -16   11     -0.37      0.00
   -2  -16   11      0.20      0.00
   -1  -16   11     -1.25      0.00
    0  -16   11     -0.79      0.00
    1  -16   11     -1.58      0.00
    2  -16   11     -0.38      0.00
   -4  -15   11     -0.24      0.00
   -3  -15   11     -1.00      0.00
    2  -15   11     -0.06      0.00
    3  -15   11     -2.00      0.00
   -5  -14   11      0.29      0.00
   -4  -14   11      0.57      0.00
    3  -14   11     -1.99      0.00
    4  -14   11     -0.72      0.00
   -5  -13   11      0.41      0.00
    4  -13   11     -1.00      0.00
   -6  -12   11      0.39      0.00
   -5  -12   11      0.48      0.00
    5  -12   11      0.65      0.00
   -6  -11   11      0.86      0.00
    5  -11   11      1.53      0.00
   -6  -10   11      1.16      0.00
    6  -10   11     -0.17      0.00
   -7   -9   11     -0.36      0.00
    6   -9   11      0.08      0.00
   -7   -8   11     -0.38      0.00
   -2   -8   11     -2.04      0.00
    6   -8   11     -0.11      0.00
   -7   -7   11     -0.62      0.00
    7   -7   11     -0.35      0.00
   -7   -6   11     -0.99      0.00
    7   -6   11     -1.14      0.00
   -7   -5   11     -0.83      0.00
    7   -5   11     -1.09      0.00
    7   -4   11     -0.29      0.00
   -8   -3   11      0.15      0.00
   -8   -2   11      0.06      0.00
   -8   -1   11     -0.08      0.00
    8   -1   11      0.29      0.00
   -8    0   11     -0.47      0.00
    8    0   11      0.39      0.00
   -8    1   11     -0.91      0.00
    8    1   11      0.41      0.00
   -8    2   11     -0.93      0.00
    8    2   11      0.13      0.00
   -8    3   11     -0.57      0.00
    8    3   11     -0.18      0.00
    8    4   11     -0.15      0.00
    8    5   11     -0.06      0.00
   -7    6   11      0.01      0.00
    8    6   11     -0.25      0.00
   -7    7   11     -0.38      0.00
    8    7   11     -0.44      0.00
   -7    8   11     -0.34      0.00
   -4    8   11      0.96      0.00
   -7    9   11     -0.04      0.00
   -4    9   11      0.31      0.00
    7    9   11      0.68      0.00
    7   10   11      1.03      0.00
   -6   11   11      0.22      0.00
    7   11   11      0.85      0.00
   -6   12   11      0.08      0.00
    7   12   11      0.44      0.00
   -6   13   11     -0.07      0.00
    6   13   11     -2.19      0.00
   -5   14   11     -0.10      0.00
    6   14   11     -1.54      0.00
   -5   15   11     -0.34      0.00
    6   15   11     -0.68      0.00
   -4   16   11     -0.59      0.00
    5   16   11     -0.22      0.00
   -4   17   11     -0.36      0.00
   -3   17   11     -1.35      0.00
    4   17   11     -0.99      0.00
    5   17   11      0.00      0.00
   -3   18   11     -0.11      0.00
   -2   18   11     -0.37      0.00
    3   18   11      0.81      0.00
    4   18   11     -0.64      0.00
   -2   19   11      0.44      0.00
   -1   19   11      2.68      0.00
    0   19   11      0.27      0.00
    1   19   11      0.11      0.00
    2   19   11     -0.76      0.00
    3   19   11      0.71      0.00
   -1   20   11      1.70      0.00
    0   20   11      0.70      0.00
    1   20   11      0.44      0.00
    2   20   11     -0.82      0.00
   -3  -16   12      0.51      0.00
   -2  -16   12      0.20      0.00
   -1  -16   12      1.08      0.00
    0  -16   12      0.00      0.00
    1  -16   12      0.19      0.00
    2  -16   12     -0.21      0.00
   -4  -15   12     -0.56      0.00
   -3  -15   12      0.44      0.00
   -2  -15   12      0.04      0.00
    1  -15   12     -0.59      0.00
    2  -15   12     -0.92      0.00
    3  -15   12      1.22      0.00
   -4  -14   12     -1.15      0.00
   -3  -14   12      0.17      0.00
    3  -14   12      1.21      0.00
   -5  -13   12     -0.51      0.00
   -4  -13   12     -1.05      0.00
    4  -13   12      0.31      0.00
   -5  -12   12     -0.46      0.00
    4  -12   12     -0.59      0.00
    5  -12   12     -0.43      0.00
   -6  -11   12     -0.32      0.00
    5  -11   12     -1.44      0.00
   -6  -10   12     -0.20      0.00
    5  -10   12     -2.09      0.00
   -6   -9   12     -0.19      0.00
    6   -9   12      0.32      0.00
   -7   -8   12      0.59      0.00
    6   -8   12      1.15      0.00
   -7   -7   12      0.88      0.00
    6   -7   12      2.24      0.00
   -7   -6   12      1.17      0.00
    7   -6   12      0.92      0.00
   -7   -5   12      0.99      0.00
    7   -5   12      0.20      0.00
   -7   -4   12      0.55      0.00
    7   -4   12     -0.76      0.00
   -7   -3   12      0.43      0.00
    7   -3   12     -0.78      0.00
    7   -2   12     -0.14      0.00
   -5    1   12      0.33      0.00
    8    2   12      0.34      0.00
   -7    3   12     -0.99      0.00
    8    3   12      0.55      0.00
   -7    4   12     -1.62      0.00
    8    4   12      0.26      0.00
   -7    5   12     -1.28      0.00
   -7    6   12     -0.54      0.00
   -7    7   12      0.04      0.00
   -4    7   12     -1.29      0.00
    7    7   12      0.75      0.00
   -7    8   12      0.29      0.00
   -5    8   12     -0.14      0.00
    7    8   12      0.19      0.00
   -6    9   12      0.16      0.00
   -5    9   12      0.72      0.00
    7    9   12     -0.27      0.00
   -6   10   12      0.28      0.00
   -5   10   12      1.58      0.00
    7   10   12     -0.28      0.00
   -6   11   12      0.29      0.00
   -5   11   12      1.73      0.00
    7   11   12      0.00      0.00
   -6   12   12      0.29      0.00
    6   12   12      2.42      0.00
   -5   13   12      0.35      0.00
    6   13   12      1.57      0.00
   -5   14   12      0.14      0.00
    6   14   12      0.47      0.00
   -5   15   12      0.18      0.00
   -4   15   12     -0.18      0.00
    5   15   12      0.42      0.00
   -4   16   12     -0.03      0.00
    5   16   12      0.19      0.00
   -3   17   12      0.28      0.00
    4   17   12      0.74      0.00
   -3   18   12     -0.48      0.00
   -2   18   12     -0.06      0.00
   -1   18   12     -1.44      0.00
    2   18   12     -0.45      0.00
    3   18   12     -0.51      0.00
    4   18   12      0.35      0.00
   -2   19   12     -0.20      0.00
   -1   19   12     -1.34      0.00
    0   19   12     -0.61      0.00
    1   19   12      0.11      0.00
    2   19   12      0.19      0.00
    3   19   12     -0.25      0.00
    0   20   12     -0.36      0.00
    1   20   12     -0.24      0.00
   -2  -16   13      0.45      0.00
   -1  -16   13     -0.13      0.00
    0  -16   13      0.83      0.00
    1  -16   13      0.76      0.00
   -3  -15   13      0.12      0.00
   -2  -15   13      0.81      0.00
   -1  -15   13      0.59      0.00
    0  -15   13      1.19      0.00
    1  -15   13      1.16      0.00
    2  -15   13      1.09      0.00
   -4  -14   13     -0.06      0.00
   -3  -14   13      0.00      0.00
   -2  -14   13      0.92      0.00
    2  -14   13      1.20      0.00
    3  -14   13      0.15      0.00
   -4  -13   13     -0.48      0.00
    3  -13   13      0.84      0.00
    4  -13   13      0.97      0.00
   -5  -12   13     -0.04      0.00
   -4  -12   13     -0.64      0.00
    4  -12   13      2.06      0.00
   -5  -11   13     -0.37      0.00
    4  -11   13      1.97      0.00
    5  -11   13      1.02      0.00
   -6  -10   13     -0.01      0.00
    5  -10   13      1.22      0.00
   -6   -9   13      0.31      0.00
    5   -9   13      0.18      0.00
   -6   -8   13      0.73      0.00
    6   -8   13     -1.00      0.00
   -6   -7   13      0.48      0.00
    6   -7   13     -1.41      0.00
   -7   -6   13     -0.86      0.00
    6   -6   13     -0.89      0.00
   -7   -5   13     -0.95      0.00
    7   -5   13      0.54      0.00
   -7   -4   13     -0.72      0.00
    7   -4   13      1.08      0.00
   -7   -3   13     -0.37      0.00
    7   -3   13      0.83      0.00
   -7   -2   13      0.05      0.00
    7   -2   13      0.39      0.00
   -7   -1   13      0.30      0.00
    7   -1   13      0.32      0.00
   -7    0   13      0.16      0.00
    7    0   13      0.17      0.00
   -7    1   13      0.07      0.00
    7    1   13     -0.31      0.00
   -7    2   13      0.60      0.00
    7    2   13     -0.34      0.00
   -7    3   13      1.41      0.00
    7    3   13      0.31      0.00
   -7    4   13      1.65      0.00
    7    4   13      0.62      0.00
   -7    5   13      1.16      0.00
    7    5   13     -0.05      0.00
   -7    6   13      0.42      0.00
    7    6   13     -0.91      0.00
   -7    7   13     -0.15      0.00
    7    7   13     -1.07      0.00
    7    8   13     -0.60      0.00
   -6    9   13     -0.88      0.00
   -5    9   13     -1.61      0.00
    7    9   13     -0.11      0.00
   -6   10   13     -0.57      0.00
    7   10   13      0.04      0.00
   -6   11   13     -0.22      0.00
    6   11   13     -1.40      0.00
   -5   12   13     -0.45      0.00
    6   12   13     -0.93      0.00
   -5   13   13      0.31      0.00
    6   13   13     -0.11      0.00
   -5   14   13      0.44      0.00
    5   14   13      0.15      0.00
    6   14   13      0.41      0.00
   -4   15   13      0.62      0.00
    5   15   13      0.02      0.00
   -4   16   13      0.43      0.00
   -3   16   13     -0.26      0.00
    4   16   13     -0.50      0.00
    5   16   13     -0.01      0.00
   -3   17   13      0.28      0.00
   -2   17   13     -0.06      0.00
    3   17   13      0.06      0.00
    4   17   13     -0.42      0.00
   -2   18   13      0.30      0.00
   -1   18   13      1.03      0.00
    0   18   13      0.42      0.00
    1   18   13     -1.14      0.00
    2   18   13      0.32      0.00
    3   18   13      0.06      0.00
   -1   19   13      0.44      0.00
    0   19   13      0.54      0.00
    1   19   13     -0.52      0.00
    2   19   13     -0.07      0.00
   -2  -15   14     -0.42      0.00
   -1  -15   14     -0.30      0.00
    0  -15   14     -0.76      0.00
    1  -15   14     -0.48      0.00
   -3  -14   14      0.24      0.00
   -2  -14   14     -0.22      0.00
   -1  -14   14     -0.15      0.00
    0  -14   14     -0.27      0.00
    1  -14   14     -0.30      0.00
    2  -14   14     -0.86      0.00
   -4  -13   14      0.47      0.00
   -3  -13   14      0.01      0.00
    2  -13   14     -0.92      0.00
    3  -13   14     -1.24      0.00
   -4  -12   14      0.43      0.00
    3  -12   14     -1.11      0.00
    4  -12   14     -1.58      0.00
   -5  -11   14      0.39      0.00
   -4  -11   14      0.59      0.00
    4  -11   14     -0.56      0.00
   -5  -10   14      0.89      0.00
    4  -10   14      1.77      0.00
    5  -10   14     -0.32      0.00
   -6   -9   14     -0.61      0.00
   -5   -9   14      0.74      0.00
    5   -9   14      0.25      0.00
   -6   -8   14     -1.02      0.00
    5   -8   14      0.66      0.00
   -6   -7   14     -0.69      0.00
    6   -7   14      0.14      0.00
   -6   -6   14     -0.13      0.00
    6   -6   14     -0.10      0.00
    6   -5   14     -0.02      0.00
   -7   -4   14     -0.01      0.00
   -7   -3   14     -0.42      0.00
    7   -3   14     -0.43      0.00
   -7   -2   14     -0.71      0.00
    7   -2   14     -0.41      0.00
   -7   -1   14     -0.59      0.00
    7   -1   14     -0.41      0.00
   -7    0   14     -0.10      0.00
    7    0   14     -0.05      0.00
   -7    1   14      0.11      0.00
    7    1   14      0.38      0.00
   -7    2   14     -0.34      0.00
    7    2   14      0.24      0.00
   -7    3   14     -0.93      0.00
    7    3   14     -0.16      0.00
   -7    4   14     -1.01      0.00
    7    4   14      0.05      0.00
   -7    5   14     -0.67      0.00
    7    5   14      0.79      0.00
   -7    6   14     -0.31      0.00
    7    6   14      1.15      0.00
   -6    7   14      0.39      0.00
    7    7   14      0.78      0.00
   -6    8   14      0.27      0.00
    7    8   14      0.15      0.00
   -6    9   14      0.05      0.00
    7    9   14     -0.21      0.00
   -6   10   14     -0.15      0.00
    6   10   14      0.11      0.00
   -5   11   14     -0.01      0.00
    6   11   14      0.28      0.00
   -5   12   14     -0.26      0.00
    6   12   14      0.11      0.00
   -5   13   14     -0.34      0.00
    5   13   14     -0.59      0.00
    6   13   14     -0.20      0.00
   -4   14   14     -0.79      0.00
    5   14   14     -0.49      0.00
   -4   15   14     -0.12      0.00
   -3   15   14      0.15      0.00
    4   15   14      0.18      0.00
    5   15   14     -0.30      0.00
   -3   16   14      0.09      0.00
    4   16   14      0.49      0.00
   -3   17   14      0.00      0.00
   -2   17   14     -0.70      0.00
   -1   17   14     -1.10      0.00
    2   17   14     -0.28      0.00
    3   17   14      0.19      0.00
    4   17   14      0.25      0.00
   -2   18   14     -0.27      0.00
   -1   18   14     -0.81      0.00
    0   18   14     -0.47      0.00
    1   18   14      1.19      0.00
    2   18   14     -0.15      0.00
    3   18   14      0.10      0.00
    0   19   14     -0.32      0.00
    1   19   14      0.45      0.00
   -2  -14   15      0.01      0.00
   -1  -14   15     -0.73      0.00
    0  -14   15     -0.99      0.00
    1  -14   15     -0.51      0.00
   -3  -13   15      0.48      0.00
   -2  -13   15      0.55      0.00
   -1  -13   15     -0.10      0.00
    0  -13   15     -0.96      0.00
    1  -13   15     -0.71      0.00
    2  -13   15      0.44      0.00
   -4  -12   15     -0.08      0.00
   -3  -12   15      0.59      0.00
    2  -12   15     -0.45      0.00
    3  -12   15     -0.21      0.00
   -4  -11   15     -0.66      0.00
    3  -11   15     -1.62      0.00
    4  -11   15     -0.85      0.00
   -5  -10   15     -0.37      0.00
   -4  -10   15     -0.94      0.00
    4  -10   15     -2.58      0.00
   -5   -9   15      0.24      0.00
    4   -9   15     -2.83      0.00
    5   -9   15     -0.18      0.00
   -5   -8   15      0.98      0.00
    5   -8   15     -0.18      0.00
   -6   -7   15      0.55      0.00
    5   -7   15     -0.29      0.00
   -6   -6   15      0.62      0.00
    6   -6   15     -0.38      0.00
   -6   -5   15      1.33      0.00
    6   -5   15     -1.05      0.00
   -6   -4   15      2.01      0.00
    6   -4   15     -1.15      0.00
   -6   -3   15      1.67      0.00
    6   -3   15     -0.40      0.00
   -7   -2   15      0.12      0.00
    6   -2   15      0.46      0.00
   -7   -1   15     -0.31      0.00
    7   -1   15      0.12      0.00
   -7    0   15     -0.62      0.00
    7    0   15     -0.07      0.00
   -7    1   15     -0.43      0.00
    1    1   15      2.35      0.00
    7    1   15     -0.13      0.00
   -7    2   15      0.09      0.00
    7    2   15      0.05      0.00
   -7    3   15      0.37      0.00
   -2    3   15     -2.41      0.00
    7    3   15      0.00      0.00
    1    4   15     -0.89      0.00
    7    4   15     -0.44      0.00
   -6    5   15      0.47      0.00
   -2    5   15     -2.47      0.00
    7    5   15     -0.70      0.00
   -6    6   15      0.34      0.00
    1    6   15     -1.34      0.00
    7    6   15     -0.39      0.00
   -6    7   15      0.56      0.00
   -3    7   15     -2.42      0.00
    7    7   15      0.08      0.00
   -6    8   15      0.69      0.00
    6    8   15      1.75      0.00
   -6    9   15      0.55      0.00
    6    9   15      0.85      0.00
   -5   10   15      1.11      0.00
    6   10   15      0.04      0.00
   -5   11   15      0.38      0.00
    6   11   15     -0.39      0.00
   -5   12   15     -0.17      0.00
    5   12   15     -0.22      0.00
    6   12   15     -0.34      0.00
   -4   13   15      0.34      0.00
    5   13   15      0.22      0.00
   -4   14   15     -0.06      0.00
    5   14   15      0.32      0.00
   -4   15   15     -0.38      0.00
   -3   15   15      0.11      0.00
    4   15   15     -0.16      0.00
   -3   16   15     -0.10      0.00
   -2   16   15      1.47      0.00
    3   16   15     -0.11      0.00
    4   16   15     -0.28      0.00
   -2   17   15      0.62      0.00
   -1   17   15      0.31      0.00
    0   17   15     -0.73      0.00
    1   17   15     -1.41      0.00
    2   17   15      0.29      0.00
    3   17   15      0.34      0.00
   -1   18   15     -0.04      0.00
    0   18   15     -0.49      0.00
    1   18   15     -1.14      0.00
    2   18   15      0.12      0.00
   -2  -13   16     -0.32      0.00
   -1  -13   16     -0.34      0.00
    0  -13   16      0.20      0.00
    1  -13   16      0.23      0.00
   -3  -12   16      0.16      0.00
   -2  -12   16     -0.08      0.00
   -1  -12   16     -0.70      0.00
    0  -12   16     -0.38      0.00
    1  -12   16     -0.18      0.00
    2  -12   16      0.22      0.00
   -4  -11   16      0.08      0.00
   -3  -11   16     -0.17      0.00
    2  -11   16      0.19      0.00
    3  -11   16      0.89      0.00
   -4  -10   16     -0.33      0.00
    3  -10   16      0.45      0.00
    4  -10   16      1.24      0.00
   -5   -9   16     -0.82      0.00
   -4   -9   16     -0.65      0.00
    4   -9   16      0.68      0.00
   -5   -8   16     -1.10      0.00
    4   -8   16     -0.65      0.00
    5   -8   16      0.26      0.00
   -5   -7   16     -1.25      0.00
    5   -7   16      0.98      0.00
   -6   -6   16     -0.28      0.00
   -5   -6   16     -1.37      0.00
    5   -6   16      1.60      0.00
   -6   -5   16     -0.86      0.00
    5   -5   16      1.34      0.00
    6   -5   16      1.28      0.00
   -6   -4   16     -1.09      0.00
    6   -4   16      0.79      0.00
   -6   -3   16     -0.44      0.00
    6   -3   16     -0.16      0.00
   -6   -2   16      0.93      0.00
    6   -2   16     -0.81      0.00
   -6   -1   16      2.33      0.00
    6   -1   16     -0.76      0.00
   -6    0   16      2.89      0.00
    6    0   16     -0.40      0.00
   -6    1   16      2.16      0.00
    6    1   16     -0.07      0.00
   -6    2   16      0.67      0.00
    6    2   16      0.42      0.00
   -6    3   16     -0.37      0.00
    6    3   16      0.72      0.00
   -6    4   16     -0.45      0.00
    6    4   16     -0.02      0.00
   -6    5   16     -0.22      0.00
    6    5   16     -1.60      0.00
   -6    6   16     -0.28      0.00
    6    6   16     -2.63      0.00
   -6    7   16     -0.41      0.00
    6    7   16     -2.40      0.00
   -6    8   16     -0.28      0.00
    6    8   16     -1.45      0.00
   -5    9   16     -1.71      0.00
    6    9   16     -0.46      0.00
   -5   10   16     -0.96      0.00
    6   10   16      0.26      0.00
   -5   11   16     -0.22      0.00
    5   11   16      1.07      0.00
    6   11   16      0.48      0.00
   -4   12   16     -0.24      0.00
    5   12   16      0.48      0.00
   -4   13   16     -0.51      0.00
    5   13   16      0.01      0.00
   -4   14   16     -0.34      0.00
   -3   14   16     -1.40      0.00
    4   14   16     -0.20      0.00
    5   14   16     -0.11      0.00
   -3   15   16     -0.86      0.00
   -2   15   16     -2.21      0.00
    3   15   16     -0.49      0.00
    4   15   16     -0.27      0.00
   -2   16   16     -1.38      0.00
   -1   16   16      0.61      0.00
    0   16   16      1.83      0.00
    1   16   16      1.30      0.00
    2   16   16      0.05      0.00
    3   16   16     -0.55      0.00
   -1   17   16      0.48      0.00
    0   17   16      1.67      0.00
    1   17   16      1.55      0.00
    2   17   16      0.15      0.00
    3   17   16     -0.54      0.00
    0   18   16      0.82      0.00
    1   18   16      0.91      0.00
   -2  -12   17     -0.46      0.00
   -1  -12   17     -0.17      0.00
    0  -12   17     -0.37      0.00
    1  -12   17      0.18      0.00
   -3  -11   17      1.13      0.00
   -2  -11   17     -0.67      0.00
   -1  -11   17     -0.13      0.00
    0  -11   17     -0.84      0.00
    1  -11   17      0.06      0.00
    2  -11   17     -0.14      0.00
   -4  -10   17      0.91      0.00
   -3  -10   17      1.71      0.00
   -2  -10   17     -0.87      0.00
    2  -10   17      0.12      0.00
    3  -10   17      0.48      0.00
   -4   -9   17      0.40      0.00
   -3   -9   17      1.32      0.00
    3   -9   17      1.01      0.00
    4   -9   17      0.58      0.00
   -5   -8   17     -0.01      0.00
   -4   -8   17     -0.50      0.00
    4   -8   17      1.23      0.00
   -5   -7   17      0.30      0.00
   -4   -7   17     -1.17      0.00
    4   -7   17      1.14      0.00
   -5   -6   17      0.71      0.00
    5   -6   17     -1.36      0.00
   -5   -5   17      0.80      0.00
    5   -5   17     -0.97      0.00
   -6   -4   17      0.25      0.00
   -5   -4   17      0.32      0.00
    5   -4   17     -0.36      0.00
   -6   -3   17     -0.11      0.00
    5   -3   17     -0.35      0.00
    6   -3   17      0.19      0.00
   -6   -2   17     -0.77      0.00
    6   -2   17      0.17      0.00
   -6   -1   17     -1.44      0.00
    6   -1   17     -0.02      0.00
   -6    0   17     -1.62      0.00
    6    0   17     -0.22      0.00
   -6    1   17     -1.06      0.00
    6    1   17     -0.41      0.00
   -6    2   17     -0.24      0.00
    6    2   17     -0.51      0.00
   -6    3   17      0.14      0.00
    6    3   17     -0.08      0.00
   -6    4   17      0.05      0.00
    6    4   17      1.00      0.00
   -6    5   17     -0.04      0.00
    6    5   17      1.90      0.00
   -6    6   17      0.01      0.00
    6    6   17      1.80      0.00
   -5    7   17      1.49      0.00
    6    7   17      1.10      0.00
   -5    8   17      1.47      0.00
    6    8   17      0.52      0.00
   -5    9   17      1.02      0.00
    5    9   17     -0.37      0.00
    6    9   17      0.15      0.00
   -5   10   17      0.59      0.00
   -4   10   17     -0.05      0.00
    5   10   17     -0.46      0.00
   -4   11   17      0.39      0.00
    5   11   17     -0.34      0.00
   -4   12   17      0.94      0.00
    4   12   17      0.65      0.00
    5   12   17     -0.08      0.00
   -4   13   17      1.01      0.00
   -3   13   17      2.35      0.00
    4   13   17      0.58      0.00
    5   13   17      0.08      0.00
   -3   14   17      1.98      0.00
   -2   14   17      1.92      0.00
    3   14   17      0.72      0.00
    4   14   17      0.60      0.00
   -3   15   17      0.90      0.00
   -2   15   17      1.68      0.00
   -1   15   17     -0.57      0.00
    0   15   17     -1.30      0.00
    1   15   17     -0.73      0.00
    2   15   17     -0.59      0.00
    3   15   17      0.40      0.00
   -2   16   17      0.87      0.00
   -1   16   17     -0.35      0.00
    0   16   17     -1.35      0.00
    1   16   17     -1.07      0.00
    2   16   17     -0.60      0.00
    3   16   17      0.24      0.00
    0   17   17     -0.67      0.00
    1   17   17     -0.80      0.00
    2   17   17     -0.45      0.00
   -2  -11   18      0.26      0.00
   -1  -11   18     -0.71      0.00
    0  -11   18      0.74      0.00
    1  -11   18      0.31      0.00
   -3  -10   18     -0.51      0.00
   -2  -10   18      1.13      0.00
   -1  -10   18     -1.15      0.00
    0  -10   18      0.76      0.00
    1  -10   18      0.45      0.00
    2  -10   18      0.80      0.00
   -3   -9   18      0.17      0.00
   -2   -9   18      1.74      0.00
    1   -9   18      0.38      0.00
    2   -9   18      0.52      0.00
    3   -9   18      0.08      0.00
   -4   -8   18      1.01      0.00
   -3   -8   18      0.74      0.00
    3   -8   18      0.20      0.00
   -4   -7   18      0.95      0.00
    3   -7   18      0.31      0.00
    4   -7   18     -0.30      0.00
   -5   -6   18     -0.67      0.00
   -4   -6   18      0.70      0.00
    4   -6   18      0.06      0.00
   -5   -5   18     -0.62      0.00
   -4   -5   18      0.42      0.00
    4   -5   18      0.60      0.00
    5   -5   18      0.31      0.00
   -5   -4   18     -0.06      0.00
    5   -4   18      0.09      0.00
   -5   -3   18      0.74      0.00
    5   -3   18      0.31      0.00
   -5   -2   18      1.31      0.00
    5   -2   18      0.40      0.00
   -5   -1   18      1.24      0.00
    5   -1   18     -0.28      0.00
   -5    0   18      0.61      0.00
    5    0   18     -1.27      0.00
    6    0   18      0.02      0.00
   -6    1   18      0.20      0.00
   -5    1   18     -0.24      0.00
    6    1   18      0.00      0.00
   -5    2   18     -0.97      0.00
    6    2   18     -0.09      0.00
   -5    3   18     -1.40      0.00
    6    3   18     -0.50      0.00
   -5    4   18     -1.53      0.00
    6    4   18     -0.94      0.00
   -5    5   18     -1.61      0.00
    6    5   18     -0.80      0.00
   -5    6   18     -1.65      0.00
    5    6   18     -0.41      0.00
    6    6   18     -0.16      0.00
   -5    7   18     -1.33      0.00
    5    7   18     -0.30      0.00
    6    7   18      0.18      0.00
   -5    8   18     -0.66      0.00
    5    8   18     -0.56      0.00
   -5    9   18     -0.14      0.00
   -4    9   18      0.43      0.00
    5    9   18     -0.58      0.00
   -4   10   18      0.41      0.00
    5   10   18     -0.38      0.00
   -4   11   18      0.01      0.00
   -3   11   18     -0.01      0.00
    4   11   18     -1.67      0.00
    5   11   18     -0.19      0.00
   -4   12   18     -0.28      0.00
   -3   12   18     -0.90      0.00
    4   12   18     -1.17      0.00
   -3   13   18     -1.32      0.00
   -2   13   18     -0.20      0.00
    3   13   18     -0.11      0.00
    4   13   18     -0.63      0.00
   -3   14   18     -0.81      0.00
   -2   14   18     -0.44      0.00
   -1   14   18      0.24      0.00
    0   14   18     -0.05      0.00
    1   14   18     -0.31      0.00
    2   14   18      0.56      0.00
    3   14   18     -0.05      0.00
   -2   15   18     -0.42      0.00
   -1   15   18     -0.01      0.00
    0   15   18      0.17      0.00
    1   15   18      0.24      0.00
    2   15   18      0.61      0.00
    3   15   18      0.13      0.00
   -1   16   18     -0.26      0.00
    0   16   18      0.02      0.00
    1   16   18      0.29      0.00
    2   16   18      0.36      0.00
   -2  -10   19     -1.50      0.00
   -1  -10   19      0.60      0.00
    0  -10   19     -0.48      0.00
    1  -10   19      0.25      0.00
   -3   -9   19     -0.35      0.00
   -2   -9   19     -1.70      0.00
   -1   -9   19      0.50      0.00
    0   -9   19     -0.80      0.00
    1   -9   19      0.43      0.00
    2   -9   19      0.26      0.00
   -3   -8   19      0.08      0.00
   -2   -8   19     -0.83      0.00
   -1   -8   19      0.29      0.00
    0   -8   19     -1.04      0.00
    1   -8   19      0.33      0.00
    2   -8   19      0.70      0.00
    3   -8   19     -0.18      0.00
   -4   -7   19      0.28      0.00
   -3   -7   19      0.18      0.00
   -2   -7   19      0.29      0.00
    2   -7   19      0.48      0.00
    3   -7   19     -0.32      0.00
   -4   -6   19     -0.14      0.00
   -3   -6   19     -0.53      0.00
    3   -6   19     -0.47      0.00
    4   -6   19      0.11      0.00
   -4   -5   19     -0.54      0.00
    3   -5   19     -0.60      0.00
    4   -5   19     -0.26      0.00
   -4   -4   19     -0.46      0.00
    4   -4   19     -0.61      0.00
   -5   -3   19     -0.47      0.00
   -4   -3   19     -0.03      0.00
    4   -3   19     -0.37      0.00
    5   -3   19      0.34      0.00
   -5   -2   19     -0.67      0.00
    4   -2   19      0.26      0.00
    5   -2   19      0.40      0.00
   -5   -1   19     -0.47      0.00
    5   -1   19      0.83      0.00
   -5    0   19      0.20      0.00
    5    0   19      1.26      0.00
   -5    1   19      1.10      0.00
    5    1   19      1.28      0.00
   -5    2   19      1.85      0.00
    5    2   19      1.11      0.00
   -5    3   19      2.08      0.00
    5    3   19      1.03      0.00
   -5    4   19      1.81      0.00
    5    4   19      0.84      0.00
   -5    5   19      1.35      0.00
    5    5   19      0.42      0.00
   -5    6   19      0.86      0.00
   -4    6   19     -0.34      0.00
    5    6   19      0.24      0.00
   -5    7   19      0.28      0.00
   -4    7   19     -0.92      0.00
    5    7   19      0.46      0.00
   -4    8   19     -1.29      0.00
    5    8   19      0.59      0.00
   -4    9   19     -1.36      0.00
    4    9   19      0.46      0.00
    5    9   19      0.40      0.00
   -4   10   19     -1.05      0.00
   -3   10   19     -1.71      0.00
    4   10   19      0.98      0.00
   -3   11   19     -1.45      0.00
    3   11   19     -0.99      0.00
    4   11   19      0.98      0.00
   -3   12   19     -0.58      0.00
   -2   12   19     -1.21      0.00
    3   12   19     -0.62      0.00
    4   12   19      0.47      0.00
   -2   13   19     -1.02      0.00
   -1   13   19     -0.50      0.00
    0   13   19      0.83      0.00
    1   13   19      0.93      0.00
    2   13   19      0.11      0.00
    3   13   19     -0.30      0.00
   -2   14   19     -0.63      0.00
   -1   14   19     -0.06      0.00
    0   14   19      0.42      0.00
    1   14   19      0.03      0.00
    2   14   19     -0.27      0.00
    3   14   19     -0.28      0.00
   -1   15   19      0.07      0.00
    0   15   19      0.09      0.00
    1   15   19     -0.30      0.00
    2   15   19     -0.18      0.00
   -1   -9   20     -0.48      0.00
    0   -9   20      0.87      0.00
   -2   -8   20     -0.34      0.00
   -1   -8   20     -0.82      0.00
    0   -8   20      1.11      0.00
    1   -8   20      0.12      0.00
    2   -8   20     -0.47      0.00
   -3   -7   20     -0.15      0.00
   -2   -7   20     -0.52      0.00
   -1   -7   20     -0.74      0.00
    0   -7   20      1.08      0.00
    1   -7   20      0.98      0.00
    2   -7   20      0.23      0.00
   -3   -6   20      0.86      0.00
   -2   -6   20     -0.14      0.00
   -1   -6   20     -0.28      0.00
    1   -6   20      1.54      0.00
    2   -6   20      1.07      0.00
    3   -6   20      0.79      0.00
   -4   -5   20      0.96      0.00
   -3   -5   20      1.76      0.00
   -2   -5   20      0.23      0.00
    2   -5   20      0.89      0.00
    3   -5   20      0.66      0.00
   -4   -4   20      0.41      0.00
   -3   -4   20      1.82      0.00
    3   -4   20     -0.19      0.00
    4   -4   20      0.56      0.00
   -4   -3   20     -0.47      0.00
   -3   -3   20      1.22      0.00
    3   -3   20     -1.23      0.00
    4   -3   20      0.22      0.00
   -4   -2   20     -1.13      0.00
    4   -2   20     -0.27      0.00
   -4   -1   20     -1.50      0.00
    4   -1   20     -0.32      0.00
   -4    0   20     -1.75      0.00
    4    0   20     -0.10      0.00
    5    0   20     -0.20      0.00
   -4    1   20     -1.94      0.00
    4    1   20     -0.18      0.00
    5    1   20     -0.20      0.00
   -5    2   20     -1.12      0.00
   -4    2   20     -2.04      0.00
    4    2   20     -0.51      0.00
    5    2   20     -0.15      0.00
   -4    3   20     -1.76      0.00
    4    3   20     -0.49      0.00
    5    3   20     -0.13      0.00
   -4    4   20     -0.82      0.00
    4    4   20     -0.16      0.00
    5    4   20     -0.05      0.00
   -4    5   20      0.42      0.00
    4    5   20     -0.01      0.00
    5    5   20      0.02      0.00
   -4    6   20      1.23      0.00
    4    6   20      0.09      0.00
    5    6   20     -0.07      0.00
   -4    7   20      1.39      0.00
   -3    7   20      0.16      0.00
    4    7   20      0.45      0.00
    5    7   20     -0.11      0.00
   -4    8   20      1.14      0.00
   -3    8   20      0.72      0.00
    4    8   20      0.68      0.00
   -4    9   20      0.64      0.00
   -3    9   20      1.36      0.00
    3    9   20      0.92      0.00
    4    9   20      0.34      0.00
   -3   10   20      1.60      0.00
   -2   10   20      0.53      0.00
    3   10   20      0.84      0.00
    4   10   20     -0.09      0.00
   -3   11   20      1.11      0.00
   -2   11   20      0.69      0.00
   -1   11   20      1.32      0.00
    2   11   20     -0.58      0.00
    3   11   20      0.85      0.00
    4   11   20     -0.08      0.00
   -2   12   20      0.65      0.00
   -1   12   20      0.69      0.00
    0   12   20     -0.98      0.00
    1   12   20     -0.67      0.00
    2   12   20     -0.53      0.00
    3   12   20      0.56      0.00
   -2   13   20      0.58      0.00
   -1   13   20      0.07      0.00
    0   13   20     -0.61      0.00
    1   13   20      0.21      0.00
    2   13   20     -0.05      0.00
   -1   14   20     -0.06      0.00
    0   14   20     -0.19      0.00
    1   14   20      0.61      0.00
   -1   -7   21      0.30      0.00
    0   -7   21     -0.83      0.00
    1   -7   21     -0.84      0.00
   -2   -6   21     -0.60      0.00
   -1   -6   21     -0.24      0.00
    0   -6   21     -0.56      0.00
    1   -6   21     -0.85      0.00
    2   -6   21     -0.68      0.00
   -3   -5   21     -0.74      0.00
   -2   -5   21     -0.13      0.00
   -1   -5   21     -0.51      0.00
    0   -5   21     -0.09      0.00
    1   -5   21     -0.15      0.00
    2   -5   21     -0.03      0.00
   -3   -4   21     -0.55      0.00
   -2   -4   21      0.92      0.00
   -1   -4   21     -0.18      0.00
    0   -4   21      0.09      0.00
    1   -4   21      0.39      0.00
    2   -4   21      1.08      0.00
    3   -4   21      0.72      0.00
   -3   -3   21     -0.53      0.00
   -2   -3   21      1.57      0.00
    2   -3   21      1.34      0.00
    3   -3   21      1.17      0.00
   -4   -2   21      0.63      0.00
   -3   -2   21     -0.80      0.00
   -2   -2   21      1.13      0.00
    2   -2   21      0.59      0.00
    3   -2   21      1.02      0.00
   -4   -1   21      0.43      0.00
   -3   -1   21     -1.07      0.00
    3   -1   21      0.63      0.00
    4   -1   21      0.22      0.00
   -4    0   21      0.41      0.00
   -3    0   21     -1.24      0.00
    3    0   21      0.23      0.00
    4    0   21      0.16      0.00
   -4    1   21      0.56      0.00
   -3    1   21     -1.28      0.00
    3    1   21     -0.66      0.00
    4    1   21      0.04      0.00
   -4    2   21      0.67      0.00
   -3    2   21     -0.84      0.00
    3    2   21     -2.15      0.00
    4    2   21     -0.24      0.00
   -4    3   21      0.47      0.00
   -3    3   21      0.14      0.00
    3    3   21     -2.98      0.00
    4    3   21     -0.64      0.00
   -4    4   21     -0.05      0.00
   -3    4   21      1.01      0.00
    3    4   21     -2.24      0.00
    4    4   21     -0.74      0.00
   -4    5   21     -0.49      0.00
   -3    5   21      1.25      0.00
    3    5   21     -0.95      0.00
    4    5   21     -0.48      0.00
   -4    6   21     -0.53      0.00
   -3    6   21      1.05      0.00
    3    6   21     -0.47      0.00
    4    6   21     -0.37      0.00
   -3    7   21      0.71      0.00
   -2    7   21      1.02      0.00
    3    7   21     -0.51      0.00
    4    7   21     -0.54      0.00
   -3    8   21      0.21      0.00
   -2    8   21      1.19      0.00
    2    8   21     -0.61      0.00
    3    8   21     -0.32      0.00
    4    8   21     -0.50      0.00
   -3    9   21     -0.26      0.00
   -2    9   21      0.92      0.00
   -1    9   21     -0.57      0.00
    2    9   21     -0.28      0.00
    3    9   21     -0.21      0.00
   -2   10   21      0.61      0.00
   -1   10   21     -0.68      0.00
    0   10   21      1.76      0.00
    1   10   21      0.16      0.00
    2   10   21     -0.09      0.00
    3   10   21     -0.49      0.00
   -2   11   21      0.50      0.00
   -1   11   21     -0.41      0.00
    0   11   21      1.38      0.00
    1   11   21      0.35      0.00
    2   11   21      0.12      0.00
    3   11   21     -0.62      0.00
   -1   12   21      0.04      0.00
    0   12   21      0.84      0.00
    1   12   21     -0.09      0.00
    2   12   21      0.13      0.00
    0   13   21      0.43      0.00
    1   13   21     -0.54      0.00
   -1   -5   22     -0.12      0.00
    0   -5   22     -0.25      0.00
    1   -5   22     -0.44      0.00
   -2   -4   22     -1.37      0.00
   -1   -4   22     -0.73      0.00
    0   -4   22     -0.70      0.00
    1   -4   22     -0.50      0.00
    2   -4   22     -0.26      0.00
   -2   -3   22     -1.12      0.00
   -1   -3   22     -1.18      0.00
    0   -3   22     -1.22      0.00
    1   -3   22     -0.21      0.00
    2   -3   22     -0.05      0.00
   -3   -2   22      1.24      0.00
   -2   -2   22      0.23      0.00
   -1   -2   22     -0.86      0.00
    0   -2   22     -1.78      0.00
    1   -2   22     -0.44      0.00
    2   -2   22      0.37      0.00
    3   -2   22      0.27      0.00
   -3   -1   22      1.26      0.00
   -2   -1   22      1.57      0.00
   -1   -1   22      0.02      0.00
    0   -1   22     -1.77      0.00
    1   -1   22     -1.26      0.00
    2   -1   22      0.27      0.00
    3   -1   22      0.22      0.00
   -3    0   22      0.95      0.00
   -2    0   22      1.93      0.00
   -1    0   22      0.58      0.00
    1    0   22     -1.51      0.00
    2    0   22     -0.19      0.00
    3    0   22      0.24      0.00
   -3    1   22      0.77      0.00
   -2    1   22      1.37      0.00
   -1    1   22      0.27      0.00
    2    1   22     -0.35      0.00
    3    1   22      0.87      0.00
   -3    2   22      0.49      0.00
   -2    2   22      0.54      0.00
    2    2   22     -0.39      0.00
    3    2   22      1.70      0.00
   -3    3   22     -0.16      0.00
   -2    3   22     -0.11      0.00
    2    3   22     -0.79      0.00
    3    3   22      1.56      0.00
   -3    4   22     -0.86      0.00
   -2    4   22     -0.49      0.00
    2    4   22     -0.97      0.00
    3    4   22      0.42      0.00
   -3    5   22     -1.17      0.00
   -2    5   22     -0.81      0.00
   -1    5   22     -0.17      0.00
    2    5   22     -0.29      0.00
    3    5   22     -0.39      0.00
   -3    6   22     -1.06      0.00
   -2    6   22     -1.26      0.00
   -1    6   22     -0.31      0.00
    0    6   22      1.15      0.00
    1    6   22      1.47      0.00
    2    6   22      0.53      0.00
    3    6   22     -0.25      0.00
   -3    7   22     -0.65      0.00
   -2    7   22     -1.61      0.00
   -1    7   22     -0.54      0.00
    0    7   22      0.19      0.00
    1    7   22      1.18      0.00
    2    7   22      0.61      0.00
    3    7   22      0.02      0.00
   -2    8   22     -1.46      0.00
   -1    8   22     -0.51      0.00
    0    8   22     -1.08      0.00
    1    8   22      0.71      0.00
    2    8   22      0.41      0.00
    3    8   22     -0.05      0.00
   -2    9   22     -0.90      0.00
   -1    9   22     -0.23      0.00
    0    9   22     -1.76      0.00
    1    9   22      0.28      0.00
    2    9   22      0.48      0.00
   -1   10   22      0.05      0.00
    0   10   22     -1.61      0.00
    1   10   22     -0.20      0.00
    2   10   22      0.42      0.00
    0   11   22     -0.90      0.00
    1   11   22     -0.35      0.00
    0    0    0      0.00      0.00
# SQUEEZE RESULTS (Version =  30715)
# Note: Data are Listed for all Voids in the P1 Unit Cell
# i.e. Centre of Gravity, Solvent Accessible Volume,
# Recovered number of Electrons in the Void and
# Details about the Squeezed Material
loop_
  _platon_squeeze_void_nr
  _platon_squeeze_void_average_x
  _platon_squeeze_void_average_y
  _platon_squeeze_void_average_z
  _platon_squeeze_void_volume
  _platon_squeeze_void_count_electrons
  _platon_squeeze_void_content
   1 -0.036  0.000  0.500       466       114 '3 DMF'
# Missing Reflections Below sin(th)/lambda = 0.25
loop_
  _platon_missing_refln_index_h
  _platon_missing_refln_index_k
  _platon_missing_refln_index_l
  _platon_missing_refln_theta
    3    0    0     8.741
   -3    1    0     8.919
    0    1    0     1.244
    2    1    0     5.860
   -3   -4    1     9.917
    0   -1    1     1.788
    0    0    1     1.117
    0    1    1     1.548
   -3    2    2     9.459
    3    2    2     9.101
   -3   -3    3    10.063
    3   -1    3     9.587
   -3    0    3     9.387
    3    4    3    10.081
   -2    2    4     7.701
   -1    2    4     5.712
   -1    4    4     7.012
   -1    5    7     9.899
_platon_squeeze_void_probe_radius                  1.20
_platon_squeeze_details
)
TITL AK_4AZn_P1_a.res in P-1
CELL    7.0336   16.5823   18.4251     81.69     89.13     85.85
SPGR P-1
# Solvent Accessible Volume =     473.1
# Electrons Found in S.A.V. =     113.6
# Note: Atoms in Void as Cxxx and Qxxx all others
C101 0.022 0.930 0.328 !       4.50 eA-3
C102 0.024 0.893 0.261 !       3.82 eA-3
C103 0.193 0.976 0.330 !       3.21 eA-3
C104 0.816 0.960 0.342 !       3.10 eA-3
Q105 0.184 0.902 0.147 !       2.35 eA-3
C106 0.062 0.843 0.393 !       2.34 eA-3
C107 0.490 0.075 0.485 !       2.25 eA-3
C108 0.131 0.043 0.372 !       2.15 eA-3
Q109 0.846 0.925 0.117 !       1.97 eA-3
C110 0.155 0.843 0.434 !       1.94 eA-3
Q111 0.966 0.128 0.083 !       1.72 eA-3
C112 0.615 0.020 0.472 !       1.65 eA-3
Q113 0.902 0.254 0.131 !       1.43 eA-3
Q114 0.937 0.196 0.078 !       1.41 eA-3
Q115 0.816 0.245 0.442 !       1.32 eA-3
C116 0.411 1.006 0.485 !       1.21 eA-3
Q117 0.998 0.078 0.141 !       1.14 eA-3
Q118 0.755 0.187 0.465 !       1.06 eA-3
C119 0.161 0.846 0.231 !       1.01 eA-3
Q120 0.658 0.599 0.249 !       0.98 eA-3
C121 0.867 0.933 0.390 !       0.88 eA-3
Q122 0.407 0.357 0.317 !       0.87 eA-3
Q123 0.940 0.124 0.226 !       0.87 eA-3
Q124 0.347 0.412 0.454 !       0.81 eA-3
C125 0.784 0.071 0.485 !       0.81 eA-3
C126 0.341 0.977 0.408 !       0.81 eA-3
Q127 0.624 0.725 0.469 !       0.80 eA-3
Q128 0.151 0.585 0.377 !       0.79 eA-3
Q129 0.183 0.412 0.012 !       0.79 eA-3
Q130 0.933 0.205 0.209 !       0.78 eA-3
Q131 0.690 0.510 0.371 !       0.77 eA-3
C132 0.871 0.087 0.481 !       0.74 eA-3
Q133 0.843 0.862 0.082 !       0.74 eA-3
Q134 0.192 0.861 0.092 !       0.74 eA-3
Q135 0.037 0.448 0.480 !       0.72 eA-3
Q136 0.630 0.675 0.293 !       0.72 eA-3
Q137 0.103 0.749 0.125 !       0.72 eA-3
Q138 0.717 0.904 0.019 !       0.72 eA-3
C139 0.647 0.080 0.497 !       0.71 eA-3
Q140 0.405 0.242 0.322 !       0.69 eA-3
Q141 0.243 0.492 0.048 !       0.68 eA-3
Q142 0.348 0.333 0.405 !       0.67 eA-3
C143 0.785 0.043 0.423 !       0.66 eA-3
Q144 0.814 0.969 0.063 !       0.66 eA-3
Q145 0.990 0.216 0.458 !       0.66 eA-3
Q146 0.435 0.184 0.142 !       0.66 eA-3
C147 0.744 0.032 0.471 !       0.65 eA-3
Q148 0.383 0.363 0.105 !       0.65 eA-3
Q149 0.853 0.150 0.254 !       0.65 eA-3
Q150 0.120 0.709 0.277 !       0.65 eA-3
Q151 0.439 0.233 0.064 !       0.65 eA-3
Q152 0.410 0.518 0.059 !       0.64 eA-3
Q153 0.563 0.798 0.365 !       0.63 eA-3
Q154 0.838 0.864 0.215 !       0.61 eA-3
Q155 0.437 0.101 0.276 !       0.61 eA-3
Q156 0.781 0.983 0.266 !       0.61 eA-3
Q157 0.960 0.598 0.067 !       0.60 eA-3
Q158 0.749 0.325 0.391 !       0.60 eA-3
Q159 0.322 0.927 0.019 !       0.60 eA-3
Q160 0.594 0.470 0.152 !       0.60 eA-3
Q161 0.874 0.754 0.132 !       0.60 eA-3
C162 0.119 0.074 0.485 !       0.60 eA-3
C163 0.942 0.085 0.347 !       0.60 eA-3
Q164 0.477 0.737 0.157 !       0.59 eA-3
C165 0.540 0.057 0.425 !       0.58 eA-3
Q166 0.182 0.312 0.404 !       0.58 eA-3
C167 0.976 0.032 0.497 !       0.57 eA-3
Q168 0.469 0.691 0.098 !       0.57 eA-3
Q169 0.847 0.143 0.400 !       0.57 eA-3
C170 0.975 0.937 0.483 !       0.56 eA-3
C171 0.906 0.030 0.493 !       0.56 eA-3
Q172 0.129 0.668 0.406 !       0.56 eA-3
C173 0.910 0.073 0.386 !       0.56 eA-3
Q174 0.718 0.497 0.111 !       0.56 eA-3
Q175 0.719 0.258 0.484 !       0.56 eA-3
Q176 0.879 0.278 0.066 !       0.55 eA-3
Q177 0.726 0.264 0.144 !       0.54 eA-3
Q178 0.187 0.947 0.072 !       0.54 eA-3
Q179 0.738 0.640 0.055 !       0.54 eA-3
Q180 0.966 0.759 0.091 !       0.53 eA-3
Q181 0.941 0.537 0.393 !       0.53 eA-3
Q182 0.340 0.662 0.047 !       0.53 eA-3
C183 0.969 0.974 0.421 !       0.53 eA-3
Q184 0.874 0.039 0.171 !       0.52 eA-3
Q185 0.071 0.283 0.408 !       0.52 eA-3
C186 0.063 0.952 0.478 !       0.51 eA-3
Q187 0.529 0.405 0.013 !       0.51 eA-3
Q188 0.584 0.428 0.235 !       0.51 eA-3
Q189 0.970 0.504 0.336 !       0.51 eA-3
Q190 0.530 0.428 0.498 !       0.51 eA-3
)
;
_shelx_fab_checksum              16257
loop_
_space_group_symop_operation_xyz
'x, y, z'
'-x, -y, -z'
loop_
_atom_site_label
_atom_site_type_symbol
_atom_site_fract_x
_atom_site_fract_y
_atom_site_fract_z
_atom_site_U_iso_or_equiv
_atom_site_adp_type
_atom_site_occupancy
_atom_site_site_symmetry_order
_atom_site_calc_flag
_atom_site_refinement_flags_posn
_atom_site_refinement_flags_adp
_atom_site_refinement_flags_occupancy
_atom_site_disorder_assembly
_atom_site_disorder_group
Zn01 Zn 0.51918(8) -0.08658(3) 0.13354(3) 0.01813(18) Uani 1 1 d . . . . .
O5 O 0.4670(6) 0.1655(2) 0.77605(19) 0.0292(9) Uani 1 1 d . . . . .
O1 O 0.4940(6) 0.0129(2) 0.18033(19) 0.0276(8) Uani 1 1 d . . . . .
O2 O 0.4877(5) 0.0810(2) 0.06656(18) 0.0223(8) Uani 1 1 d . . . . .
O4 O 0.1753(6) 0.5571(2) 0.5217(2) 0.0276(8) Uani 1 1 d . . . . .
O9 O 0.5238(5) 0.3250(2) 0.4016(2) 0.0303(9) Uani 1 1 d . . . . .
O3 O 0.1969(6) 0.4590(2) 0.16614(19) 0.0304(9) Uani 1 1 d . . . . .
O6 O 0.3795(6) 0.2718(2) 0.83407(19) 0.0293(9) Uani 1 1 d . . . . .
O12 O 0.2860(6) -0.0958(3) 0.0741(2) 0.0381(10) Uani 1 1 d D . . . .
O13 O 0.7495(7) -0.0881(3) 0.0681(2) 0.0406(10) Uani 1 1 d D . . . .
N2 N 0.2476(6) 0.4831(2) 0.3520(2) 0.0172(8) Uani 1 1 d . . . . .
N3 N 0.3115(6) 0.4343(2) 0.4957(2) 0.0193(9) Uani 1 1 d . . . . .
O7 O 0.6500(6) 0.4065(2) 0.0215(2) 0.0354(9) Uani 1 1 d . . . . .
O8 O 0.9970(7) 0.0464(3) 0.0896(3) 0.0476(12) Uani 1 1 d . . . . .
N1 N 0.3468(6) 0.3733(2) 0.2600(2) 0.0203(9) Uani 1 1 d . . . . .
N4 N 0.9444(7) 0.1657(3) 0.1369(3) 0.0331(11) Uani 1 1 d . . . . .
N5 N 0.7602(7) 0.5181(3) 0.0599(3) 0.0284(10) Uani 1 1 d . . . . .
C9 C 0.2267(7) 0.5081(3) 0.2800(3) 0.0198(10) Uani 1 1 d . . . . .
C18 C 0.3852(7) 0.2922(3) 0.7041(3) 0.0191(10) Uani 1 1 d . . . . .
C2 C 0.4483(7) 0.1566(3) 0.1665(3) 0.0178(10) Uani 1 1 d . . . . .
C5 C 0.3822(7) 0.3020(3) 0.2266(3) 0.0191(10) Uani 1 1 d . . . . .
C15 C 0.3334(7) 0.3899(3) 0.5669(3) 0.0176(10) Uani 1 1 d . . . . .
C8 C 0.2558(7) 0.4445(3) 0.2297(3) 0.0196(10) Uani 1 1 d . . . . .
C13 C 0.2147(7) 0.5391(3) 0.3971(3) 0.0185(10) Uani 1 1 d . . . . .
C1 C 0.4785(7) 0.0793(3) 0.1345(3) 0.0186(10) Uani 1 1 d . . . . .
C7 C 0.4284(7) 0.2316(3) 0.1221(3) 0.0198(10) Uani 1 1 d . . . . .
H7 H 0.4374 0.2332 0.0715 0.024 Uiso 1 1 calc R U . . .
C10 C 0.1764(8) 0.5884(3) 0.2507(3) 0.0253(11) Uani 1 1 d . . . . .
H10 H 0.1635 0.6034 0.2003 0.030 Uiso 1 1 calc R U . . .
C17 C 0.3455(7) 0.3755(3) 0.6984(3) 0.0205(10) Uani 1 1 d . . . . .
H17 H 0.3356 0.3995 0.7411 0.025 Uiso 1 1 calc R U . . .
C6 C 0.3960(7) 0.3034(3) 0.1504(3) 0.0220(10) Uani 1 1 d . . . . .
H6 H 0.3832 0.3529 0.1193 0.026 Uiso 1 1 calc R U . . .
C14 C 0.2309(7) 0.5116(3) 0.4783(3) 0.0180(10) Uani 1 1 d . . . . .
C20 C 0.3739(8) 0.3053(3) 0.5718(3) 0.0231(11) Uani 1 1 d . . . . .
H20 H 0.3821 0.2811 0.5292 0.028 Uiso 1 1 calc R U . . .
C3 C 0.4411(7) 0.1558(3) 0.2431(3) 0.0208(10) Uani 1 1 d . . . . .
H3 H 0.4598 0.1064 0.2741 0.025 Uiso 1 1 calc R U . . .
C12 C 0.1627(7) 0.6205(3) 0.3720(3) 0.0235(11) Uani 1 1 d . . . . .
H12 H 0.1394 0.6579 0.4048 0.028 Uiso 1 1 calc R U . . .
C4 C 0.4069(8) 0.2271(3) 0.2726(3) 0.0220(10) Uani 1 1 d . . . . .
H4 H 0.4000 0.2255 0.3232 0.026 Uiso 1 1 calc R U . . .
C19 C 0.4016(8) 0.2579(3) 0.6387(3) 0.0248(11) Uani 1 1 d . . . . .
H19 H 0.4317 0.2020 0.6409 0.030 Uiso 1 1 calc R U . . .
C21 C 0.4119(8) 0.2408(3) 0.7772(3) 0.0242(11) Uani 1 1 d . . . . .
C11 C 0.1461(8) 0.6450(3) 0.2971(3) 0.0265(11) Uani 1 1 d . . . . .
H11 H 0.1146 0.6995 0.2786 0.032 Uiso 1 1 calc R U . . .
C16 C 0.3198(7) 0.4249(3) 0.6309(3) 0.0229(11) Uani 1 1 d . . . . .
H16 H 0.2937 0.4810 0.6288 0.027 Uiso 1 1 calc R U . . .
C25 C 0.7226(8) 0.4727(3) 0.0085(3) 0.0269(11) Uani 1 1 d . . . . .
H25 H 0.7528 0.4920 -0.0400 0.032 Uiso 1 1 calc R U . . .
N6 N 0.8399(9) 0.2989(5) 0.3886(4) 0.068(2) Uani 1 1 d . . . . .
C28 C 0.6798(9) 0.2994(5) 0.4199(4) 0.0475(18) Uani 1 1 d . . . . .
H28 H 0.6852 0.2739 0.4683 0.057 Uiso 1 1 calc R U . . .
C26 C 0.7094(10) 0.4927(5) 0.1364(3) 0.0463(17) Uani 1 1 d . . . . .
H26A H 0.8148 0.4987 0.1672 0.069 Uiso 1 1 calc R U . . .
H26B H 0.6794 0.4365 0.1429 0.069 Uiso 1 1 calc R U . . .
H26C H 0.6005 0.5261 0.1493 0.069 Uiso 1 1 calc R U . . .
C27 C 0.8323(10) 0.5986(4) 0.0401(4) 0.0450(16) Uani 1 1 d . . . . .
H27A H 0.9519 0.6002 0.0641 0.067 Uiso 1 1 calc R U . . .
H27B H 0.7423 0.6393 0.0553 0.067 Uiso 1 1 calc R U . . .
H27C H 0.8501 0.6093 -0.0121 0.067 Uiso 1 1 calc R U . . .
C29 C 1.0229(11) 0.2727(7) 0.4185(6) 0.080(3) Uani 1 1 d . . . . .
H29A H 1.0824 0.2320 0.3917 0.121 Uiso 1 1 calc R U . . .
H29B H 1.0097 0.2499 0.4691 0.121 Uiso 1 1 calc R U . . .
H29C H 1.1002 0.3186 0.4148 0.121 Uiso 1 1 calc R U . . .
C24 C 0.9276(17) 0.2181(8) 0.0702(7) 0.107(4) Uani 1 1 d . U . . .
H24A H 1.0407 0.2109 0.0413 0.160 Uiso 1 1 calc R U . . .
H24B H 0.9116 0.2737 0.0795 0.160 Uiso 1 1 calc R U . . .
H24C H 0.8190 0.2056 0.0440 0.160 Uiso 1 1 calc R U . . .
C22 C 0.9788(14) 0.0835(7) 0.1346(8) 0.087(3) Uani 1 1 d . U . . .
H22 H 0.9889 0.0525 0.1808 0.104 Uiso 1 1 calc R U . . .
C30 C 0.8471(14) 0.3547(7) 0.3138(6) 0.080(3) Uani 1 1 d . . . . .
H30A H 0.9310 0.3290 0.2811 0.120 Uiso 1 1 calc R U . . .
H30B H 0.8934 0.4061 0.3208 0.120 Uiso 1 1 calc R U . . .
H30C H 0.7215 0.3637 0.2932 0.120 Uiso 1 1 calc R U . . .
C23 C 0.9316(15) 0.1889(9) 0.2036(6) 0.104(4) Uani 1 1 d . U . . .
H23A H 0.8113 0.2189 0.2084 0.156 Uiso 1 1 calc R U . . .
H23B H 1.0332 0.2230 0.2097 0.156 Uiso 1 1 calc R U . . .
H23C H 0.9413 0.1415 0.2404 0.156 Uiso 1 1 calc R U . . .
O10 O 0.6829(6) 0.3019(3) 0.9197(3) 0.0463(12) Uani 1 1 d D . . . .
O11 O 1.0005(6) 0.2316(3) 0.8688(3) 0.0409(11) Uani 1 1 d D . . . .
H12A H 0.187(8) -0.057(4) 0.077(4) 0.061 Uiso 1 1 d D U . . .
H12B H 0.326(10) -0.082(4) 0.0264(18) 0.061 Uiso 1 1 d D U . . .
H1N H 0.398(8) 0.364(4) 0.309(3) 0.025(15) Uiso 1 1 d . . . . .
H3N H 0.353(8) 0.408(4) 0.461(3) 0.024(15) Uiso 1 1 d . . . . .
H11B H 1.098(8) 0.264(4) 0.863(5) 0.06(2) Uiso 1 1 d D . . . .
H11A H 0.899(7) 0.263(4) 0.882(4) 0.06(2) Uiso 1 1 d D . . . .
H10B H 0.564(5) 0.294(5) 0.906(5) 0.07(3) Uiso 1 1 d D . . . .
H10A H 0.674(15) 0.344(4) 0.945(5) 0.09(3) Uiso 1 1 d D . . . .
H13A H 0.715(9) -0.086(4) 0.0204(15) 0.028(16) Uiso 1 1 d D . . . .
H13B H 0.877(4) -0.096(15) 0.070(6) 0.31(13) Uiso 1 1 d D . . . .
loop_
_atom_site_aniso_label
_atom_site_aniso_U_11
_atom_site_aniso_U_22
_atom_site_aniso_U_33
_atom_site_aniso_U_23
_atom_site_aniso_U_13
_atom_site_aniso_U_12
Zn01 0.0256(3) 0.0161(3) 0.0126(3) -0.0024(2) -0.0011(2) 0.0001(2)
O5 0.044(2) 0.025(2) 0.0166(18) 0.0023(15) -0.0001(16) 0.0031(17)
O1 0.050(2) 0.0160(17) 0.0172(17) -0.0047(14) -0.0025(16) 0.0001(16)
O2 0.0303(19) 0.0221(18) 0.0154(17) -0.0065(14) -0.0013(14) -0.0008(15)
O4 0.039(2) 0.0210(18) 0.0237(19) -0.0102(15) -0.0007(16) 0.0027(16)
O9 0.028(2) 0.043(2) 0.0207(19) -0.0096(16) -0.0026(16) 0.0052(17)
O3 0.041(2) 0.032(2) 0.0176(18) -0.0043(15) -0.0045(16) 0.0078(17)
O6 0.035(2) 0.037(2) 0.0175(18) -0.0080(16) 0.0010(16) -0.0046(17)
O12 0.040(2) 0.038(2) 0.035(2) -0.0020(19) -0.0024(19) -0.0024(19)
O13 0.040(3) 0.047(3) 0.032(2) 0.000(2) -0.0036(19) 0.004(2)
N2 0.019(2) 0.0159(19) 0.016(2) -0.0017(15) 0.0006(16) -0.0001(16)
N3 0.024(2) 0.015(2) 0.019(2) -0.0045(17) -0.0018(17) 0.0037(16)
O7 0.046(2) 0.035(2) 0.028(2) -0.0095(17) 0.0021(18) -0.0095(19)
O8 0.038(3) 0.032(2) 0.076(4) -0.018(2) 0.003(2) -0.0021(19)
N1 0.027(2) 0.018(2) 0.017(2) -0.0053(16) -0.0012(17) 0.0013(17)
N4 0.028(3) 0.040(3) 0.032(3) -0.008(2) -0.005(2) -0.003(2)
N5 0.027(2) 0.030(2) 0.030(2) -0.0077(19) -0.0002(19) -0.0042(19)
C9 0.020(2) 0.019(2) 0.019(2) 0.0002(19) -0.0001(19) 0.0001(19)
C18 0.018(2) 0.023(2) 0.016(2) -0.0034(19) 0.0004(18) -0.0025(19)
C2 0.021(2) 0.019(2) 0.015(2) -0.0070(18) 0.0022(18) -0.0030(19)
C5 0.019(2) 0.022(2) 0.018(2) -0.0063(19) 0.0004(19) -0.0028(19)
C15 0.019(2) 0.018(2) 0.016(2) -0.0016(18) -0.0006(18) -0.0017(18)
C8 0.021(2) 0.021(2) 0.017(2) -0.0007(19) -0.0009(19) -0.0012(19)
C13 0.018(2) 0.019(2) 0.020(2) -0.0032(19) -0.0014(19) -0.0023(18)
C1 0.017(2) 0.023(2) 0.017(2) -0.0070(19) -0.0038(18) -0.0035(19)
C7 0.024(3) 0.025(3) 0.011(2) -0.0047(19) -0.0002(19) -0.006(2)
C10 0.030(3) 0.025(3) 0.020(3) 0.001(2) -0.001(2) -0.002(2)
C17 0.025(3) 0.023(3) 0.014(2) -0.0067(19) -0.0003(19) -0.003(2)
C6 0.029(3) 0.020(2) 0.016(2) 0.0000(19) 0.003(2) -0.001(2)
C14 0.017(2) 0.016(2) 0.021(2) -0.0042(19) -0.0014(19) -0.0003(18)
C20 0.034(3) 0.020(2) 0.016(2) -0.0045(19) 0.001(2) -0.002(2)
C3 0.031(3) 0.016(2) 0.014(2) -0.0004(18) 0.000(2) 0.000(2)
C12 0.025(3) 0.021(3) 0.025(3) -0.005(2) 0.000(2) 0.002(2)
C4 0.032(3) 0.023(3) 0.011(2) -0.0016(19) 0.001(2) -0.002(2)
C19 0.037(3) 0.018(2) 0.020(3) -0.005(2) -0.002(2) -0.002(2)
C21 0.029(3) 0.025(3) 0.019(3) -0.001(2) 0.001(2) -0.006(2)
C11 0.034(3) 0.015(2) 0.028(3) 0.002(2) -0.002(2) 0.003(2)
C16 0.027(3) 0.021(2) 0.022(3) -0.007(2) -0.004(2) 0.004(2)
C25 0.028(3) 0.029(3) 0.023(3) -0.005(2) 0.000(2) 0.001(2)
N6 0.031(3) 0.096(6) 0.093(5) -0.069(5) -0.004(3) 0.003(3)
C28 0.031(4) 0.062(4) 0.057(4) -0.040(4) -0.010(3) 0.011(3)
C26 0.046(4) 0.069(5) 0.029(3) -0.021(3) 0.004(3) -0.013(3)
C27 0.036(3) 0.030(3) 0.071(5) -0.015(3) 0.002(3) -0.002(3)
C29 0.034(4) 0.119(9) 0.093(7) -0.041(6) -0.011(4) 0.012(5)
C24 0.085(6) 0.114(7) 0.109(7) 0.029(6) -0.013(6) -0.013(6)
C22 0.050(5) 0.091(6) 0.119(7) -0.018(6) 0.002(5) 0.000(5)
C30 0.069(6) 0.094(7) 0.080(7) -0.021(6) 0.032(5) -0.025(5)
C23 0.066(6) 0.171(9) 0.088(6) -0.055(6) -0.002(5) -0.017(6)
O10 0.029(2) 0.062(3) 0.055(3) -0.033(3) -0.005(2) 0.002(2)
O11 0.034(2) 0.023(2) 0.065(3) -0.003(2) 0.005(2) 0.0017(18)
loop_
_atom_type_symbol
_atom_type_description
_atom_type_scat_dispersion_real
_atom_type_scat_dispersion_imag
_atom_type_scat_source
C C 0.0033 0.0016 'International Tables Vol C Tables 4.2.6.8 and 6.1.1.4'
H H 0.0000 0.0000 'International Tables Vol C Tables 4.2.6.8 and 6.1.1.4'
N N 0.0061 0.0033 'International Tables Vol C Tables 4.2.6.8 and 6.1.1.4'
O O 0.0106 0.0060 'International Tables Vol C Tables 4.2.6.8 and 6.1.1.4'
Zn Zn 0.2839 1.4301 'International Tables Vol C Tables 4.2.6.8 and 6.1.1.4'
loop_
_geom_angle_atom_site_label_1
_geom_angle_atom_site_label_2
_geom_angle_atom_site_label_3
_geom_angle
_geom_angle_site_symmetry_1
_geom_angle_site_symmetry_3
_geom_angle_publ_flag
O5 Zn01 O1 97.17(15) 2_656 . ?
O5 Zn01 O13 115.75(17) 2_656 . ?
O1 Zn01 O13 111.43(18) . . ?
O5 Zn01 O12 112.33(17) 2_656 . ?
O1 Zn01 O12 110.74(17) . . ?
O13 Zn01 O12 108.98(18) . . ?
C21 O5 Zn01 121.2(3) . 2_656 ?
C1 O1 Zn01 113.7(3) . . ?
Zn01 O12 H12A 117(5) . . ?
Zn01 O12 H12B 104(5) . . ?
H12A O12 H12B 101(4) . . ?
Zn01 O13 H13A 111(4) . . ?
Zn01 O13 H13B 141(7) . . ?
H13A O13 H13B 107(5) . . ?
C13 N2 C9 117.5(4) . . ?
C14 N3 C15 126.4(4) . . ?
C14 N3 H3N 119(4) . . ?
C15 N3 H3N 114(4) . . ?
C8 N1 C5 126.7(4) . . ?
C8 N1 H1N 124(3) . . ?
C5 N1 H1N 109(3) . . ?
C23 N4 C22 116.6(9) . . ?
C23 N4 C24 125.4(10) . . ?
C22 N4 C24 117.9(9) . . ?
C25 N5 C27 120.9(5) . . ?
C25 N5 C26 120.7(5) . . ?
C27 N5 C26 118.1(5) . . ?
N2 C9 C10 123.2(5) . . ?
N2 C9 C8 117.4(4) . . ?
C10 C9 C8 119.5(4) . . ?
C17 C18 C19 117.6(4) . . ?
C17 C18 C21 120.9(4) . . ?
C19 C18 C21 121.5(5) . . ?
C7 C2 C3 117.9(4) . . ?
C7 C2 C1 121.1(4) . . ?
C3 C2 C1 120.9(4) . . ?
C4 C5 C6 119.2(4) . . ?
C4 C5 N1 117.7(4) . . ?
C6 C5 N1 123.1(4) . . ?
C16 C15 C20 119.0(4) . . ?
C16 C15 N3 124.2(4) . . ?
C20 C15 N3 116.8(4) . . ?
O3 C8 N1 124.9(5) . . ?
O3 C8 C9 120.1(4) . . ?
N1 C8 C9 115.0(4) . . ?
N2 C13 C12 122.7(4) . . ?
N2 C13 C14 118.2(4) . . ?
C12 C13 C14 119.0(4) . . ?
O2 C1 O1 123.4(4) . . ?
O2 C1 C2 120.2(4) . . ?
O1 C1 C2 116.3(4) . . ?
C6 C7 C2 122.1(4) . . ?
C6 C7 H7 119.0 . . ?
C2 C7 H7 119.0 . . ?
C11 C10 C9 118.8(5) . . ?
C11 C10 H10 120.6 . . ?
C9 C10 H10 120.6 . . ?
C18 C17 C16 122.1(5) . . ?
C18 C17 H17 118.9 . . ?
C16 C17 H17 118.9 . . ?
C7 C6 C5 119.7(5) . . ?
C7 C6 H6 120.2 . . ?
C5 C6 H6 120.2 . . ?
O4 C14 N3 126.0(5) . . ?
O4 C14 C13 120.6(4) . . ?
N3 C14 C13 113.4(4) . . ?
C19 C20 C15 120.5(5) . . ?
C19 C20 H20 119.7 . . ?
C15 C20 H20 119.7 . . ?
C4 C3 C2 120.8(4) . . ?
C4 C3 H3 119.6 . . ?
C2 C3 H3 119.6 . . ?
C11 C12 C13 118.6(5) . . ?
C11 C12 H12 120.7 . . ?
C13 C12 H12 120.7 . . ?
C3 C4 C5 120.2(4) . . ?
C3 C4 H4 119.9 . . ?
C5 C4 H4 119.9 . . ?
C20 C19 C18 121.2(5) . . ?
C20 C19 H19 119.4 . . ?
C18 C19 H19 119.4 . . ?
O6 C21 O5 124.3(5) . . ?
O6 C21 C18 119.8(5) . . ?
O5 C21 C18 115.8(4) . . ?
C10 C11 C12 119.2(5) . . ?
C10 C11 H11 120.4 . . ?
C12 C11 H11 120.4 . . ?
C15 C16 C17 119.5(5) . . ?
C15 C16 H16 120.2 . . ?
C17 C16 H16 120.2 . . ?
O7 C25 N5 123.7(5) . . ?
O7 C25 H25 118.2 . . ?
N5 C25 H25 118.2 . . ?
C28 N6 C29 129.3(9) . . ?
C28 N6 C30 115.0(7) . . ?
C29 N6 C30 113.5(8) . . ?
O9 C28 N6 134.3(8) . . ?
O9 C28 H28 112.9 . . ?
N6 C28 H28 112.9 . . ?
N5 C26 H26A 109.5 . . ?
N5 C26 H26B 109.5 . . ?
H26A C26 H26B 109.5 . . ?
N5 C26 H26C 109.5 . . ?
H26A C26 H26C 109.5 . . ?
H26B C26 H26C 109.5 . . ?
N5 C27 H27A 109.5 . . ?
N5 C27 H27B 109.5 . . ?
H27A C27 H27B 109.5 . . ?
N5 C27 H27C 109.5 . . ?
H27A C27 H27C 109.5 . . ?
H27B C27 H27C 109.5 . . ?
N6 C29 H29A 109.5 . . ?
N6 C29 H29B 109.5 . . ?
H29A C29 H29B 109.5 . . ?
N6 C29 H29C 109.5 . . ?
H29A C29 H29C 109.5 . . ?
H29B C29 H29C 109.5 . . ?
N4 C24 H24A 109.5 . . ?
N4 C24 H24B 109.5 . . ?
H24A C24 H24B 109.5 . . ?
N4 C24 H24C 109.5 . . ?
H24A C24 H24C 109.5 . . ?
H24B C24 H24C 109.5 . . ?
O8 C22 N4 133.7(12) . . ?
O8 C22 H22 113.2 . . ?
N4 C22 H22 113.2 . . ?
N6 C30 H30A 109.5 . . ?
N6 C30 H30B 109.5 . . ?
H30A C30 H30B 109.5 . . ?
N6 C30 H30C 109.5 . . ?
H30A C30 H30C 109.5 . . ?
H30B C30 H30C 109.5 . . ?
N4 C23 H23A 109.5 . . ?
N4 C23 H23B 109.5 . . ?
H23A C23 H23B 109.5 . . ?
N4 C23 H23C 109.5 . . ?
H23A C23 H23C 109.5 . . ?
H23B C23 H23C 109.5 . . ?
H10B O10 H10A 107(8) . . ?
H11B O11 H11A 105(7) . . ?
loop_
_geom_bond_atom_site_label_1
_geom_bond_atom_site_label_2
_geom_bond_distance
_geom_bond_site_symmetry_2
_geom_bond_publ_flag
Zn01 O5 1.963(3) 2_656 ?
Zn01 O1 1.964(3) . ?
Zn01 O13 2.005(5) . ?
Zn01 O12 2.014(4) . ?
O5 C21 1.283(6) . ?
O5 Zn01 1.963(3) 2_656 ?
O1 C1 1.286(6) . ?
O2 C1 1.249(6) . ?
O4 C14 1.218(6) . ?
O9 C28 1.183(7) . ?
O3 C8 1.233(6) . ?
O6 C21 1.244(6) . ?
O12 H12A 0.92(2) . ?
O12 H12B 0.92(2) . ?
O13 H13A 0.91(2) . ?
O13 H13B 0.90(2) . ?
N2 C13 1.339(6) . ?
N2 C9 1.339(6) . ?
N3 C14 1.360(6) . ?
N3 C15 1.415(6) . ?
N3 H3N 0.86(6) . ?
O7 C25 1.235(7) . ?
O8 C22 1.101(12) . ?
N1 C8 1.352(6) . ?
N1 C5 1.415(6) . ?
N1 H1N 0.96(6) . ?
N4 C23 1.339(11) . ?
N4 C22 1.374(13) . ?
N4 C24 1.401(12) . ?
N5 C25 1.332(7) . ?
N5 C27 1.457(8) . ?
N5 C26 1.459(8) . ?
C9 C10 1.386(7) . ?
C9 C8 1.503(7) . ?
C18 C17 1.379(7) . ?
C18 C19 1.404(7) . ?
C18 C21 1.491(7) . ?
C2 C7 1.386(7) . ?
C2 C3 1.410(7) . ?
C2 C1 1.487(7) . ?
C5 C4 1.399(7) . ?
C5 C6 1.402(7) . ?
C15 C16 1.387(7) . ?
C15 C20 1.401(7) . ?
C13 C12 1.387(7) . ?
C13 C14 1.503(7) . ?
C7 C6 1.372(7) . ?
C7 H7 0.9300 . ?
C10 C11 1.361(8) . ?
C10 H10 0.9300 . ?
C17 C16 1.394(7) . ?
C17 H17 0.9300 . ?
C6 H6 0.9300 . ?
C20 C19 1.373(7) . ?
C20 H20 0.9300 . ?
C3 C4 1.376(7) . ?
C3 H3 0.9300 . ?
C12 C11 1.387(7) . ?
C12 H12 0.9300 . ?
C4 H4 0.9300 . ?
C19 H19 0.9300 . ?
C11 H11 0.9300 . ?
C16 H16 0.9300 . ?
C25 H25 0.9300 . ?
N6 C28 1.258(10) . ?
N6 C29 1.421(10) . ?
N6 C30 1.546(13) . ?
C28 H28 0.9300 . ?
C26 H26A 0.9600 . ?
C26 H26B 0.9600 . ?
C26 H26C 0.9600 . ?
C27 H27A 0.9600 . ?
C27 H27B 0.9600 . ?
C27 H27C 0.9600 . ?
C29 H29A 0.9600 . ?
C29 H29B 0.9600 . ?
C29 H29C 0.9600 . ?
C24 H24A 0.9600 . ?
C24 H24B 0.9600 . ?
C24 H24C 0.9600 . ?
C22 H22 0.9300 . ?
C30 H30A 0.9600 . ?
C30 H30B 0.9600 . ?
C30 H30C 0.9600 . ?
C23 H23A 0.9600 . ?
C23 H23B 0.9600 . ?
C23 H23C 0.9600 . ?
O10 H10B 0.90(2) . ?
O10 H10A 0.90(2) . ?
O11 H11B 0.90(2) . ?
O11 H11A 0.90(2) . ?
loop_
_geom_hbond_atom_site_label_D
_geom_hbond_atom_site_label_H
_geom_hbond_atom_site_label_A
_geom_hbond_distance_DH
_geom_hbond_distance_HA
_geom_hbond_distance_DA
_geom_hbond_angle_DHA
_geom_hbond_site_symmetry_A
C6 H6 O3 0.93 2.37 2.895(6) 115.3 .
C20 H20 O9 0.93 2.57 3.272(6) 132.8 .
C4 H4 O9 0.93 2.55 3.214(6) 128.7 .
C16 H16 O4 0.93 2.31 2.889(6) 119.7 .
C25 H25 O3 0.93 2.38 3.307(7) 175.3 2_665
O12 H12B O2 0.92(2) 2.14(3) 3.009(6) 157(6) 2_655
O12 H12A O8 0.92(2) 2.14(3) 3.044(6) 169(7) 1_455
N1 H1N O9 0.96(6) 1.94(6) 2.888(6) 169(5) .
N3 H3N O9 0.86(6) 2.17(6) 2.993(6) 161(5) .
O11 H11B O6 0.90(2) 2.06(5) 2.835(6) 145(7) 1_655
O11 H11A O10 0.90(2) 1.78(3) 2.666(6) 166(8) .
O10 H10B O6 0.90(2) 1.96(5) 2.789(6) 152(8) .
O10 H10A O7 0.90(2) 1.86(4) 2.730(6) 162(10) 1_556
O13 H13A O2 0.91(2) 2.15(3) 2.995(6) 154(5) 2_655
O13 H13B O11 0.90(2) 2.5(2) 2.960(6) 115(17) 2_756
