#------------------------------------------------------------------------------
#$Date: 2020-10-06 11:42:23 +0300 (Tue, 06 Oct 2020) $
#$Revision: 257522 $
#$URL: file:///home/coder/svn-repositories/cod/cif/7/70/47/7704729.cif $
#------------------------------------------------------------------------------
#
# This file is available in the Crystallography Open Database (COD),
# http://www.crystallography.net/
#
# All data on this site have been placed in the public domain by the
# contributors.
#
data_7704729
loop_
_publ_author_name
'Xu, Xuebin'
'Liu, Meiying'
'Liu, Zhiliang'
_publ_section_title
;
 Crystal structures and the ferroelectric properties of homochiral
 metal-organic frameworks constructed from a single chiral ligand.
;
_journal_issue                   30
_journal_name_full
'Dalton transactions (Cambridge, England : 2003)'
_journal_page_first              10402
_journal_page_last               10406
_journal_paper_doi               10.1039/d0dt01323d
_journal_volume                  49
_journal_year                    2020
_chemical_absolute_configuration unk
_chemical_formula_moiety         'C28 H30 Co N4 O6, 2[H2O]'
_chemical_formula_sum            'C28 H34 Co N4 O8'
_chemical_formula_weight         613.537
_space_group_crystal_system      triclinic
_space_group_IT_number           1
_space_group_name_Hall           'P 1'
_space_group_name_H-M_alt        'P 1'
_symmetry_Int_Tables_number      1
_audit_creation_date             2020-06-16
_audit_creation_method
;
Olex2 1.3-dev
(compiled 2020.05.13 svn.r35546bd3 for OlexSys, GUI svn.r5830)
;
_audit_update_record
;
2020-06-24 deposited with the CCDC.	2020-06-29 downloaded from the CCDC.
;
_cell_angle_alpha                82.245(1)
_cell_angle_beta                 80.476(1)
_cell_angle_gamma                81.335(1)
_cell_formula_units_Z            1
_cell_length_a                   6.2526(4)
_cell_length_b                   9.2824(6)
_cell_length_c                   13.0984(8)
_cell_measurement_reflns_used    8530
_cell_measurement_temperature    273(2)
_cell_measurement_theta_max      28.2855
_cell_measurement_theta_min      2.586
_cell_volume                     736.45(8)
_computing_cell_refinement       'Bruker SAINT'
_computing_data_collection       'Bruker APEX2'
_computing_data_reduction        'Bruker SAINT'
_computing_molecular_graphics    'Olex2 1.3-dev (Dolomanov et al., 2009)'
_computing_publication_material  'Olex2 1.3-dev (Dolomanov et al., 2009)'
_computing_structure_refinement  'olex2.refine 1.3-dev (Bourhis et al., 2015)'
_diffrn_ambient_temperature      273(2)
_diffrn_measured_fraction_theta_full 0.9989
_diffrn_measured_fraction_theta_max 0.9989
_diffrn_measurement_device_type  'CCD area detector'
_diffrn_measurement_method       'phi and omega scans'
_diffrn_radiation_type           'Mo K\a'
_diffrn_radiation_wavelength     0.71073
_diffrn_reflns_av_R_equivalents  0.0147
_diffrn_reflns_av_unetI/netI     0.0479
_diffrn_reflns_Laue_measured_fraction_full 0.9989
_diffrn_reflns_Laue_measured_fraction_max 0.9989
_diffrn_reflns_limit_h_max       8
_diffrn_reflns_limit_h_min       -8
_diffrn_reflns_limit_k_max       12
_diffrn_reflns_limit_k_min       -12
_diffrn_reflns_limit_l_max       17
_diffrn_reflns_limit_l_min       -17
_diffrn_reflns_number            10247
_diffrn_reflns_point_group_measured_fraction_full 0.9725
_diffrn_reflns_point_group_measured_fraction_max 0.9741
_diffrn_reflns_theta_full        25.2417
_diffrn_reflns_theta_max         28.34
_diffrn_reflns_theta_min         1.59
_exptl_absorpt_coefficient_mu    0.637
_exptl_absorpt_correction_T_max  0.9395
_exptl_absorpt_correction_T_min  0.8331
_exptl_absorpt_correction_type   multi-scan
_exptl_crystal_colour            red
_exptl_crystal_colour_primary    red
_exptl_crystal_density_diffrn    1.383
_exptl_crystal_description       block
_exptl_crystal_F_000             321.527
_exptl_crystal_size_max          0.3
_exptl_crystal_size_mid          0.2
_exptl_crystal_size_min          0.1
_refine_diff_density_max         0.1913
_refine_diff_density_min         -0.1790
_refine_diff_density_rms         0.0335
_refine_ls_abs_structure_details
'Flack, H. D. (1983). Acta Cryst. A39, 876-881.'
_refine_ls_abs_structure_Flack   -0.023(11)
_refine_ls_d_res_high            0.7486
_refine_ls_d_res_low             12.8354
_refine_ls_extinction_expression Fc^*^=kFc[1+0.001xFc^2^\l^3^/sin(2\q)]^-1/4^
_refine_ls_goodness_of_fit_ref   0.9666
_refine_ls_hydrogen_treatment    mixed
_refine_ls_matrix_type           full
_refine_ls_number_constraints    55
_refine_ls_number_parameters     359
_refine_ls_number_reflns         7177
_refine_ls_number_restraints     8
_refine_ls_restrained_S_all      0.9663
_refine_ls_R_factor_all          0.0232
_refine_ls_R_factor_gt           0.0225
_refine_ls_shift/su_max          0.0003
_refine_ls_shift/su_mean         0.0000
_refine_ls_structure_factor_coef Fsqd
_refine_ls_weighting_details
'w=1/[\s^2^(Fo^2^)+(0.0000P)^2^] where P=(Fo^2^+2Fc^2^)/3'
_refine_ls_weighting_scheme      calc
_refine_ls_wR_factor_gt          0.0523
_refine_ls_wR_factor_ref         0.0526
_reflns_Friedel_coverage         0.949
_reflns_limit_h_max              8
_reflns_limit_h_min              -8
_reflns_limit_k_max              12
_reflns_limit_k_min              -12
_reflns_limit_l_max              17
_reflns_limit_l_min              -17
_reflns_number_gt                7009
_reflns_number_total             7177
_reflns_threshold_expression     I>=2u(I)
_iucr_refine_instructions_details
;
TITL 2 in P1
CELL 0.71073 6.2526 9.2824 13.0984 82.245 80.476 81.335
ZERR 1 0.0004 0.0006 0.0008 0.001 0.001 0.001
LATT -1
SFAC C Co H N O
UNIT 28 1 34 4 8
DFIX 0.85 O5 H5a O5 H5b
DANG 1.34 H5a H5b
SADI Co1 H5a Co1 H5b

L.S. 26
PLAN  5
SIZE 0.1 0.2 0.3
TEMP 0(2)
CONF
BOND 
HTAB 
MORE -1
BOND $H
ABIN 
fmap 2
acta 
EXTI 0.019259
OMIT 0 -1 0
WGHT 0 0
FVAR 4.088473
REM <olex2.extras>
REM <selected_cif_records
REM  <bonds
REM   <row "$M">
REM   <row "$* $M $*">
REM  >
REM >
REM <HklSrc "%.\\Co-MOF-1_NO_SQUEEZE.hkl">
REM </olex2.extras>

Co1   2     0.82480  0.42336  1.13479  11.00000  0.02110  0.01375  0.02302 =
 -0.00232 -0.00301 -0.00298 
N1    4     0.80369  1.19317  1.16262  11.00000  0.03235  0.01912  0.03350 =
 -0.00457 -0.00280 -0.00336 
N2    4     0.83113  0.66163  1.10430  11.00000  0.01943  0.01761  0.02611 =
 -0.00160 -0.00423 -0.00444 
AFIX 13
H2    3     0.96473  0.67888  1.06921  11.00000 -1.20000 
AFIX 0
N3    4     0.95418  0.38733  0.97306  11.00000  0.03973  0.02925  0.02921 =
 -0.00719 -0.00432 -0.00484 
N4    4     1.17709  0.18898  0.61942  11.00000  0.06569  0.04677  0.02407 =
 -0.00731 -0.00394 -0.00556 
AFIX 3
H4    3     1.04369  0.16199  0.63125  11.00000 -1.20000 
AFIX 0
O1    5     0.51505  0.49804  1.09702  11.00000  0.02314  0.02575  0.03840 =
 0.00035 -0.00361 -0.00761 
O2    5     0.29362  0.69292  1.04120  11.00000  0.02149  0.03792  0.06135 =
 -0.00437 -0.01098 -0.00178 
O3    5     0.94107  0.30446  0.44837  11.00000  0.03712  0.08533  0.04189 =
 0.01024 -0.00448 -0.00059 
O4    5     1.26004  0.35389  0.35815  11.00000  0.04382  0.07160  0.03050 =
 0.00819 -0.00558 -0.01693 
O5    5     1.12829  0.39616  1.17792  11.00000  0.02588  0.03892  0.02872 =
 0.00607 -0.00635 -0.01070 
H5a   3     1.23704  0.43047  1.14697  11.00000 -1.50000 
H5b   3     1.14619  0.38884  1.24177  11.00000 -1.50000 
O6    5     0.68657  0.42956  1.29968  11.00000  0.03098  0.02905  0.03097 =
 0.00017 -0.00323 -0.00636 
AFIX 3
H6a   3     0.56933  0.39021  1.31255  11.00000 -1.20000 
H6b   3     0.77525  0.38521  1.33623  11.00000 -1.50000 
AFIX 0
C1    1     0.84410  0.31535  0.92121  11.00000  0.05364  0.04741  0.03597 =
 -0.01141 -0.00248 -0.01848 
AFIX 43
H1    3     0.71869  0.27848  0.95663  11.00000 -1.20000 
AFIX 0
C2    1     1.13434  0.43627  0.92028  11.00000  0.04521  0.04598  0.03546 =
 -0.01454  0.00103 -0.01350 
AFIX 43
H2a   3     1.21527  0.48452  0.95512  11.00000 -1.20000 
AFIX 0
C3    1     1.20804  0.41971  0.81716  11.00000  0.05574  0.05361  0.03763 =
 -0.01014  0.00903 -0.01669 
AFIX 43
H3    3     1.33473  0.45715  0.78405  11.00000 -1.20000 
AFIX 0
C4    1     1.09365  0.34725  0.76248  11.00000  0.08135  0.03948  0.02802 =
 -0.00568 -0.00163 -0.00834 
C5    1     0.90779  0.29323  0.81762  11.00000  0.08272  0.05623  0.03737 =
 -0.01552 -0.01132 -0.02673 
AFIX 43
H5    3     0.82622  0.24228  0.78505  11.00000 -1.20000 
AFIX 0
C6    1     1.16193  0.33816  0.64725  11.00000  0.12611  0.04992  0.03140 =
 -0.01009  0.00489 -0.02244 
AFIX 23
H6c   3     1.30300  0.37304  0.62593  11.00000 -1.20000 
H6d   3     1.05686  0.40217  0.60941  11.00000 -1.20000 
AFIX 0
C7    1     1.26867  0.18117  0.50924  11.00000  0.04080  0.04950  0.02366 =
 -0.00558 -0.00467 -0.00218 
AFIX 13
H7    3     1.41848  0.20531  0.49985  11.00000 -1.20000 
AFIX 0
C8    1     1.14475  0.28942  0.43323  11.00000  0.03845  0.04942  0.02360 =
 -0.00751 -0.00251 -0.00435 
C9    1     1.28284  0.02362  0.48458  11.00000  0.05536  0.05248  0.02155 =
 -0.00455  0.00323 -0.00206 
C10   1     1.46173 -0.07774  0.50463  11.00000  0.07103  0.06607  0.05592 =
 -0.01365 -0.01631  0.00987 
AFIX 43
H10   3     1.57340 -0.04824  0.53251  11.00000 -1.20000 
AFIX 0
C11   1     1.47831 -0.22006  0.48448  11.00000  0.10523  0.06160  0.07182 =
 -0.01189 -0.00967  0.02244 
AFIX 43
H11   3     1.60064 -0.28548  0.49866  11.00000 -1.20000 
AFIX 0
C12   1     1.31707 -0.26720  0.44371  11.00000  0.13472  0.06148  0.04366 =
 -0.00649  0.00665 -0.01514 
AFIX 43
H12   3     1.32890 -0.36418  0.43032  11.00000 -1.20000 
AFIX 0
C13   1     1.13662 -0.16932  0.42267  11.00000  0.10321  0.06955  0.05024 =
 -0.01390 -0.00326 -0.03445 
AFIX 43
H13   3     1.02522 -0.20078  0.39576  11.00000 -1.20000 
AFIX 0
C14   1     1.12027 -0.02471  0.44132  11.00000  0.06534  0.06329  0.04076 =
 -0.00828 -0.00927 -0.01311 
AFIX 43
H14   3     0.99989  0.04104  0.42492  11.00000 -1.20000 
AFIX 0
C15   1     0.98680  1.09936  1.14073  11.00000  0.03008  0.02505  0.05706 =
 -0.00918  0.00044 -0.00751 
AFIX 43
H15   3     1.11690  1.13751  1.11492  11.00000 -1.20000 
AFIX 0
C16   1     0.99018  0.94937  1.15483  11.00000  0.03158  0.02214  0.06453 =
 -0.00973 -0.00696  0.00022 
AFIX 43
H16   3     1.12049  0.88860  1.13834  11.00000 -1.20000 
AFIX 0
C17   1     0.80001  0.88928  1.19345  11.00000  0.03833  0.01885  0.02930 =
 -0.00447 -0.00917 -0.00489 
C18   1     0.61251  0.98539  1.21851  11.00000  0.03507  0.02486  0.03993 =
 -0.00603  0.00645 -0.00957 
AFIX 43
H18   3     0.48126  0.94972  1.24602  11.00000 -1.20000 
AFIX 0
C19   1     0.62152  1.13508  1.20238  11.00000  0.03228  0.02241  0.04902 =
 -0.00897  0.00281 -0.00186 
AFIX 43
H19   3     0.49417  1.19802  1.22017  11.00000 -1.20000 
AFIX 0
C20   1     0.79585  0.72506  1.20573  11.00000  0.04363  0.01936  0.02817 =
 -0.00244 -0.00597 -0.00753 
AFIX 23
H20a  3     0.65574  0.70364  1.24427  11.00000 -1.20000 
H20b  3     0.90850  0.67766  1.24640  11.00000 -1.20000 
AFIX 0
C21   1     0.47440  0.63263  1.06094  11.00000  0.02187  0.02667  0.02692 =
 -0.00596 -0.00188 -0.00336 
C22   1     0.66297  0.72584  1.03874  11.00000  0.02369  0.01837  0.02994 =
 -0.00158 -0.00497 -0.00254 
AFIX 13
H22   3     0.60474  0.82355  1.05915  11.00000 -1.20000 
AFIX 0
C23   1     0.75575  0.74408  0.92334  11.00000  0.03144  0.03097  0.03122 =
 0.00671 -0.00571 -0.00197 
C24   1     0.92855  0.82676  0.89016  11.00000  0.04816  0.05676  0.04806 =
 0.01558 -0.00621 -0.01972 
AFIX 43
H24   3     0.98570  0.86827  0.93878  11.00000 -1.20000 
AFIX 0
C25   1     1.01582  0.84775  0.78600  11.00000  0.06499  0.08551  0.05961 =
 0.03018  0.00724 -0.02030 
AFIX 43
H25   3     1.12849  0.90507  0.76474  11.00000 -1.20000 
AFIX 0
C26   1     0.93640  0.78418  0.71417  11.00000  0.09022  0.10019  0.03749 =
 0.02098  0.01229 -0.00482 
AFIX 43
H26   3     0.99877  0.79534  0.64448  11.00000 -1.20000 
AFIX 0
C27   1     0.76686  0.70492  0.74447  11.00000  0.11155  0.09370  0.03375 =
 -0.00440 -0.01155 -0.01795 
AFIX 43
H27   3     0.71109  0.66381  0.69519  11.00000 -1.20000 
AFIX 0
C28   1     0.67579  0.68481  0.84917  11.00000  0.06236  0.05999  0.03431 =
 -0.00126 -0.00867 -0.01588 
AFIX 43
H28   3     0.55930  0.63049  0.86903  11.00000 -1.20000 
AFIX 0
HKLF 4

END
Q1 1 0.541667 0.09375 0.733333 11 0.05 0.19
Q2 1 0.833333 0.46875 1.177778 11 0.05 0.17
Q3 1 0.791667 0.46875 1.088889 11 0.05 0.16
Q4 1 0.708333 0.71875 0.977778 11 0.05 0.16
Q5 1 0.583333 0.65625 1.044444 11 0.05 0.16

  REM The information below was added by Olex2.
  REM
  REM R1 = 0.0225 for 7009 Fo > 4sig(Fo) and 0.0232 for all 7177 data
  REM 359 parameters refined using 8 restraints
  REM Highest difference peak 0.1913, deepest hole -0.1790
  REM Mean Shift 0.0000, Max Shift 0.0003.

  REM +++ Tabular Listing of Refinement Information +++
  REM R1_all = 0.0232
  REM R1_gt = 0.0225
  REM wR_ref = 0.0526
  REM GOOF = 0.9666
  REM Shift_max = 0.0003
  REM Shift_mean = 0.0000
  REM Reflections_all = 7177
  REM Reflections_gt = 7009
  REM Parameters = 359
  REM Hole = -0.1790
  REM Peak = 0.1913
  REM Flack = -0.023(11)

  
;
_cod_data_source_file            d0dt01323d2.cif
_cod_data_source_block           Co-MOF-1
_cod_depositor_comments
;Adding full bibliography for 7704728--7704729.cif.

 Adding full bibliography for 7704728--7704729.cif.
;
_cod_original_sg_symbol_Hall     ' P 1'
_cod_original_formula_sum        'C28 Co1 H34 N4 O8 '
_cod_database_code               7704729
_olex2_refinement_description
;
1. Fixed Uiso
 At 1.2 times of:
  All C(H) groups, H6a of O6, All C(H,H) groups, All N(H) groups
 At 1.5 times of:
  All O(H,H) groups, H6b of O6
2. Restrained distances
 O5-H5a = O5-H5b
 0.85 with sigma of 0.02
 H5a-H5b
 1.34 with sigma of 0.04
 Co1-H5a \\sim Co1-H5b
 with sigma of 0.02
3.a Riding coordinates:
 N4(H4), O6(H6a,H6b)
3.b Ternary CH refined with riding coordinates:
 N2(H2), C7(H7), C22(H22)
3.c Secondary CH2 refined with riding coordinates:
 C6(H6c,H6d), C20(H20a,H20b)
3.d Aromatic/amide H refined with riding coordinates:
 C1(H1), C2(H2a), C3(H3), C5(H5), C10(H10), C11(H11), C12(H12), C13(H13),
 C14(H14), C15(H15), C16(H16), C18(H18), C19(H19), C24(H24), C25(H25), C26(H26),
  C27(H27), C28(H28)
;
_smtbx_masks_special_details
;
A solvent mask was calculated and 17 electrons were 
found in a volume of 88\%A^3^ in 1 void per unit cell. 
This is reasonably consistent with the presence of 2[H2O] per Formula Unit 
which account for 20 electrons per unit cell.
;
_smtbx_masks_void_probe_radius   1.2
_smtbx_masks_void_truncation_radius 1.2
_shelx_fab_file
;
-8 -5 -5 -0.0471 -0.0155
-8 -5 -4 0.1109 0.1232
-8 -5 -3 0.1384 -0.0561
-8 -5 -2 0.0493 -0.0073
-8 -4 -6 -0.0853 -0.0117
-8 -4 -5 0.1237 0.0832
-8 -4 -4 0.0121 -0.0813
-8 -4 -3 0.0010 0.1492
-8 -4 -2 0.1857 0.0473
-8 -4 -1 0.0826 -0.0257
-8 -4 0 0.1065 -0.0008
-8 -3 -7 -0.0261 0.1790
-8 -3 -6 0.2532 -0.0464
-8 -3 -5 -0.0982 -0.1443
-8 -3 -4 0.0233 0.1337
-8 -3 -3 0.0465 -0.0679
-8 -3 -2 -0.0741 0.1344
-8 -3 -1 0.1777 0.1270
-8 -3 0 0.1290 -0.0468
-8 -3 1 0.0573 -0.0460
-8 -2 -7 -0.0205 -0.0163
-8 -2 -6 0.0262 0.1574
-8 -2 -5 0.2748 -0.0740
-8 -2 -4 -0.1249 -0.2380
-8 -2 -3 -0.1178 0.1587
-8 -2 -2 0.0957 0.0219
-8 -2 -1 -0.0642 0.0240
-8 -2 0 0.0626 0.1344
-8 -2 1 0.1210 -0.0135
-8 -2 2 0.0103 -0.0277
-8 -1 -7 -0.0786 0.0642
-8 -1 -6 0.0735 0.1170
-8 -1 -5 0.1371 -0.0253
-8 -1 -4 0.0547 -0.1426
-8 -1 -3 -0.1408 -0.0970
-8 -1 -2 -0.0625 0.1203
-8 -1 -1 0.0618 -0.0291
-8 -1 0 -0.1193 0.0087
-8 -1 1 0.0355 0.1395
-8 -1 2 0.0716 -0.0093
-8 0 -6 -0.0594 0.1254
-8 0 -5 0.1767 0.0471
-8 0 -4 0.0306 -0.2051
-8 0 -3 -0.1487 -0.0337
-8 0 -2 -0.0072 0.0512
-8 0 -1 0.0095 -0.0548
-8 0 0 -0.1132 -0.0299
-8 0 1 -0.0460 0.1347
-8 1 -5 0.1231 0.0417
-8 1 -4 0.0231 -0.1554
-8 1 -3 -0.0977 -0.0488
-8 1 -2 -0.0423 0.0155
-8 1 -1 0.0045 0.0047
-8 1 0 -0.0269 -0.0448
-7 -8 -5 -0.1114 -0.0737
-7 -8 -4 -0.0527 0.0707
-7 -8 -3 0.0266 -0.0021
-7 -8 -2 0.0114 -0.0325
-7 -8 -1 0.0050 -0.1158
-7 -7 -8 0.0516 0.0085
-7 -7 -7 0.1194 -0.0463
-7 -7 -6 -0.0234 -0.1183
-7 -7 -5 -0.0425 -0.0345
-7 -7 -4 -0.1251 -0.0510
-7 -7 -3 -0.0788 0.1532
-7 -7 -2 0.1530 0.0013
-7 -7 -1 0.0124 -0.1805
-7 -7 0 -0.0789 -0.1523
-7 -7 1 -0.1311 -0.0935
-7 -7 2 -0.0545 -0.0110
-7 -6 -10 -0.1209 0.0548
-7 -6 -9 0.0470 0.2035
-7 -6 -8 0.1349 -0.0575
-7 -6 -7 -0.0959 0.0506
-7 -6 -6 0.1797 0.0762
-7 -6 -5 -0.0389 -0.2251
-7 -6 -4 -0.2151 0.0643
-7 -6 -3 -0.0339 0.1034
-7 -6 -2 0.0333 0.0911
-7 -6 -1 0.1556 -0.0848
-7 -6 0 -0.0149 -0.2087
-7 -6 1 -0.0593 -0.1232
-7 -6 2 -0.0408 -0.0737
-7 -6 3 0.0571 -0.0616
-7 -5 -9 0.0048 0.0525
-7 -5 -8 -0.0268 0.0725
-7 -5 -7 0.0152 0.0287
-7 -5 -6 -0.0830 0.0876
-7 -5 -5 0.1271 0.0703
-7 -5 -4 -0.1126 -0.2105
-7 -5 -3 -0.2744 0.1753
-7 -5 -2 0.1047 0.1675
-7 -5 -1 0.0765 -0.0520
-7 -5 0 0.0372 -0.0667
-7 -5 1 0.0491 -0.0575
-7 -5 2 0.0773 -0.1228
-7 -5 3 -0.0182 -0.0648
-7 -5 4 0.1200 -0.0204
-7 -5 5 0.0160 -0.1309
-7 -4 -9 -0.0077 0.1908
-7 -4 -8 0.1163 -0.0698
-7 -4 -7 -0.2458 -0.0210
-7 -4 -6 -0.0123 0.2607
-7 -4 -5 0.0600 -0.0471
-7 -4 -4 -0.1214 0.0188
-7 -4 -3 -0.0600 -0.0056
-7 -4 -2 -0.1648 0.0507
-7 -4 -1 0.0105 0.1394
-7 -4 0 0.0697 -0.0189
-7 -4 1 -0.0081 0.0027
-7 -4 2 0.1068 0.0502
-7 -4 3 0.0815 -0.0940
-7 -4 4 -0.0228 0.0622
-7 -4 5 0.1688 0.0380
-7 -3 -11 -0.0624 -0.1155
-7 -3 -10 -0.1219 0.1064
-7 -3 -8 -0.0443 0.0885
-7 -3 -7 0.0670 -0.0436
-7 -3 -6 -0.3094 -0.0526
-7 -3 -5 -0.0491 0.3638
-7 -3 -4 0.1627 -0.1093
-7 -3 -3 -0.2239 -0.0322
-7 -3 -2 0.0174 0.0594
-7 -3 -1 -0.1329 -0.0942
-7 -3 0 -0.0926 0.1378
-7 -3 1 0.0606 0.0202
-7 -3 2 -0.0433 0.0161
-7 -3 3 0.0179 0.1007
-7 -3 4 0.0509 0.0696
-7 -3 5 0.0727 0.0992
-7 -3 6 0.1210 0.0180
-7 -2 -11 0.0830 -0.1206
-7 -2 -10 -0.2567 -0.0532
-7 -2 -9 -0.0297 0.2403
-7 -2 -7 -0.2129 0.0083
-7 -2 -6 0.0142 0.0382
-7 -2 -5 -0.2884 -0.0805
-7 -2 -4 -0.0778 0.3860
-7 -2 -3 0.2922 -0.1196
-7 -2 -2 -0.2263 -0.2044
-7 -2 -1 -0.0588 0.0983
-7 -2 0 -0.0090 -0.1112
-7 -2 1 -0.1362 -0.0105
-7 -2 2 -0.0486 0.0451
-7 -2 3 -0.0716 0.0533
-7 -2 4 -0.0031 0.1621
-7 -2 5 0.1293 0.0742
-7 -2 6 0.0524 0.0010
-7 -1 -11 0.0614 -0.0052
-7 -1 -10 -0.0534 -0.1659
-7 -1 -9 -0.1817 0.0260
-7 -1 -8 0.0359 0.0647
-7 -1 -7 -0.0158 -0.1485
-7 -1 -6 -0.1904 -0.0597
-7 -1 -5 -0.1238 0.0215
-7 -1 -4 -0.1566 0.0643
-7 -1 -3 0.0910 0.1750
-7 -1 -2 0.1665 -0.2436
-7 -1 -1 -0.2495 -0.1332
-7 -1 0 0.0591 0.0938
-7 -1 1 -0.0017 -0.2535
-7 -1 2 -0.2389 0.0137
-7 -1 3 -0.0018 0.0976
-7 -1 4 -0.0325 0.0655
-7 -1 5 0.1197 0.1114
-7 -1 6 0.0903 -0.0858
-7 0 -11 0.0769 -0.0343
-7 0 -10 0.0327 -0.1163
-7 0 -9 -0.0605 -0.0994
-7 0 -8 -0.0491 -0.0113
-7 0 -7 0.0163 -0.0423
-7 0 -6 -0.0118 -0.1127
-7 0 -5 -0.1325 -0.1240
-7 0 -4 -0.1606 0.0749
-7 0 -3 0.1039 0.0835
-7 0 -2 0.0963 -0.1833
-7 0 -1 -0.1386 -0.1563
-7 0 0 -0.0518 0.0714
-7 0 1 0.1358 -0.1414
-7 0 2 -0.2353 -0.1813
-7 0 3 -0.0897 0.2332
-7 0 4 0.1485 -0.0002
-7 0 5 -0.0138 0.0289
-7 0 6 0.1512 0.0151
-7 1 -10 0.0959 -0.0643
-7 1 -9 0.0001 -0.0876
-7 1 -8 -0.0555 -0.0576
-7 1 -7 -0.0471 0.0775
-7 1 -6 0.1457 -0.0195
-7 1 -5 -0.0610 -0.1836
-7 1 -4 -0.1140 0.0436
-7 1 -3 0.0650 0.0121
-7 1 -2 0.0522 -0.1250
-7 1 -1 -0.0901 -0.1652
-7 1 0 -0.1404 0.0149
-7 1 1 0.0532 0.0300
-7 1 2 -0.0184 -0.1492
-7 1 3 -0.1992 0.0492
-7 1 4 0.0911 0.2086
-7 1 5 0.1425 -0.0742
-7 1 6 -0.0299 0.0001
-7 2 -9 -0.0005 -0.0802
-7 2 -8 -0.0937 0.0052
-7 2 -7 -0.0730 0.0448
-7 2 -6 -0.0122 0.1637
-7 2 -5 0.1990 -0.0608
-7 2 -4 -0.1840 -0.1749
-7 2 -3 -0.0268 0.1897
-7 2 -2 0.1545 -0.1821
-7 2 -1 -0.2117 -0.1642
-7 2 0 -0.1180 0.0655
-7 2 1 -0.0131 0.0117
-7 2 2 -0.0376 -0.0199
-7 2 3 -0.0508 0.0155
-7 2 4 -0.0421 0.0597
-7 2 5 0.0595 0.0987
-7 2 6 0.0821 -0.0506
-7 3 -8 -0.1519 -0.0712
-7 3 -7 -0.1505 0.1426
-7 3 -6 0.0292 0.0809
-7 3 -5 -0.0403 0.0376
-7 3 -4 0.0709 -0.0144
-7 3 -3 -0.1267 -0.1211
-7 3 -2 -0.0391 0.0949
-7 3 -1 0.0362 -0.1697
-7 3 0 -0.2389 -0.0637
-7 3 1 -0.0699 0.1253
-7 3 2 0.0398 0.0090
-7 3 3 -0.0456 -0.0486
-7 3 4 -0.0676 0.0563
-7 3 5 0.0264 0.0581
-7 4 -6 -0.0554 0.1487
-7 4 -5 0.0656 -0.0056
-7 4 -4 -0.1121 -0.0367
-7 4 -3 0.0207 0.0729
-7 4 -2 -0.0065 -0.1324
-7 4 -1 -0.1209 -0.0063
-7 4 0 -0.0174 -0.0186
-7 4 1 -0.0847 -0.0295
-7 4 2 -0.0531 0.0461
-7 4 3 0.0273 0.0165
-7 5 -3 -0.0211 -0.0049
-7 5 -2 0.0177 0.0383
-7 5 -1 0.0269 -0.0756
-7 5 0 -0.0720 -0.0202
-6 -9 -8 0.1063 0.0790
-6 -9 -7 0.0341 0.0336
-6 -9 -6 0.1218 0.0386
-6 -9 -5 0.0655 -0.0791
-6 -9 -4 0.0188 -0.0210
-6 -9 -3 0.0386 -0.0498
-6 -9 -2 -0.0372 -0.0252
-6 -9 -1 0.0190 0.0889
-6 -9 0 0.1321 -0.0099
-6 -9 1 -0.0315 -0.0750
-6 -8 -10 -0.0462 -0.0757
-6 -8 -9 -0.2203 0.0787
-6 -8 -8 0.0283 0.2907
-6 -8 -7 0.1575 0.0267
-6 -8 -6 0.0138 0.0680
-6 -8 -5 0.2032 0.0466
-6 -8 -4 0.1022 -0.1616
-6 -8 -3 -0.0403 -0.0701
-6 -8 -2 -0.0148 0.0347
-6 -8 -1 0.0578 0.1000
-6 -8 0 0.1770 0.0756
-6 -8 1 0.1478 -0.0777
-6 -8 2 -0.0421 -0.0166
-6 -8 3 0.0097 0.1351
-6 -8 4 0.0710 0.1162
-6 -7 -11 0.0733 -0.0219
-6 -7 -10 -0.0028 -0.1155
-6 -7 -9 -0.2284 -0.0494
-6 -7 -8 -0.1477 0.2428
-6 -7 -7 0.1137 0.1556
-6 -7 -6 0.0480 0.0071
-6 -7 -5 0.0467 0.0925
-6 -7 -4 0.2076 0.0071
-6 -7 -3 0.0655 -0.2028
-6 -7 -1 0.0939 0.3104
-6 -7 0 0.2991 0.1184
-6 -7 1 0.2195 0.0030
-6 -7 2 0.1036 -0.0331
-6 -7 3 -0.0028 0.0891
-6 -7 4 0.0869 0.1534
-6 -7 5 0.1159 0.0899
-6 -6 -12 -0.0340 0.2837
-6 -6 -11 0.2440 0.0616
-6 -6 -10 0.0625 -0.1667
-6 -6 -9 -0.1631 -0.1237
-6 -6 -8 -0.2116 0.1489
-6 -6 -7 0.1102 0.1503
-6 -6 -6 -0.0107 -0.1058
-6 -6 -5 -0.0726 0.1528
-6 -6 -4 0.2469 0.0530
-6 -6 -3 0.0675 -0.2032
-6 -6 -2 -0.1678 -0.0057
-6 -6 -1 -0.0696 0.3094
-6 -6 0 0.2545 0.3266
-6 -6 1 0.2752 0.0954
-6 -6 3 0.0641 0.0245
-6 -6 4 -0.0048 0.1683
-6 -6 5 0.1592 0.1251
-6 -6 6 0.0573 -0.0553
-6 -6 7 -0.0636 0.0066
-6 -5 -13 -0.2303 -0.1329
-6 -5 -12 -0.2422 0.3024
-6 -5 -11 0.2330 0.3004
-6 -5 -10 0.2155 -0.1571
-6 -5 -9 -0.1634 -0.1490
-6 -5 -8 -0.1601 0.1156
-6 -5 -7 0.0532 0.1354
-6 -5 -6 0.1199 -0.0790
-6 -5 -5 -0.1226 -0.0785
-6 -5 -4 0.0735 0.2239
-6 -5 -3 0.3248 -0.1714
-6 -5 -2 -0.2219 -0.2382
-6 -5 -1 -0.1949 0.2948
-6 -5 0 0.1083 0.3024
-6 -5 1 0.1523 0.1985
-6 -5 2 0.1075 0.1463
-6 -5 3 0.1265 0.1043
-6 -5 4 -0.0360 -0.0134
-6 -5 5 -0.0674 0.2060
-6 -5 6 0.1422 0.0214
-6 -5 7 -0.1334 -0.0832
-6 -5 8 -0.0892 0.1413
-6 -4 -13 -0.0574 -0.2794
-6 -4 -12 -0.4431 0.0902
-6 -4 -11 0.0273 0.4389
-6 -4 -10 0.2692 -0.0171
-6 -4 -9 -0.0768 -0.2098
-6 -4 -8 -0.2718 0.0543
-6 -4 -7 0.0390 0.2729
-6 -4 -6 0.2333 -0.0845
-6 -4 -5 -0.0822 -0.1151
-6 -4 -4 0.0572 0.1436
-6 -4 -3 0.2542 -0.0364
-6 -4 -2 0.0640 -0.2128
-6 -4 -1 -0.1808 -0.0384
-6 -4 0 -0.1165 0.2090
-6 -4 1 0.0417 0.2395
-6 -4 2 0.0952 0.0922
-6 -4 3 -0.0456 0.0604
-6 -4 4 0.0148 0.0524
-6 -4 5 -0.1695 -0.0374
-6 -4 6 -0.0966 0.2028
-6 -4 7 0.0316 -0.0256
-6 -4 8 -0.1575 0.0699
-6 -3 -14 0.0861 0.1205
-6 -3 -13 0.1957 -0.2538
-6 -3 -12 -0.3998 -0.2793
-6 -3 -11 -0.2868 0.4219
-6 -3 -10 0.3439 0.1114
-6 -3 -9 -0.0789 -0.2946
-6 -3 -8 -0.2104 0.0560
-6 -3 -7 -0.0800 0.1021
-6 -3 -6 0.1348 0.2227
-6 -3 -5 0.2815 -0.1870
-6 -3 -4 -0.1720 -0.0437
-6 -3 -3 0.2622 0.2397
-6 -3 -2 0.2233 -0.2319
-6 -3 0 0.0342 -0.0034
-6 -3 1 -0.1411 0.0762
-6 -3 2 0.0851 0.2070
-6 -3 3 0.0870 -0.1259
-6 -3 4 -0.2081 -0.0486
-6 -3 5 -0.0930 0.0663
-6 -3 6 -0.1589 0.0137
-6 -3 7 -0.0743 0.1633
-6 -3 8 0.0096 0.0408
-6 -3 9 -0.0193 0.0955
-6 -2 -14 -0.0018 0.0337
-6 -2 -13 0.2286 0.0001
-6 -2 -12 0.0078 -0.4075
-6 -2 -11 -0.4927 0.0373
-6 -2 -10 0.1668 0.4550
-6 -2 -9 0.3477 -0.3362
-6 -2 -8 -0.3944 -0.1860
-6 -2 -7 0.0178 0.3281
-6 -2 -6 0.1694 -0.0493
-6 -2 -5 0.0955 0.1387
-6 -2 -4 0.2987 -0.1281
-6 -2 -3 -0.1487 -0.0092
-6 -2 -2 0.2799 0.3033
-6 -2 -1 0.2405 -0.1888
-6 -2 0 -0.0632 0.0569
-6 -2 1 0.1311 0.0645
-6 -2 2 0.0050 0.0071
-6 -2 3 0.0955 0.0324
-6 -2 4 -0.0223 -0.1873
-6 -2 5 -0.2681 0.0198
-6 -2 6 -0.0240 0.1699
-6 -2 7 -0.0473 -0.0005
-6 -2 8 -0.0465 0.1674
-6 -2 9 0.1138 0.0244
-6 -1 -13 0.1254 0.0113
-6 -1 -12 0.1076 -0.1313
-6 -1 -11 -0.1750 -0.1491
-6 -1 -10 -0.1640 0.3035
-6 -1 -9 0.4120 0.1657
-6 -1 -8 0.0837 -0.3887
-6 -1 -7 -0.3097 0.1390
-6 -1 -6 0.2834 0.3271
-6 -1 -5 0.2459 -0.1015
-6 -1 -4 0.1022 0.0913
-6 -1 -3 0.2047 -0.0405
-6 -1 -2 -0.0781 0.1437
-6 -1 -1 0.3648 0.2988
-6 -1 0 0.1954 -0.2126
-6 -1 1 -0.1016 0.1859
-6 -1 2 0.3183 0.0947
-6 -1 3 -0.0147 -0.1951
-6 -1 4 -0.0812 0.0810
-6 -1 5 -0.0369 -0.0480
-6 -1 6 -0.1993 0.1497
-6 -1 7 0.1167 0.1803
-6 -1 8 -0.0202 -0.0373
-6 -1 9 0.0222 0.1451
-6 0 -13 0.0143 0.1240
-6 0 -12 0.1439 -0.0381
-6 0 -11 -0.1187 -0.0890
-6 0 -10 -0.1238 0.2027
-6 0 -9 0.1817 0.2512
-6 0 -8 0.2805 -0.0956
-6 0 -7 -0.1322 -0.1237
-6 0 -6 -0.0292 0.3257
-6 0 -5 0.3300 0.1724
-6 0 -4 0.2020 -0.0123
-6 0 -3 0.1259 0.0477
-6 0 -2 0.0731 0.0951
-6 0 -1 0.1543 0.2543
-6 0 0 0.3762 0.0171
-6 0 1 -0.0560 -0.1707
-6 0 2 0.0022 0.3037
-6 0 3 0.3223 -0.1312
-6 0 5 -0.1212 0.2849
-6 0 6 0.0233 0.0138
-6 0 7 -0.1375 0.1523
-6 0 8 0.1186 0.1317
-6 0 9 0.0112 -0.0558
-6 1 -13 -0.0734 -0.0135
-6 1 -12 0.0235 0.1246
-6 1 -11 0.0629 -0.1107
-6 1 -10 -0.2252 0.0547
-6 1 -9 0.0900 0.2924
-6 1 -8 0.2659 -0.0004
-6 1 -7 0.0626 -0.1761
-6 1 -6 -0.1885 0.0514
-6 1 -5 0.1336 0.3576
-6 1 -4 0.3474 0.0184
-6 1 -3 0.0853 -0.0307
-6 1 -2 0.1095 0.1271
-6 1 -1 0.2205 0.1120
-6 1 0 0.2443 -0.0382
-6 1 1 0.0764 -0.1476
-6 1 2 -0.1048 -0.0243
-6 1 3 0.0626 0.1171
-6 1 4 0.0644 -0.2245
-6 1 5 -0.3798 -0.0561
-6 1 6 -0.0793 0.2867
-6 1 7 0.0453 -0.0232
-6 1 8 -0.1407 0.0621
-6 1 9 0.0721 0.1010
-6 2 -12 0.0062 0.0274
-6 2 -11 0.0679 -0.0466
-6 2 -10 -0.0980 -0.1000
-6 2 -9 -0.0754 0.2263
-6 2 -8 0.3593 0.0809
-6 2 -7 0.1305 -0.2661
-6 2 -6 -0.0389 -0.0896
-6 2 -5 -0.0862 0.0481
-6 2 -4 0.1958 0.3140
-6 2 -3 0.4336 -0.1348
-6 2 -2 -0.0536 -0.1309
-6 2 -1 0.2044 0.2310
-6 2 0 0.4136 -0.2004
-6 2 1 -0.0698 -0.3400
-6 2 2 -0.1242 0.0447
-6 2 3 0.0877 -0.0541
-6 2 4 -0.0616 -0.1296
-6 2 5 -0.0900 -0.1235
-6 2 6 -0.2596 -0.0331
-6 2 7 -0.0545 0.1729
-6 2 8 0.0376 -0.0695
-6 2 9 -0.1275 0.0038
-6 3 -11 0.1318 -0.0410
-6 3 -10 -0.0460 -0.1533
-6 3 -9 -0.1078 0.1332
-6 3 -8 0.2935 0.2429
-6 3 -7 0.4566 -0.2710
-6 3 -6 -0.1116 -0.3216
-6 3 -5 0.0286 0.1226
-6 3 -4 0.1279 -0.0361
-6 3 -3 0.2029 0.1889
-6 3 -2 0.4463 -0.1965
-6 3 -1 -0.0393 -0.1879
-6 3 0 0.2680 0.0883
-6 3 1 0.2535 -0.4158
-6 3 2 -0.2775 -0.2451
-6 3 3 -0.0209 0.1504
-6 3 4 0.1664 -0.2008
-6 3 5 -0.1875 -0.2023
-6 3 6 -0.1055 -0.0015
-6 3 7 -0.1002 -0.0297
-6 3 8 -0.0271 0.0509
-6 4 -10 0.0516 -0.1084
-6 4 -9 -0.1488 0.0395
-6 4 -8 0.1714 0.3067
-6 4 -7 0.4820 -0.0378
-6 4 -6 0.2041 -0.3937
-6 4 -5 -0.2043 -0.1113
-6 4 -4 0.1487 0.2460
-6 4 -3 0.2771 -0.0904
-6 4 -2 0.1452 0.0287
-6 4 -1 0.3368 -0.1250
-6 4 0 0.0706 -0.2239
-6 4 1 0.1124 -0.0954
-6 4 2 0.0616 -0.2383
-6 4 3 -0.1042 -0.1219
-6 4 4 0.0398 -0.0073
-6 4 5 0.0441 -0.2143
-6 4 6 -0.1897 -0.0924
-6 4 7 -0.0213 0.0532
-6 4 8 -0.0231 -0.0490
-6 5 -9 -0.0584 -0.0137
-6 5 -8 -0.0272 0.2175
-6 5 -7 0.3809 0.1311
-6 5 -6 0.2176 -0.2913
-6 5 -5 -0.0749 -0.1354
-6 5 -4 -0.0720 0.0506
-6 5 -3 0.1381 0.2069
-6 5 -2 0.2877 -0.0787
-6 5 -1 0.0451 -0.0788
-6 5 0 0.1860 -0.0119
-6 5 1 0.1129 -0.1814
-6 5 2 0.0164 -0.0902
-6 5 3 0.0867 -0.0918
-6 5 4 0.0155 -0.1637
-6 5 5 -0.0438 -0.0813
-6 5 6 -0.0307 -0.0768
-6 6 -6 0.2049 -0.1047
-6 6 -5 -0.1093 -0.1790
-6 6 -4 -0.0697 0.1239
-6 6 -3 0.0500 0.0255
-6 6 -2 0.0468 0.1147
-6 6 -1 0.1890 -0.0407
-6 6 0 -0.0145 -0.0659
-6 6 1 0.0971 0.0554
-6 6 2 0.1295 -0.0802
-6 6 3 0.0641 -0.0896
-6 6 4 0.0434 -0.1055
-6 6 5 -0.0311 -0.0880
-6 7 -3 0.0470 0.1239
-6 7 -2 0.0496 -0.0412
-6 7 -1 -0.0209 0.0564
-6 7 0 0.0934 0.0081
-6 7 1 0.0071 -0.0168
-5 -10 -8 -0.1796 -0.0477
-5 -10 -7 -0.0116 0.1632
-5 -10 -6 0.0979 -0.0272
-5 -10 -5 -0.0745 0.0323
-5 -10 -4 0.0899 0.1205
-5 -10 -3 0.0766 0.0083
-5 -10 -2 0.1400 0.0266
-5 -10 -1 0.0655 -0.1824
-5 -10 0 -0.1085 -0.0258
-5 -10 1 0.0569 -0.0164
-5 -10 2 -0.0397 -0.1264
-5 -9 -11 -0.0077 -0.0055
-5 -9 -10 0.0944 0.0124
-5 -9 -9 0.0996 -0.1986
-5 -9 -8 -0.1893 -0.1209
-5 -9 -7 -0.0573 0.1164
-5 -9 -6 0.0261 0.0420
-5 -9 -5 0.0289 0.0648
-5 -9 -4 0.0290 0.0750
-5 -9 -3 0.1225 0.1292
-5 -9 -2 0.1962 -0.0202
-5 -9 -1 0.0991 -0.1314
-5 -9 0 -0.0566 -0.1276
-5 -9 1 -0.0270 0.0163
-5 -9 2 0.0501 -0.1310
-5 -9 3 -0.1386 -0.1172
-5 -9 4 -0.0776 0.0119
-5 -9 5 -0.0240 -0.0014
-5 -8 -12 0.0256 -0.0560
-5 -8 -11 -0.0471 -0.0582
-5 -8 -10 -0.0090 0.1191
-5 -8 -9 0.3186 -0.0327
-5 -8 -8 -0.0359 -0.4225
-5 -8 -7 -0.2952 0.1283
-5 -8 -6 0.2279 0.1166
-5 -8 -5 -0.0319 -0.1411
-5 -8 -4 -0.0449 0.1649
-5 -8 -3 0.1394 0.1175
-5 -8 -2 0.1705 -0.0013
-5 -8 -1 0.0316 -0.1172
-5 -8 0 -0.0564 -0.0074
-5 -8 1 -0.0081 0.0105
-5 -8 2 0.0469 -0.0265
-5 -8 3 -0.0358 -0.1537
-5 -8 4 -0.1424 -0.0105
-5 -8 5 -0.0298 0.0361
-5 -8 6 -0.0017 0.0615
-5 -7 -13 0.2043 -0.0510
-5 -7 -12 -0.0785 -0.2725
-5 -7 -11 -0.2211 0.0837
-5 -7 -10 0.1022 0.1617
-5 -7 -9 0.2093 -0.0159
-5 -7 -8 0.1987 -0.2058
-5 -7 -7 -0.1229 -0.2417
-5 -7 -6 -0.0866 0.1921
-5 -7 -5 0.2819 0.0055
-5 -7 -4 -0.0724 -0.1699
-5 -7 -3 -0.0699 0.2275
-5 -7 -2 0.2700 0.0568
-5 -7 -1 -0.0336 -0.2520
-5 -7 0 -0.2637 0.0913
-5 -7 1 0.0473 0.1526
-5 -7 2 0.0019 -0.0254
-5 -7 3 0.0240 -0.0028
-5 -7 4 -0.0594 -0.1116
-5 -7 5 -0.1225 0.0801
-5 -7 6 0.0577 0.1068
-5 -7 7 0.1015 0.0348
-5 -7 8 0.0835 -0.0573
-5 -6 -14 0.0011 0.0327
-5 -6 -13 0.1460 0.0397
-5 -6 -12 0.1374 -0.3131
-5 -6 -11 -0.3822 -0.2214
-5 -6 -10 -0.1554 0.3841
-5 -6 -9 0.4533 0.1030
-5 -6 -8 0.1805 -0.3821
-5 -6 -7 -0.1424 -0.1244
-5 -6 -6 0.0010 0.0695
-5 -6 -5 0.0934 0.0709
-5 -6 -4 0.1046 -0.0400
-5 -6 -3 -0.0971 0.0282
-5 -6 -2 0.1000 0.1930
-5 -6 -1 0.1461 -0.1798
-5 -6 0 -0.3019 -0.1355
-5 -6 1 -0.1472 0.2387
-5 -6 2 0.0786 0.0176
-5 -6 3 -0.0673 0.0088
-5 -6 4 0.0923 0.0014
-5 -6 5 -0.0906 -0.1241
-5 -6 6 -0.0692 0.1873
-5 -6 7 0.2203 0.0456
-5 -6 8 0.0247 -0.1305
-5 -6 9 -0.0565 0.0173
-5 -5 -14 -0.1287 -0.0340
-5 -5 -13 0.1000 0.1652
-5 -5 -12 0.2723 -0.2643
-5 -5 -11 -0.2495 -0.3897
-5 -5 -10 -0.3114 0.1807
-5 -5 -9 0.2828 0.2828
-5 -5 -8 0.4703 -0.2860
-5 -5 -7 -0.1256 -0.5031
-5 -5 -6 -0.3524 0.1072
-5 -5 -5 0.1258 0.2630
-5 -5 -3 -0.2294 0.0174
-5 -5 -2 -0.0071 0.3443
-5 -5 0 -0.1118 -0.2349
-5 -5 1 -0.2137 0.0432
-5 -5 2 0.0032 0.0968
-5 -5 3 0.0345 -0.0530
-5 -5 4 0.0057 0.0282
-5 -5 5 0.1456 -0.0887
-5 -5 6 -0.1134 -0.1019
-5 -5 7 0.0683 0.1602
-5 -5 8 0.1471 -0.1598
-5 -5 9 -0.1800 -0.0604
-5 -5 10 -0.0274 0.1296
-5 -4 -15 0.0866 -0.0171
-5 -4 -14 -0.0492 -0.1498
-5 -4 -13 -0.1654 0.1332
-5 -4 -12 0.3758 0.0985
-5 -4 -11 0.1219 -0.5681
-5 -4 -10 -0.4435 -0.0561
-5 -4 -9 0.1959 0.3627
-5 -4 -8 0.5310 -0.1727
-5 -4 -7 0.1523 -0.5784
-5 -4 -6 -0.4835 -0.3125
-5 -4 -5 -0.2633 0.4118
-5 -4 -4 0.2790 0.0679
-5 -4 -3 -0.2405 -0.2487
-5 -4 -2 -0.3806 0.3317
-5 -4 -1 0.2149 0.3431
-5 -4 0 0.1978 -0.1961
-5 -4 1 -0.1626 -0.1754
-5 -4 2 -0.1409 0.0772
-5 -4 3 0.1326 0.1048
-5 -4 4 0.1247 -0.1423
-5 -4 5 0.0227 -0.0015
-5 -4 6 0.1586 -0.1184
-5 -4 7 -0.0909 -0.0873
-5 -4 8 0.0747 0.0211
-5 -4 9 -0.0930 -0.1391
-5 -4 10 -0.1248 0.1334
-5 -3 -15 0.0649 0.0606
-5 -3 -14 0.0528 -0.1401
-5 -3 -13 -0.2329 -0.0449
-5 -3 -12 0.1065 0.3649
-5 -3 -11 0.5784 -0.2720
-5 -3 -10 -0.3085 -0.5393
-5 -3 -9 -0.2044 0.4871
-5 -3 -8 0.7230 0.0944
-5 -3 -7 0.2731 -0.5986
-5 -3 -6 -0.2808 -0.4268
-5 -3 -5 -0.4996 0.1076
-5 -3 -4 0.1401 0.3694
-5 -3 -3 0.0730 -0.4319
-5 -3 -2 -0.6735 0.0076
-5 -3 -1 -0.0492 0.4734
-5 -3 0 0.1690 -0.0296
-5 -3 1 -0.0434 -0.1109
-5 -3 2 -0.1215 -0.0591
-5 -3 3 -0.0796 0.1709
-5 -3 4 0.2756 0.0857
-5 -3 5 0.0765 -0.2180
-5 -3 6 -0.0304 0.0515
-5 -3 7 0.1316 -0.0862
-5 -3 8 -0.1045 -0.0731
-5 -3 9 -0.0174 0.0232
-5 -3 10 -0.0895 0.0108
-5 -3 11 0.0255 0.0888
-5 -2 -15 -0.0353 0.0262
-5 -2 -14 0.0650 0.0424
-5 -2 -13 -0.0349 -0.1746
-5 -2 -12 -0.2366 0.2134
-5 -2 -11 0.5140 0.2753
-5 -2 -10 0.2644 -0.6958
-5 -2 -9 -0.7171 0.0286
-5 -2 -8 0.4337 0.7806
-5 -2 -7 0.7508 -0.5786
-5 -2 -6 -0.4723 -0.5264
-5 -2 -5 -0.3062 0.1887
-5 -2 -4 -0.0771 0.1465
-5 -2 -2 -0.3202 -0.5209
-5 -2 0 0.2137 0.2007
-5 -2 1 -0.1854 -0.2751
-5 -2 2 -0.2367 0.2010
-5 -2 3 0.0832 0.0683
-5 -2 4 -0.0499 0.0276
-5 -2 5 0.1212 0.0718
-5 -2 6 -0.0027 -0.1637
-5 -2 7 -0.1324 0.0965
-5 -2 8 0.1066 0.0065
-5 -2 9 -0.1184 -0.0506
-5 -2 10 0.0241 0.1264
-5 -2 11 0.0759 -0.0537
-5 -1 -15 -0.0042 0.0834
-5 -1 -14 0.0658 0.0093
-5 -1 -13 0.0074 -0.1238
-5 -1 -12 -0.1808 -0.0007
-5 -1 -11 0.1060 0.2678
-5 -1 -10 0.4245 -0.2486
-5 -1 -9 -0.4153 -0.4979
-5 -1 -8 -0.4371 0.6642
-5 -1 -7 0.8685 0.2534
-5 -1 -6 -0.0318 -0.9508
-5 -1 -5 -0.8408 0.1818
-5 -1 -4 0.1686 0.4141
-5 -1 -3 0.0493 -0.1947
-5 -1 -2 -0.0424 -0.1829
-5 -1 -1 -0.4200 -0.3712
-5 -1 0 -0.4437 0.3437
-5 -1 2 -0.4450 -0.2729
-5 -1 3 -0.1689 0.4678
-5 -1 4 0.3226 -0.1122
-5 -1 5 -0.2863 -0.1927
-5 -1 6 -0.0155 0.1948
-5 -1 7 -0.0097 -0.1885
-5 -1 8 -0.2142 0.1402
-5 -1 9 0.1615 0.0571
-5 -1 10 -0.0566 -0.0380
-5 -1 11 0.1614 0.0809
-5 0 -15 -0.0259 0.0365
-5 0 -14 0.0565 0.1265
-5 0 -13 0.2306 -0.1858
-5 0 -12 -0.2705 -0.2320
-5 0 -11 -0.0287 0.2932
-5 0 -10 0.3613 -0.1834
-5 0 -9 -0.2249 -0.4523
-5 0 -8 -0.5238 0.1895
-5 0 -7 0.2538 0.5176
-5 0 -6 0.4307 -0.5332
-5 0 -5 -0.8130 -0.4101
-5 0 -4 -0.3477 0.7166
-5 0 -3 0.4187 0.0412
-5 0 -2 -0.1594 -0.2871
-5 0 -1 -0.1274 -0.0677
-5 0 0 -0.3398 -0.1829
-5 0 1 -0.2241 0.3350
-5 0 2 0.2581 -0.1228
-5 0 3 -0.4160 -0.1938
-5 0 4 0.0349 0.4290
-5 0 5 0.3421 -0.3314
-5 0 6 -0.3810 -0.2126
-5 0 7 0.0411 0.1967
-5 0 8 0.0185 -0.2315
-5 0 9 -0.1718 0.1372
-5 0 10 0.2443 0.0727
-5 0 11 0.0793 -0.1164
-5 1 -14 0.0473 0.0704
-5 1 -13 0.2231 -0.0013
-5 1 -12 0.0330 -0.3645
-5 1 -11 -0.3199 0.0835
-5 1 -10 0.3577 0.1671
-5 1 -9 0.0534 -0.5569
-5 1 -8 -0.5637 -0.0198
-5 1 -7 -0.0213 0.4413
-5 1 -6 0.3612 -0.1190
-5 1 -5 -0.3712 -0.5318
-5 1 -4 -0.7660 0.4044
-5 1 -3 0.2507 0.6446
-5 1 -2 0.2985 -0.2604
-5 1 -1 -0.3600 -0.1384
-5 1 0 -0.1078 0.2673
-5 1 1 0.0548 0.0102
-5 1 2 -0.0414 0.1030
-5 1 3 0.1759 -0.0392
-5 1 4 -0.1535 -0.0898
-5 1 5 0.1559 0.2793
-5 1 6 0.3714 -0.3030
-5 1 7 -0.2303 -0.2273
-5 1 8 0.0886 0.1577
-5 1 9 0.1119 -0.1967
-5 1 10 -0.0809 0.1034
-5 1 11 0.3047 0.0444
-5 2 -14 -0.0771 0.1162
-5 2 -13 0.2280 0.0940
-5 2 -12 0.0857 -0.2695
-5 2 -11 -0.2445 -0.0108
-5 2 -10 0.1321 0.2561
-5 2 -9 0.3055 -0.2913
-5 2 -8 -0.4370 -0.3366
-5 2 -7 -0.2992 0.4376
-5 2 -6 0.2875 0.0529
-5 2 -5 -0.2648 -0.3233
-5 2 -4 -0.5734 0.1801
-5 2 -3 -0.2540 0.5692
-5 2 -2 0.2690 0.4134
-5 2 -1 0.1516 -0.1738
-5 2 0 -0.4116 0.0953
-5 2 1 0.1191 0.5945
-5 2 2 0.4508 -0.0953
-5 2 3 -0.1739 -0.1055
-5 2 4 0.0970 0.2781
-5 2 5 0.1831 0.0264
-5 2 6 0.2336 0.1518
-5 2 7 0.3617 -0.2232
-5 2 8 -0.1361 -0.1667
-5 2 9 0.1190 0.1890
-5 2 10 0.1744 -0.1243
-5 2 11 -0.0093 0.0517
-5 3 -13 -0.0092 0.2060
-5 3 -12 0.2203 -0.1104
-5 3 -11 -0.2533 -0.1357
-5 3 -10 -0.0019 0.3226
-5 3 -9 0.3268 -0.1242
-5 3 -8 -0.1976 -0.4156
-5 3 -7 -0.5600 0.1418
-5 3 -6 0.1122 0.4228
-5 3 -5 0.0312 -0.4236
-5 3 -4 -0.8064 0.0790
-5 3 -3 -0.1589 0.5956
-5 3 -2 -0.0898 0.2134
-5 3 -1 -0.0180 0.4325
-5 3 0 0.1612 0.0674
-5 3 1 -0.2434 0.2165
-5 3 2 0.2803 0.5191
-5 3 3 0.3688 -0.1935
-5 3 4 -0.2983 0.0389
-5 3 5 0.1950 0.4909
-5 3 6 0.3678 -0.0017
-5 3 7 0.1427 0.0241
-5 3 8 0.1919 -0.0826
-5 3 9 -0.0776 -0.0228
-5 3 10 0.1096 0.1732
-5 3 11 0.1400 -0.0614
-5 4 -12 0.1183 0.0378
-5 4 -11 -0.0450 -0.1799
-5 4 -10 -0.1653 0.1354
-5 4 -9 0.2616 0.0257
-5 4 -8 -0.0654 -0.4275
-5 4 -7 -0.4732 -0.0739
-5 4 -6 -0.2185 0.2924
-5 4 -5 0.1947 0.0081
-5 4 -4 -0.3439 -0.4739
-5 4 -3 -0.7383 0.3388
-5 4 -2 0.0546 0.4488
-5 4 -1 -0.1635 0.0403
-5 4 0 -0.1213 0.4222
-5 4 1 0.1483 0.1679
-5 4 2 -0.0915 0.1850
-5 4 3 0.1678 0.3231
-5 4 4 0.1452 -0.0239
-5 4 5 -0.1395 0.2162
-5 4 6 0.2818 0.3236
-5 4 7 0.1988 -0.1061
-5 4 8 -0.0278 0.0563
-5 4 9 0.0828 0.0243
-5 4 10 -0.0552 0.0316
-5 5 -11 0.0706 -0.1011
-5 5 -10 -0.0570 -0.0974
-5 5 -9 0.0384 -0.0058
-5 5 -8 0.0814 -0.2810
-5 5 -7 -0.3547 -0.2457
-5 5 -6 -0.1958 0.2058
-5 5 -5 0.1376 -0.0367
-5 5 -4 -0.0326 -0.2726
-5 5 -3 -0.3335 -0.3003
-5 5 -2 -0.5152 0.1709
-5 5 -1 0.0025 0.3079
-5 5 0 -0.0877 -0.0416
-5 5 1 -0.2136 0.2352
-5 5 2 0.0189 0.2238
-5 5 3 -0.0471 0.1918
-5 5 4 0.0932 0.2525
-5 5 5 0.0948 0.0552
-5 5 6 -0.0231 0.1472
-5 5 7 0.1554 0.0974
-5 5 8 -0.0154 -0.0724
-5 5 9 -0.0526 0.0944
-5 6 -10 0.0614 -0.0665
-5 6 -9 0.0504 -0.1609
-5 6 -8 -0.0470 -0.1606
-5 6 -7 -0.0752 -0.1480
-5 6 -6 -0.1554 -0.0096
-5 6 -5 0.1659 0.0747
-5 6 -4 0.1483 -0.3510
-5 6 -3 -0.1715 -0.2511
-5 6 -2 -0.1685 -0.2020
-5 6 -1 -0.3443 0.0201
-5 6 0 0.0096 0.1571
-5 6 1 -0.1255 -0.1526
-5 6 2 -0.3167 0.1952
-5 6 3 -0.0051 0.2866
-5 6 4 0.0436 0.1631
-5 6 5 0.0990 0.1023
-5 6 6 0.0147 -0.0362
-5 6 7 -0.0775 0.0714
-5 6 8 0.0523 0.0479
-5 7 -8 0.0183 -0.1317
-5 7 -7 -0.0718 -0.0779
-5 7 -6 0.0265 0.0011
-5 7 -5 0.0925 -0.0420
-5 7 -4 0.2013 -0.1340
-5 7 -3 0.0222 -0.3660
-5 7 -2 -0.1893 -0.1242
-5 7 -1 -0.0181 -0.0841
-5 7 0 -0.1534 -0.1083
-5 7 1 -0.0958 0.0097
-5 7 2 -0.1816 -0.0380
-5 7 3 -0.1847 0.2306
-5 7 4 0.1211 0.2004
-5 7 5 0.0986 -0.0332
-5 7 6 -0.0204 -0.0430
-5 7 7 -0.0502 -0.0162
-5 8 -5 0.0888 -0.0460
-5 8 -4 0.0848 -0.1168
-5 8 -3 0.0790 -0.1539
-5 8 -2 -0.0775 -0.2132
-5 8 -1 -0.1100 0.0415
-5 8 0 0.1021 -0.0658
-5 8 1 -0.1444 -0.1405
-5 8 2 -0.1260 0.0971
-5 8 3 -0.0307 0.0924
-5 8 4 0.0456 0.1335
-4 -11 -8 0.0738 -0.1080
-4 -11 -7 -0.1306 -0.1124
-4 -11 -6 -0.0957 0.0574
-4 -11 -5 -0.0090 -0.0283
-4 -11 -4 -0.0415 -0.0495
-4 -11 -3 -0.0862 -0.1205
-4 -11 -2 -0.1838 0.0634
-4 -11 -1 0.1247 0.0948
-4 -11 0 0.0586 -0.1825
-4 -11 1 -0.0963 -0.0730
-4 -11 2 -0.0435 0.0030
-4 -10 -10 0.0707 0.0469
-4 -10 -9 -0.0203 0.0422
-4 -10 -8 0.1266 0.0272
-4 -10 -7 -0.0205 -0.2581
-4 -10 -6 -0.3154 0.0013
-4 -10 -5 0.0242 0.1570
-4 -10 -4 0.0087 -0.1603
-4 -10 -3 -0.1800 -0.0627
-4 -10 -2 -0.1622 0.0336
-4 -10 -1 -0.0500 0.2133
-4 -10 0 0.2458 0.0443
-4 -10 1 0.0389 -0.1770
-4 -10 2 -0.0436 0.0092
-4 -10 3 0.0588 0.0146
-4 -10 4 0.0422 -0.0284
-4 -10 5 -0.0078 -0.0108
-4 -9 -12 -0.0878 0.1220
-4 -9 -11 0.0168 0.0280
-4 -9 -10 -0.0835 -0.0072
-4 -9 -9 -0.0900 0.1463
-4 -9 -8 0.1509 0.0588
-4 -9 -7 -0.0702 -0.2066
-4 -9 -6 -0.2527 0.0505
-4 -9 -5 -0.0729 0.1623
-4 -9 -4 0.1039 0.0582
-4 -9 -3 -0.0294 -0.2338
-4 -9 -2 -0.3521 0.0202
-4 -9 -1 -0.0431 0.2984
-4 -9 0 0.1617 0.0887
-4 -9 1 0.0721 -0.0409
-4 -9 2 -0.0048 0.0222
-4 -9 3 0.0712 0.0368
-4 -9 4 0.0172 -0.0264
-4 -9 5 0.0015 0.0179
-4 -9 6 -0.0350 -0.0097
-4 -9 7 -0.0361 0.0809
-4 -8 -13 -0.0636 -0.0946
-4 -8 -12 -0.1014 -0.0039
-4 -8 -11 -0.0196 0.0553
-4 -8 -10 0.0304 -0.0801
-4 -8 -9 -0.2815 -0.0970
-4 -8 -8 -0.1607 0.3739
-4 -8 -7 0.2336 -0.0522
-4 -8 -6 -0.4487 -0.1128
-4 -8 -5 -0.1303 0.5169
-4 -8 -4 0.2385 0.0785
-4 -8 -3 0.0016 -0.1097
-4 -8 -2 -0.2124 -0.0841
-4 -8 -1 -0.1714 0.2451
-4 -8 0 0.1382 0.0824
-4 -8 1 -0.0637 -0.0522
-4 -8 2 -0.0766 0.0794
-4 -8 3 -0.0131 0.1059
-4 -8 4 0.0491 0.0089
-4 -8 5 -0.0931 -0.0213
-4 -8 6 -0.0482 0.0439
-4 -8 7 -0.1219 0.0031
-4 -8 8 -0.0330 0.1398
-4 -7 -14 0.2074 -0.0725
-4 -7 -13 -0.1181 -0.2494
-4 -7 -12 -0.1372 0.1935
-4 -7 -11 0.2917 -0.0124
-4 -7 -10 -0.1267 -0.3380
-4 -7 -9 -0.3366 0.0947
-4 -7 -8 -0.1450 0.1546
-4 -7 -7 -0.1511 0.2102
-4 -7 -6 -0.0462 0.0581
-4 -7 -5 -0.3949 0.1131
-4 -7 -4 -0.0706 0.4949
-4 -7 -3 0.2405 0.0132
-4 -7 -2 -0.2169 -0.1824
-4 -7 -1 -0.2433 0.2506
-4 -7 0 0.1868 0.0707
-4 -7 1 -0.1871 -0.2176
-4 -7 2 -0.2118 0.1897
-4 -7 3 -0.0167 0.0224
-4 -7 4 -0.1514 0.1042
-4 -7 5 0.0493 0.0400
-4 -7 6 -0.1462 -0.0873
-4 -7 7 -0.1412 0.0779
-4 -7 8 -0.0555 0.0605
-4 -7 9 0.0254 0.0139
-4 -7 10 -0.0483 -0.0927
-4 -6 -15 0.0301 0.1290
-4 -6 -14 0.1687 -0.0448
-4 -6 -13 0.0424 -0.1900
-4 -6 -12 -0.1887 -0.0151
-4 -6 -11 0.1295 0.2830
-4 -6 -10 0.3408 -0.2981
-4 -6 -9 -0.5546 -0.3570
-4 -6 -8 -0.4104 0.5979
-4 -6 -7 0.2678 0.1612
-4 -6 -6 -0.2565 -0.1179
-4 -6 -5 -0.2137 0.1040
-4 -6 -4 -0.3799 0.0452
-4 -6 -3 -0.1145 0.3868
-4 -6 -2 0.1228 -0.1774
-4 -6 -1 -0.4731 -0.0870
-4 -6 1 0.1128 -0.1948
-4 -6 2 -0.3925 -0.0505
-4 -6 3 -0.0617 0.2356
-4 -6 4 -0.0886 -0.0503
-4 -6 5 -0.1301 0.1881
-4 -6 6 0.1119 -0.0324
-4 -6 7 -0.1971 -0.0943
-4 -6 8 -0.0324 0.1521
-4 -6 9 0.1061 -0.1012
-4 -6 10 -0.0877 -0.1339
-4 -6 11 -0.0875 -0.0280
-4 -5 -15 -0.0856 0.0809
-4 -5 -14 0.2448 0.0883
-4 -5 -13 0.1464 -0.2773
-4 -5 -12 -0.2136 -0.0587
-4 -5 -11 0.0200 0.2594
-4 -5 -10 0.2590 -0.0136
-4 -5 -9 -0.1440 -0.3424
-4 -5 -8 -0.6916 0.1750
-4 -5 -7 0.0310 0.7965
-4 -5 -6 0.5601 -0.1899
-4 -5 -5 -0.3804 -0.5265
-4 -5 -4 -0.5192 0.0656
-4 -5 -3 -0.1869 0.2403
-4 -5 -2 0.1771 -0.1008
-4 -5 -1 -0.3841 -0.4521
-4 -5 0 -0.5223 0.3115
-4 -5 1 0.1793 0.2417
-4 -5 2 -0.0506 -0.2322
-4 -5 3 -0.3420 0.0963
-4 -5 4 -0.0092 0.2280
-4 -5 5 -0.0460 0.0170
-4 -5 6 -0.0117 0.1574
-4 -5 7 0.0990 -0.0629
-4 -5 8 -0.0776 0.0049
-4 -5 9 0.1771 -0.0090
-4 -5 10 -0.0141 -0.2809
-4 -5 11 -0.1637 -0.0342
-4 -4 -16 -0.0448 -0.1188
-4 -4 -15 -0.0028 0.0606
-4 -4 -14 0.1284 0.0768
-4 -4 -13 0.3056 -0.0519
-4 -4 -12 -0.0494 -0.3671
-4 -4 -11 -0.3899 0.2564
-4 -4 -10 0.3376 0.3381
-4 -4 -9 0.0314 -0.4196
-4 -4 -8 -0.6908 0.0427
-4 -4 -7 -0.2751 0.7331
-4 -4 -6 0.6376 0.4038
-4 -4 -5 0.3706 -0.8219
-4 -4 -4 -0.8830 -0.4351
-4 -4 -3 -0.2652 0.6153
-4 -4 -2 0.5624 -0.0791
-4 -4 -1 -0.1300 -0.7665
-4 -4 0 -0.7951 -0.0165
-4 -4 1 -0.0465 0.5766
-4 -4 2 0.3192 -0.0940
-4 -4 3 -0.2977 -0.2519
-4 -4 4 -0.3226 0.3394
-4 -4 5 0.1988 0.2061
-4 -4 6 -0.0657 -0.0751
-4 -4 7 0.0189 0.1902
-4 -4 8 0.1437 -0.0669
-4 -4 9 0.0502 -0.0120
-4 -4 10 0.1433 -0.1962
-4 -4 11 -0.1754 -0.1754
-4 -4 12 -0.0652 0.0530
-4 -3 -16 0.0537 -0.1163
-4 -3 -15 -0.0260 0.0062
-4 -3 -14 0.0793 0.0747
-4 -3 -13 0.1943 0.0983
-4 -3 -12 0.2435 -0.2782
-4 -3 -11 -0.5483 -0.1755
-4 -3 -10 -0.0762 0.7692
-4 -3 -9 0.6324 -0.2655
-4 -3 -8 -0.7863 -0.5467
-4 -3 -7 -0.6083 0.8457
-4 -3 -4 -0.4436 -0.7709
-4 -3 -3 -0.8371 0.5056
-4 -3 -2 0.7629 0.6418
-4 -3 -1 0.4799 -0.9094
-4 -3 0 -0.7629 -0.3507
-4 -3 1 -0.2265 0.5232
-4 -3 2 0.3378 0.0941
-4 -3 3 -0.0414 -0.3184
-4 -3 4 -0.4071 0.0346
-4 -3 5 -0.0221 0.3638
-4 -3 6 0.2069 -0.0756
-4 -3 7 -0.1875 -0.0539
-4 -3 8 0.0953 0.1761
-4 -3 9 0.1123 -0.1165
-4 -3 10 0.0345 -0.0238
-4 -3 11 0.0437 -0.1513
-4 -3 12 -0.1260 -0.0425
-4 -3 13 -0.0260 0.0243
-4 -2 -16 0.1004 -0.1951
-4 -2 -15 -0.0735 -0.0073
-4 -2 -14 0.0552 0.0263
-4 -2 -13 -0.0035 0.1050
-4 -2 -12 0.2822 0.0283
-4 -2 -11 -0.2100 -0.4359
-4 -2 -10 -0.6324 0.5559
-4 -2 -9 0.8251 0.4978
-4 -2 -8 0.0256 -1.2146
-4 -2 -7 -1.4382 0.2996
-4 -2 -6 0.5200 1.1037
-4 -2 -5 0.6577 -0.7222
-4 -2 -4 -0.5491 -0.5381
-4 -2 -3 -0.6423 0.1128
-4 -2 -2 -0.0925 0.8819
-4 -2 -1 1.0782 -0.0329
-4 -2 0 -0.3298 -0.9719
-4 -2 1 -0.6217 0.5735
-4 -2 2 0.6145 0.2138
-4 -2 3 -0.0835 -0.5392
-4 -2 4 -0.3702 0.1633
-4 -2 5 0.1551 0.1212
-4 -2 6 0.0027 -0.1180
-4 -2 7 0.0084 -0.0323
-4 -2 8 -0.0654 -0.0643
-4 -2 9 0.0082 0.1098
-4 -2 10 0.1059 -0.0250
-4 -2 11 0.0066 -0.0064
-4 -2 12 0.0392 -0.0109
-4 -2 13 -0.0294 -0.0223
-4 -1 -16 0.2499 -0.1034
-4 -1 -15 -0.0593 -0.2056
-4 -1 -14 -0.1123 0.0472
-4 -1 -13 -0.0042 0.1599
-4 -1 -12 0.1978 0.0785
-4 -1 -11 -0.0204 -0.2433
-4 -1 -10 -0.4542 0.1516
-4 -1 -9 0.2529 0.6590
-4 -1 -8 0.8210 -0.5885
-4 -1 -7 -1.0114 -0.9804
-4 -1 -6 -0.7447 1.2383
-4 -1 -5 1.4021 0.0618
-4 -1 -4 -0.4159 -1.4293
-4 -1 -3 -1.0331 0.3253
-4 -1 -2 -0.1019 0.4397
-4 -1 -1 0.1714 0.5052
-4 -1 0 0.6359 -0.4081
-4 -1 1 -0.8252 -0.4568
-4 -1 2 -0.0457 0.9758
-4 -1 3 0.7995 -0.4275
-4 -1 4 -0.6919 -0.4373
-4 -1 5 0.0235 0.7090
-4 -1 6 0.5685 -0.3309
-4 -1 7 -0.3399 -0.2152
-4 -1 8 0.1409 0.2133
-4 -1 9 -0.0134 -0.1801
-4 -1 10 -0.0796 0.2543
-4 -1 11 0.2045 0.0437
-4 -1 12 -0.0326 0.0231
-4 -1 13 0.0705 0.0798
-4 0 -16 0.2384 -0.0045
-4 0 -15 0.0186 -0.1869
-4 0 -14 -0.0902 -0.0466
-4 0 -13 -0.1982 0.1457
-4 0 -12 0.2283 0.3654
-4 0 -11 0.2220 -0.3234
-4 0 -10 -0.5056 0.0853
-4 0 -9 0.2401 0.6078
-4 0 -8 0.6774 -0.2535
-4 0 -7 -0.1524 -0.9029
-4 0 -6 -1.0525 0.1187
-4 0 -5 0.5607 0.9658
-4 0 -4 0.8962 -1.2892
-4 0 -3 -1.5202 -0.8437
-4 0 -2 -0.4908 0.9906
-4 0 -1 0.2787 -0.0634
-4 0 0 -0.2325 0.0477
-4 0 1 0.0461 -0.2031
-4 0 2 -0.7019 0.0445
-4 0 3 0.2503 0.7618
-4 0 4 0.4487 -0.5221
-4 0 5 -0.6862 0.0103
-4 0 6 0.3625 0.6881
-4 0 7 0.4070 -0.4230
-4 0 8 -0.3712 0.0790
-4 0 9 0.2719 0.2715
-4 0 10 -0.0715 -0.1124
-4 0 11 -0.0438 0.3610
-4 0 12 0.2082 0.0542
-4 0 13 -0.0550 0.0483
-4 1 -15 0.1465 -0.1284
-4 1 -14 -0.1350 -0.0827
-4 1 -13 -0.1506 0.1278
-4 1 -12 0.0115 0.3485
-4 1 -11 0.3846 0.0035
-4 1 -10 -0.3016 -0.2870
-4 1 -9 -0.2090 0.6534
-4 1 -8 0.8174 0.1320
-4 1 -7 0.1717 -0.8396
-4 1 -6 -0.6966 -0.2993
-4 1 -5 -0.1156 0.5931
-4 1 -4 0.9628 -0.3384
-4 1 -3 -0.4632 -1.5624
-4 1 -2 -1.5471 0.2193
-4 1 -1 0.2809 0.7880
-4 1 0 0.1285 -0.7760
-4 1 2 -0.1602 0.4426
-4 1 3 -0.1756 0.0645
-4 1 4 -0.0199 0.3487
-4 1 5 0.1086 -0.1369
-4 1 6 -0.4721 0.1830
-4 1 7 0.2184 0.6183
-4 1 8 0.2682 -0.1611
-4 1 9 -0.2907 0.1820
-4 1 10 0.1945 0.2847
-4 1 11 -0.0943 -0.0331
-4 1 12 -0.0527 0.3277
-4 1 13 0.1453 0.0345
-4 2 -15 0.0447 0.0758
-4 2 -14 0.1164 -0.0989
-4 2 -13 -0.2384 -0.0731
-4 2 -11 0.3560 0.0418
-4 2 -10 -0.1570 -0.3092
-4 2 -9 -0.4013 0.3666
-4 2 -8 0.4819 0.5444
-4 2 -6 -0.3819 -0.6520
-4 2 -5 -0.2253 0.3321
-4 2 -4 0.7240 -0.2280
-4 2 -3 -0.0334 -1.1852
-4 2 -2 -0.9830 -0.5756
-4 2 -1 -0.6676 0.3560
-4 2 0 0.2795 0.1086
-4 2 1 -0.2903 -0.8633
-4 2 2 -1.1726 0.1684
-4 2 3 0.0383 0.7250
-4 2 4 0.0862 -0.2492
-4 2 5 -0.4565 0.0858
-4 2 7 -0.3208 0.2612
-4 2 8 0.1078 0.4900
-4 2 9 0.1311 -0.1089
-4 2 10 -0.3126 0.1542
-4 2 11 0.0909 0.2298
-4 2 12 -0.1113 -0.0316
-4 3 -14 0.1115 0.0441
-4 3 -13 0.0344 -0.1672
-4 3 -12 -0.2386 0.1289
-4 3 -11 0.2958 0.2330
-4 3 -10 0.0440 -0.3971
-4 3 -9 -0.4941 0.1725
-4 3 -8 0.1839 0.6264
-4 3 -7 0.7528 0.0540
-4 3 -6 0.2818 -0.6886
-4 3 -5 -0.3881 -0.0239
-4 3 -4 0.7608 0.2343
-4 3 -3 0.4697 -1.3023
-4 3 -2 -0.9437 -0.6354
-4 3 -1 -0.2492 0.1255
-4 3 0 -0.2053 -0.2949
-4 3 1 -0.2097 -0.0949
-4 3 2 -0.3332 -0.4613
-4 3 3 -0.8365 0.1765
-4 3 4 0.0935 0.4845
-4 3 5 -0.0149 -0.4112
-4 3 6 -0.6742 0.0509
-4 3 7 -0.1497 0.3992
-4 3 8 -0.0788 0.1101
-4 3 9 -0.0137 0.1675
-4 3 10 -0.0226 -0.1220
-4 3 11 -0.2740 0.0659
-4 3 12 0.0113 0.1301
-4 4 -14 0.1351 0.0565
-4 4 -13 0.0640 -0.0881
-4 4 -12 -0.1196 0.0343
-4 4 -11 0.1250 0.2678
-4 4 -10 0.2733 -0.1896
-4 4 -9 -0.3814 -0.0684
-4 4 -8 0.0002 0.6317
-4 4 -7 0.5804 0.2707
-4 4 -6 0.5047 -0.1637
-4 4 -5 0.0626 -0.2774
-4 4 -4 0.1839 0.3659
-4 4 -3 1.0666 -0.3555
-4 4 -2 -0.1999 -1.2696
-4 4 -1 -0.7616 0.1138
-4 4 0 0.3250 0.0560
-4 4 1 -0.1931 -0.5645
-4 4 2 -0.3527 -0.0667
-4 4 3 -0.2486 -0.2406
-4 4 4 -0.5029 0.0799
-4 4 5 0.0222 0.1484
-4 4 6 -0.2296 -0.3078
-4 4 7 -0.4477 0.2135
-4 4 8 0.1254 0.1800
-4 4 9 -0.0701 -0.1795
-4 4 10 -0.1068 0.0375
-4 4 11 -0.0272 -0.1278
-4 4 12 -0.2018 -0.0059
-4 5 -13 0.0031 -0.0190
-4 5 -12 -0.0912 0.1213
-4 5 -11 0.0694 0.2457
-4 5 -10 0.2067 0.1151
-4 5 -9 0.0084 -0.0259
-4 5 -8 -0.1338 0.3708
-4 5 -7 0.4154 0.4666
-4 5 -6 0.3990 -0.0214
-4 5 -5 0.1317 0.0971
-4 5 -4 0.2655 0.2214
-4 5 -3 0.5319 0.1630
-4 5 -1 -0.3137 -0.6130
-4 5 0 -0.2637 0.3116
-4 5 1 0.4756 -0.1167
-4 5 2 -0.1594 -0.5963
-4 5 3 -0.3422 -0.1277
-4 5 4 -0.2544 -0.1553
-4 5 5 -0.2915 0.0739
-4 5 6 0.0012 -0.0139
-4 5 7 -0.2204 -0.1127
-4 5 8 -0.0580 0.1766
-4 5 9 0.1746 -0.1336
-4 5 10 -0.1490 -0.2014
-4 5 11 -0.0684 0.0289
-4 5 12 -0.0162 -0.0951
-4 6 -11 0.0322 0.3528
-4 6 -10 0.1688 0.1246
-4 6 -9 -0.0322 0.1756
-4 6 -8 0.1102 0.3058
-4 6 -7 0.1437 0.2633
-4 6 -6 0.2718 0.2256
-4 6 -5 0.0823 0.0398
-4 6 -4 0.0259 0.4026
-4 6 -3 0.4500 0.2732
-4 6 -2 0.3107 -0.0505
-4 6 0 -0.0416 -0.1127
-4 6 1 0.1464 0.2001
-4 6 2 0.4458 -0.3446
-4 6 3 -0.2479 -0.5460
-4 6 4 -0.2877 -0.0447
-4 6 5 -0.1547 -0.0895
-4 6 6 -0.1491 0.0758
-4 6 7 0.0766 -0.0184
-4 6 8 -0.0681 -0.0980
-4 6 9 0.0245 0.0396
-4 6 10 0.0903 -0.1478
-4 6 11 -0.1211 -0.1197
-4 7 -10 0.0604 0.2591
-4 7 -9 0.0848 0.1038
-4 7 -8 -0.0519 0.2161
-4 7 -7 0.1457 0.2725
-4 7 -6 0.0962 0.1236
-4 7 -5 0.0790 0.1590
-4 7 -4 -0.0502 0.0996
-4 7 -3 -0.0228 0.4124
-4 7 -2 0.3536 0.2046
-4 7 -1 0.0449 -0.0419
-4 7 0 0.0647 0.2553
-4 7 1 0.3192 0.0702
-4 7 2 0.2582 -0.1139
-4 7 3 0.1734 -0.3493
-4 7 4 -0.2624 -0.3002
-4 7 5 -0.1627 0.1077
-4 7 6 0.0418 -0.0245
-4 7 7 -0.0455 -0.0113
-4 7 8 0.0568 -0.0051
-4 7 9 0.0054 -0.0727
-4 7 10 0.0037 -0.0232
-4 8 -8 0.0926 0.1037
-4 8 -7 -0.0600 0.0798
-4 8 -6 0.0367 0.2203
-4 8 -5 0.0813 0.0753
-4 8 -4 0.0002 0.0560
-4 8 -3 -0.1360 0.0587
-4 8 -1 0.2607 0.1337
-4 8 0 -0.1167 -0.0181
-4 8 1 0.0863 0.3982
-4 8 2 0.4271 -0.0674
-4 8 3 -0.0133 -0.2539
-4 8 4 -0.0588 -0.0646
-4 8 5 -0.1288 -0.0436
-4 8 6 -0.0356 0.1359
-4 8 7 0.1006 -0.0107
-4 8 8 -0.0266 -0.0564
-4 9 -5 0.0793 0.1116
-4 9 -4 0.0207 -0.0360
-4 9 -3 -0.0682 0.0403
-4 9 -2 -0.0752 0.0644
-4 9 -1 -0.0107 0.1681
-4 9 0 0.0855 -0.0051
-4 9 1 -0.1253 0.0426
-4 9 2 0.1162 0.1693
-4 9 3 0.1170 -0.1777
-4 9 4 -0.1926 -0.1007
-4 9 5 -0.1142 0.1019
-4 9 6 0.0025 0.0696
-3 -12 -4 0.1022 0.0933
-3 -12 -3 0.1408 0.0542
-3 -12 -2 0.0935 -0.0026
-3 -12 -1 0.0434 0.0951
-3 -11 -9 -0.0108 0.0158
-3 -11 -8 0.0496 0.0652
-3 -11 -7 0.1467 0.0828
-3 -11 -6 0.1923 -0.0363
-3 -11 -5 0.0751 -0.0363
-3 -11 -4 0.0696 0.0325
-3 -11 -3 0.0721 0.1081
-3 -11 -2 0.2133 0.0590
-3 -11 -1 0.0134 -0.1067
-3 -11 0 -0.0778 0.1798
-3 -11 1 0.1714 0.1205
-3 -11 2 0.0454 -0.0348
-3 -11 3 -0.0279 0.0302
-3 -11 4 -0.0161 0.0817
-3 -10 -11 0.0586 -0.0500
-3 -10 -10 -0.0419 -0.0536
-3 -10 -9 0.0112 0.1039
-3 -10 -8 0.0990 0.0638
-3 -10 -7 0.1219 0.1687
-3 -10 -6 0.3809 0.0338
-3 -10 -5 0.0958 -0.2393
-3 -10 -4 -0.0944 0.1014
-3 -10 -3 0.1580 0.1889
-3 -10 -2 0.2276 0.0223
-3 -10 -1 0.0748 -0.1523
-3 -10 0 -0.1841 -0.0071
-3 -10 1 -0.0482 0.2104
-3 -10 2 0.0910 0.0800
-3 -10 3 -0.0058 -0.0181
-3 -10 4 -0.0820 0.0504
-3 -10 5 -0.0011 0.1163
-3 -10 6 0.0439 0.0312
-3 -9 -13 0.2461 0.2148
-3 -9 -12 0.2278 -0.2173
-3 -9 -11 -0.1287 -0.0743
-3 -9 -10 0.0407 0.1586
-3 -9 -9 0.1665 -0.0096
-3 -9 -8 -0.0637 0.0012
-3 -9 -7 0.1278 0.2926
-3 -9 -6 0.3838 -0.0426
-3 -9 -5 0.0311 -0.2400
-3 -9 -4 -0.2088 0.0042
-3 -9 -3 -0.0732 0.3651
-3 -9 -2 0.4098 0.2209
-3 -9 -1 0.1921 -0.3321
-3 -9 0 -0.2950 -0.0663
-3 -9 1 -0.0017 0.2217
-3 -9 2 0.0891 -0.0502
-3 -9 3 -0.0700 -0.0265
-3 -9 4 -0.0119 -0.0002
-3 -9 5 -0.0765 -0.0253
-3 -9 6 -0.0517 0.0966
-3 -9 7 0.0697 0.0447
-3 -9 8 0.0091 -0.0139
-3 -8 -14 -0.0946 0.2064
-3 -8 -13 0.2139 0.2501
-3 -8 -12 0.2574 -0.0871
-3 -8 -11 -0.0650 -0.1179
-3 -8 -10 -0.1002 0.1391
-3 -8 -9 0.1611 0.2157
-3 -8 -8 0.2242 -0.1801
-3 -8 -7 -0.2462 -0.0088
-3 -8 -6 0.3081 0.2504
-3 -8 -5 0.1348 -0.5020
-3 -8 -4 -0.4785 -0.0434
-3 -8 -3 -0.1390 0.3235
-3 -8 -2 0.1773 0.3179
-3 -8 -1 0.3513 -0.1432
-3 -8 0 -0.1859 -0.2195
-3 -8 1 -0.0539 0.2089
-3 -8 2 0.2255 -0.0124
-3 -8 3 0.0677 -0.2148
-3 -8 4 -0.1039 -0.1271
-3 -8 5 -0.0347 -0.0163
-3 -8 6 -0.0675 -0.0599
-3 -8 7 -0.0499 0.1092
-3 -8 8 0.1009 0.0045
-3 -8 9 -0.0427 -0.0053
-3 -8 10 0.0578 0.0494
-3 -7 -15 0.0343 -0.0447
-3 -7 -14 -0.2256 0.0741
-3 -7 -13 0.0773 0.4344
-3 -7 -12 0.4162 -0.0774
-3 -7 -11 -0.2419 -0.3110
-3 -7 -10 -0.2483 0.3723
-3 -7 -9 0.3532 0.1172
-3 -7 -8 0.0359 -0.2550
-3 -7 -7 -0.0667 -0.0843
-3 -7 -6 -0.0431 -0.0181
-3 -7 -5 0.1936 -0.0697
-3 -7 -4 -0.0647 -0.4069
-3 -7 -3 -0.3800 0.0162
-3 -7 -2 0.0182 0.3314
-3 -7 -1 0.3799 -0.0364
-3 -7 0 -0.1100 -0.3263
-3 -7 1 -0.1019 0.2675
-3 -7 2 0.3480 -0.0485
-3 -7 3 0.0358 -0.1619
-3 -7 4 0.1523 -0.1590
-3 -7 5 -0.1510 -0.2442
-3 -7 6 -0.1081 0.0888
-3 -7 7 0.0023 0.0001
-3 -7 8 -0.0423 0.0811
-3 -7 9 0.0327 0.0630
-3 -7 10 0.0323 0.0847
-3 -7 11 0.1030 -0.0180
-3 -6 -16 0.0657 0.1362
-3 -6 -15 0.0641 -0.0973
-3 -6 -14 -0.2047 0.0503
-3 -6 -13 -0.0482 0.2827
-3 -6 -12 0.2379 0.1540
-3 -6 -11 0.1370 -0.3352
-3 -6 -10 -0.5309 -0.1334
-3 -6 -9 0.0588 0.6010
-3 -6 -8 0.6479 -0.4340
-3 -6 -7 -0.5293 -0.5264
-3 -6 -6 -0.1043 0.3956
-3 -6 -5 0.3069 -0.0446
-3 -6 -4 0.3006 -0.0937
-3 -6 -3 0.1190 -0.5231
-3 -6 -2 -0.4332 0.0713
-3 -6 -1 0.4447 0.3798
-3 -6 0 0.3400 -0.5601
-3 -6 1 -0.4747 -0.0985
-3 -6 2 0.2001 0.4010
-3 -6 3 0.2987 -0.2537
-3 -6 4 -0.0537 -0.0892
-3 -6 5 0.0876 -0.1565
-3 -6 6 -0.2420 -0.1091
-3 -6 7 -0.0810 0.1765
-3 -6 8 -0.0277 0.0355
-3 -6 9 -0.0914 0.1676
-3 -6 10 0.0989 0.1680
-3 -6 11 0.1077 0.0162
-3 -6 12 0.0513 -0.0407
-3 -5 -16 -0.0047 0.1035
-3 -5 -15 0.1059 0.0268
-3 -5 -14 -0.1766 -0.0943
-3 -5 -13 -0.2191 0.3040
-3 -5 -12 0.2276 0.2357
-3 -5 -11 0.2118 -0.2394
-3 -5 -10 -0.2515 -0.3400
-3 -5 -9 -0.3332 0.2773
-3 -5 -8 0.6642 0.2140
-3 -5 -7 0.1893 -1.0692
-3 -5 -6 -1.0619 0.1049
-3 -5 -5 0.5251 0.9727
-3 -5 -4 0.8423 -0.3229
-3 -5 -3 0.2112 -0.4655
-3 -5 -2 -0.3354 -0.2770
-3 -5 -1 -0.0077 0.7059
-3 -5 0 0.9809 -0.1795
-3 -5 1 -0.3014 -0.8367
-3 -5 2 -0.5495 0.4008
-3 -5 3 0.4224 0.3217
-3 -5 4 0.1486 -0.3653
-3 -5 5 -0.2324 -0.0466
-3 -5 6 -0.0329 0.0118
-3 -5 7 -0.1907 -0.0058
-3 -5 8 -0.1185 0.1429
-3 -5 9 -0.1307 0.1270
-3 -5 10 0.0081 0.2798
-3 -5 11 0.1864 0.0303
-3 -5 12 -0.0161 -0.0321
-3 -5 13 0.0740 0.0271
-3 -4 -16 0.0065 0.1560
-3 -4 -15 0.0167 -0.0170
-3 -4 -14 -0.1288 -0.0067
-3 -4 -13 -0.2636 0.0504
-3 -4 -12 -0.0933 0.4288
-3 -4 -11 0.5448 -0.0241
-3 -4 -10 -0.1588 -0.6638
-3 -4 -9 -0.5074 0.2835
-3 -4 -8 0.6006 0.3959
-3 -4 -7 0.6214 -0.7451
-3 -4 -6 -0.7683 -0.6802
-3 -4 -5 -0.5444 1.2164
-3 -4 -4 1.6215 0.6025
-3 -4 -3 0.5280 -1.3499
-3 -4 -2 -0.9265 -0.1986
-3 -4 -1 -0.1453 0.8546
-3 -4 0 0.9290 0.3567
-3 -4 1 0.4089 -0.9772
-3 -4 2 -0.9330 -0.2805
-3 -4 3 -0.0877 0.7460
-3 -4 4 0.5511 -0.1483
-3 -4 5 -0.3189 -0.4322
-3 -4 6 -0.2611 0.2844
-3 -4 7 0.0996 -0.0495
-3 -4 8 -0.2905 -0.0153
-3 -4 9 -0.0885 0.1770
-3 -4 10 -0.1284 0.1204
-3 -4 11 0.0940 0.2325
-3 -4 12 0.1185 -0.0987
-3 -4 13 -0.0728 0.0275
-3 -3 -17 -0.0768 -0.0124
-3 -3 -16 -0.0834 0.1291
-3 -3 -15 0.0563 0.0254
-3 -3 -14 -0.1290 -0.0731
-3 -3 -13 -0.1570 -0.0189
-3 -3 -12 -0.3118 0.1673
-3 -3 -11 0.4194 0.4064
-3 -3 -10 0.3775 -0.8676
-3 -3 -9 -1.0677 -0.0438
-3 -3 -8 0.5905 1.1547
-3 -3 -7 1.1324 -0.8301
-3 -3 -6 -0.6733 -0.6775
-3 -3 -5 -0.3930 0.7378
-3 -3 -4 0.8504 0.9063
-3 -3 -3 1.5489 -0.7571
-3 -3 -2 -0.7991 -1.6264
-3 -3 -1 -1.3107 0.9974
-3 -3 0 1.0649 0.9593
-3 -3 1 0.7847 -0.9520
-3 -3 2 -0.7035 -0.7177
-3 -3 3 -0.5027 0.4763
-3 -3 4 0.4444 0.1979
-3 -3 5 0.0191 -0.5138
-3 -3 6 -0.4963 0.0396
-3 -3 7 0.0962 0.2896
-3 -3 8 -0.0098 -0.2302
-3 -3 9 -0.3034 0.1091
-3 -3 10 -0.0077 0.1136
-3 -3 11 -0.1426 0.0790
-3 -3 12 0.0727 0.1796
-3 -3 13 0.0836 -0.0639
-3 -3 14 -0.0350 -0.0027
-3 -2 -17 -0.0504 -0.1569
-3 -2 -16 -0.2012 0.1797
-3 -2 -15 0.1520 0.1262
-3 -2 -14 -0.0092 -0.1452
-3 -2 -13 -0.1099 -0.0406
-3 -2 -12 -0.1560 -0.0431
-3 -2 -11 0.0074 0.3118
-3 -2 -10 0.6750 -0.3122
-3 -2 -9 -0.7465 -0.8784
-3 -2 -8 -0.6916 1.4837
-3 -2 -7 2.1007 0.4295
-3 -2 -6 -0.1005 -1.8793
-3 -2 -5 -1.2705 1.0521
-3 -2 -4 1.4909 1.0970
-3 -2 -3 1.2436 -0.7501
-3 -2 -2 0.4139 -1.3114
-3 -2 -1 -1.3351 -0.8506
-3 -2 0 -0.3391 1.5466
-3 -2 1 1.8426 -0.3004
-3 -2 2 -0.4513 -1.6774
-3 -2 3 -0.9505 0.4598
-3 -2 4 0.6147 0.2669
-3 -2 5 -0.0603 -0.6572
-3 -2 6 -0.4906 0.1384
-3 -2 7 0.0579 0.2095
-3 -2 8 -0.0340 -0.0408
-3 -2 9 -0.1287 -0.0212
-3 -2 10 -0.2204 0.0376
-3 -2 11 -0.1463 0.1589
-3 -2 12 -0.0419 0.1267
-3 -2 13 0.0183 0.0936
-3 -2 14 0.0606 -0.0027
-3 -1 -17 0.1194 -0.1122
-3 -1 -16 -0.3241 -0.0158
-3 -1 -15 0.0140 0.3846
-3 -1 -14 0.2479 -0.0569
-3 -1 -13 -0.0645 -0.1888
-3 -1 -12 -0.1828 0.0087
-3 -1 -11 0.0912 0.1833
-3 -1 -10 0.3118 -0.1948
-3 -1 -9 -0.1900 -0.4874
-3 -1 -8 -0.8430 0.3865
-3 -1 -7 0.7523 1.5630
-3 -1 -6 1.9165 -1.0317
-3 -1 -5 -1.5999 -1.1706
-3 -1 -4 -0.0518 2.5771
-3 -1 -3 2.9263 -0.2285
-3 -1 -2 0.2991 -1.8037
-3 -1 -1 -0.1643 -0.6606
-3 -1 0 -0.6382 -0.1745
-3 -1 1 0.9006 0.9243
-3 -1 2 1.3784 -1.7521
-3 -1 3 -1.6516 -1.0560
-3 -1 4 -0.0483 1.2527
-3 -1 5 0.8913 -0.7847
-3 -1 6 -1.0875 -0.5165
-3 -1 7 -0.1663 0.8060
-3 -1 8 0.2205 -0.2453
-3 -1 9 -0.4672 0.0197
-3 -1 10 -0.0562 0.1071
-3 -1 11 -0.3663 -0.0402
-3 -1 12 -0.1552 0.3447
-3 -1 13 0.0961 0.0273
-3 -1 14 -0.0937 -0.0055
-3 0 -16 -0.2492 -0.1413
-3 0 -15 -0.2132 0.3433
-3 0 -14 0.2230 0.1332
-3 0 -13 0.0464 -0.1582
-3 0 -10 0.4868 0.0056
-3 0 -9 -0.2583 -0.5711
-3 0 -8 -0.6022 0.4797
-3 0 -7 0.2903 0.9608
-3 0 -6 1.4398 0.3738
-3 0 -5 0.4982 -1.5945
-3 0 -4 -1.7955 0.7195
-3 0 -3 2.1855 2.4300
-3 0 -2 2.5473 -2.1782
-3 0 -1 -1.0038 -1.1222
-3 0 0 0.6266 0.4125
-3 0 1 0.5975 -0.5834
-3 0 2 0.8986 -0.3990
-3 0 3 0.0937 -1.7780
-3 0 4 -1.4647 0.0203
-3 0 5 0.6646 0.7092
-3 0 6 0.1092 -1.2517
-3 0 7 -1.3027 0.0715
-3 0 9 -0.1519 -0.4639
-3 0 10 -0.5657 0.1750
-3 0 11 -0.0797 0.0505
-3 0 12 -0.3775 0.0424
-3 0 13 -0.0007 0.2697
-3 0 14 0.0592 -0.1205
-3 0 15 -0.1503 -0.0185
-3 1 -16 -0.0791 -0.1613
-3 1 -15 -0.3552 0.1064
-3 1 -14 0.0826 0.2788
-3 1 -13 0.1020 -0.1651
-3 1 -12 -0.1985 -0.1374
-3 1 -11 -0.2607 0.1281
-3 1 -10 0.1968 0.3008
-3 1 -9 0.2235 -0.4318
-3 1 -8 -0.7659 -0.0180
-3 1 -7 -0.0424 1.1696
-3 1 -6 1.2329 0.5908
-3 1 -5 0.9977 -0.7892
-3 1 -4 -0.8102 -0.5763
-3 1 -3 -0.0838 2.0314
-3 1 -2 3.1460 0.4383
-3 1 -1 0.6466 -2.4950
-3 1 0 -0.9358 0.5767
-3 1 1 2.0415 0.4303
-3 1 2 0.8239 -1.8094
-3 1 3 -0.3471 -0.7658
-3 1 4 -0.2174 -0.5942
-3 1 5 -0.4519 -0.0373
-3 1 6 0.3148 -0.1790
-3 1 7 -0.4595 -0.9228
-3 1 8 -0.9498 0.1810
-3 1 9 0.0756 0.1986
-3 1 10 -0.3513 -0.4087
-3 1 11 -0.4366 0.2055
-3 1 12 -0.0165 0.0137
-3 1 13 -0.1950 0.0239
-3 1 14 0.0746 0.0685
-3 1 15 -0.0339 -0.1424
-3 2 -16 -0.0738 -0.0453
-3 2 -15 -0.1433 -0.0638
-3 2 -14 -0.1991 0.1392
-3 2 -13 0.1275 0.1232
-3 2 -12 -0.0154 -0.2428
-3 2 -11 -0.3408 0.0538
-3 2 -10 0.0913 0.3363
-3 2 -9 0.3010 -0.2019
-3 2 -8 -0.4273 -0.3257
-3 2 -7 -0.6524 0.7108
-3 2 -6 0.6777 1.2522
-3 2 -5 1.3914 -0.3059
-3 2 -4 -0.4019 -0.7418
-3 2 -3 -0.3378 1.2410
-3 2 -2 1.6068 0.9736
-3 2 -1 1.5562 -0.7412
-3 2 0 -0.0322 -0.8661
-3 2 1 0.2376 0.8236
-3 2 2 2.0469 -0.3583
-3 2 3 0.1668 -2.0071
-3 2 4 -0.8749 -0.2248
-3 2 5 0.3053 -0.0034
-3 2 6 0.0594 -0.6571
-3 2 7 -0.2529 -0.5259
-3 2 8 -0.5070 -0.4437
-3 2 9 -0.4803 0.1061
-3 2 10 0.0603 -0.0607
-3 2 11 -0.3398 -0.2659
-3 2 12 -0.1780 0.2364
-3 2 13 0.1172 -0.0426
-3 2 14 -0.0559 -0.0180
-3 3 -15 -0.1112 -0.0497
-3 3 -14 -0.1455 0.0435
-3 3 -13 -0.0749 0.1795
-3 3 -11 -0.2242 -0.1381
-3 3 -10 -0.0838 0.3882
-3 3 -9 0.3913 -0.0830
-3 3 -8 -0.2809 -0.4239
-3 3 -7 -0.7127 0.2219
-3 3 -6 -0.2683 1.0743
-3 3 -5 1.1011 0.7094
-3 3 -4 0.3295 -0.9409
-3 3 -3 -1.1617 0.7087
-3 3 -2 1.2251 1.5940
-3 3 -1 1.2754 -0.6636
-3 3 1 0.6627 0.1042
-3 3 2 0.6099 -0.0154
-3 3 3 1.1189 -0.5576
-3 3 4 -0.0758 -1.3149
-3 3 5 -0.5286 0.0120
-3 3 6 0.5450 -0.1095
-3 3 7 0.0100 -0.8829
-3 3 8 -0.4958 -0.2848
-3 3 9 -0.1337 -0.0522
-3 3 10 -0.1241 -0.0837
-3 3 11 -0.0156 -0.0632
-3 3 12 -0.1599 -0.0544
-3 3 13 0.0141 0.1877
-3 3 14 0.1360 -0.0332
-3 4 -14 -0.2089 -0.0339
-3 4 -13 -0.1160 0.1968
-3 4 -12 0.0788 0.0992
-3 4 -11 -0.0677 -0.1413
-3 4 -10 -0.3244 0.2014
-3 4 -9 0.3009 0.2336
-3 4 -8 -0.0773 -0.5500
-3 4 -7 -0.7869 0.0415
-3 4 -6 -0.4494 0.5928
-3 4 -5 0.1173 0.7698
-3 4 -4 0.5761 -0.1041
-3 4 -3 -0.8400 -0.3089
-3 4 -2 -0.3937 1.6923
-3 4 -1 1.8332 0.5709
-3 4 0 0.2627 -1.1327
-3 4 1 -0.3407 0.5537
-3 4 2 1.0403 0.2351
-3 4 3 0.5775 -0.5035
-3 4 4 0.4549 -0.5352
-3 4 5 -0.0859 -0.6547
-3 4 6 -0.0494 -0.0122
-3 4 7 0.3595 -0.3826
-3 4 8 -0.2883 -0.5004
-3 4 9 -0.1780 0.1834
-3 4 10 0.2367 -0.1314
-3 4 11 -0.2008 -0.1637
-3 4 12 -0.0199 0.1562
-3 5 -14 -0.0765 -0.0803
-3 5 -13 -0.1438 0.0808
-3 5 -12 0.0419 0.0175
-3 5 -11 -0.1490 -0.1456
-3 5 -10 -0.2649 0.0165
-3 5 -9 -0.1546 0.1321
-3 5 -8 0.0134 -0.1437
-3 5 -7 -0.5941 -0.3006
-3 5 -6 -0.6251 0.4837
-3 5 -5 0.0085 0.4162
-3 5 -4 -0.0116 0.0493
-3 5 -3 -0.3818 -0.0448
-3 5 -2 -0.6041 0.7310
-3 5 -1 0.6902 1.1464
-3 5 0 1.2007 -0.4434
-3 5 1 -0.4449 -0.6389
-3 5 2 0.0135 0.8948
-3 5 3 1.1894 -0.0404
-3 5 4 0.3523 -0.6667
-3 5 5 0.1567 -0.3697
-3 5 6 -0.0177 -0.2973
-3 5 7 0.1256 -0.0917
-3 5 8 0.0407 -0.3281
-3 5 9 -0.2234 0.0044
-3 5 10 0.1913 0.1708
-3 5 11 0.1462 -0.2746
-3 5 12 -0.2696 -0.0311
-3 5 13 0.0417 0.1967
-3 6 -12 0.0814 -0.0320
-3 6 -11 -0.0515 -0.3356
-3 6 -10 -0.4264 -0.1015
-3 6 -9 -0.1026 0.0711
-3 6 -8 -0.2350 -0.2333
-3 6 -7 -0.4122 -0.0358
-3 6 -6 -0.4735 0.0887
-3 6 -5 -0.2140 0.4448
-3 6 -4 0.1497 -0.0229
-3 6 -3 -0.4790 -0.1367
-3 6 -2 -0.4283 0.6151
-3 6 -1 0.3655 0.6831
-3 6 0 0.6533 0.0026
-3 6 1 0.0870 -0.3940
-3 6 2 -0.3304 0.3036
-3 6 3 0.6798 0.6655
-3 6 4 0.8214 -0.4732
-3 6 5 0.0023 -0.3244
-3 6 6 0.2682 -0.1256
-3 6 7 0.0046 -0.2886
-3 6 8 -0.0034 0.0002
-3 6 9 0.0662 -0.0690
-3 6 10 0.0070 0.0067
-3 6 11 0.1265 -0.0001
-3 6 12 0.0272 -0.1754
-3 6 13 -0.1673 0.0077
-3 7 -11 0.0402 -0.1703
-3 7 -10 -0.1160 -0.2912
-3 7 -9 -0.3180 -0.0820
-3 7 -8 -0.0538 -0.0218
-3 7 -7 -0.2786 -0.2510
-3 7 -6 -0.3931 0.1137
-3 7 -5 -0.1840 0.1914
-3 7 -4 0.0199 0.2204
-3 7 -3 0.0466 -0.1759
-3 7 -2 -0.4846 0.0686
-3 7 -1 0.0504 0.6370
-3 7 1 -0.1981 -0.2966
-3 7 3 0.2560 0.4494
-3 7 4 0.5612 0.1734
-3 7 5 0.3471 -0.3303
-3 7 6 -0.0364 -0.0261
-3 7 7 0.3047 -0.0270
-3 7 8 0.0027 -0.2450
-3 7 9 -0.0311 0.0651
-3 7 10 0.1334 -0.0063
-3 7 11 0.0619 -0.0752
-3 7 12 0.0301 -0.0520
-3 8 -10 -0.0399 -0.0681
-3 8 -9 0.0277 -0.1236
-3 8 -8 -0.1571 -0.1356
-3 8 -7 -0.0326 0.0093
-3 8 -6 -0.1411 -0.1888
-3 8 -5 -0.2705 0.1553
-3 8 -4 0.0642 0.1709
-3 8 -3 0.0822 0.0131
-3 8 -2 0.0235 -0.1457
-3 8 -1 -0.2691 0.0071
-3 8 0 0.1019 0.2804
-3 8 1 0.1540 -0.3089
-3 8 2 -0.5496 -0.0053
-3 8 3 0.0332 0.6095
-3 8 4 0.3457 0.0554
-3 8 5 0.1239 0.0611
-3 8 6 0.2189 -0.0620
-3 8 7 0.0240 -0.0274
-3 8 8 0.1754 -0.0033
-3 8 9 0.0504 -0.1277
-3 8 10 0.0018 -0.0168
-3 9 -8 0.0608 -0.0016
-3 9 -7 0.0219 -0.0983
-3 9 -6 -0.0203 -0.0681
-3 9 -5 -0.1404 -0.0493
-3 9 -4 -0.0249 0.2105
-3 9 -3 0.2100 -0.0475
-3 9 -2 -0.0542 -0.1417
-3 9 -1 -0.0470 -0.0363
-3 9 0 -0.0997 -0.0156
-3 9 1 0.0376 0.0572
-3 9 2 -0.0269 -0.1893
-3 9 3 -0.3239 0.1055
-3 9 4 0.1480 0.3543
-3 9 5 0.2267 -0.1043
-3 9 6 -0.0405 0.0104
-3 9 7 0.1441 0.0635
-3 9 8 0.1036 -0.0679
-3 9 9 0.0336 -0.0458
-3 10 -5 -0.0945 -0.0694
-3 10 -4 -0.0383 0.0817
-3 10 -3 0.1222 0.0245
-3 10 -2 0.0249 -0.2070
-3 10 -1 -0.2437 -0.0330
-3 10 0 -0.0169 0.1939
-3 10 1 0.1201 -0.0164
-3 10 2 -0.0374 -0.0502
-3 10 3 -0.0089 0.0478
-3 10 4 0.0042 0.0416
-3 10 5 0.0791 0.0986
-3 10 6 0.1185 -0.0462
-2 -12 -6 -0.1590 -0.0486
-2 -12 -5 -0.0983 0.0231
-2 -12 -4 -0.1348 -0.0112
-2 -12 -3 -0.0866 0.0382
-2 -12 -2 -0.0707 -0.0100
-2 -12 -1 -0.0445 -0.0104
-2 -12 0 -0.0987 -0.0160
-2 -12 1 0.0084 0.1095
-2 -11 -10 -0.0708 0.0851
-2 -11 -9 -0.0051 0.0288
-2 -11 -8 -0.0911 0.0401
-2 -11 -7 -0.0378 0.0039
-2 -11 -6 -0.1856 -0.0340
-2 -11 -5 -0.1510 0.1220
-2 -11 -4 -0.0181 0.0580
-2 -11 -3 -0.0187 -0.0410
-2 -11 -2 -0.1005 -0.0777
-2 -11 -1 -0.0911 0.0678
-2 -11 0 0.1041 -0.0139
-2 -11 1 -0.0475 -0.1239
-2 -11 2 -0.0190 0.0320
-2 -11 3 0.0311 -0.0604
-2 -11 4 -0.0383 -0.0218
-2 -10 -12 -0.0327 0.1820
-2 -10 -11 0.0353 -0.0305
-2 -10 -10 -0.1907 0.0026
-2 -10 -9 -0.0904 0.1124
-2 -10 -8 -0.1098 -0.0031
-2 -10 -7 -0.1518 -0.0047
-2 -10 -6 -0.2972 0.0010
-2 -10 -5 -0.1651 0.2858
-2 -10 -4 0.1462 0.0284
-2 -10 -3 -0.0701 -0.1782
-2 -10 -2 -0.2047 -0.0474
-2 -10 -1 -0.0825 0.1605
-2 -10 0 0.1798 0.0191
-2 -10 1 0.0477 -0.1630
-2 -10 2 -0.0513 -0.0960
-2 -10 3 -0.0785 -0.0039
-2 -10 4 0.0260 0.0495
-2 -10 5 0.0254 -0.0573
-2 -10 6 -0.0560 0.0012
-2 -10 7 0.0312 0.0158
-2 -9 -13 -0.2046 -0.1729
-2 -9 -12 -0.2917 0.2642
-2 -9 -11 0.1843 0.1422
-2 -9 -10 -0.0543 -0.2927
-2 -9 -9 -0.4182 -0.0384
-2 -9 -8 -0.0953 0.2019
-2 -9 -7 -0.0400 -0.2231
-2 -9 -6 -0.4688 -0.0668
-2 -9 -5 -0.1706 0.3209
-2 -9 -4 0.2322 0.0327
-2 -9 -3 0.0253 -0.3872
-2 -9 -2 -0.4027 -0.2263
-2 -9 -1 -0.2988 0.2811
-2 -9 0 0.3056 0.2215
-2 -9 1 0.1355 -0.3604
-2 -9 2 -0.2599 -0.0183
-2 -9 3 0.0635 0.0988
-2 -9 4 -0.0094 -0.0141
-2 -9 5 0.0785 0.0493
-2 -9 6 0.0589 -0.1047
-2 -9 7 -0.0483 -0.0693
-2 -9 8 -0.0428 -0.0225
-2 -9 9 -0.0268 0.0046
-2 -8 -14 0.0328 -0.0373
-2 -8 -13 -0.2114 -0.1890
-2 -8 -12 -0.3119 0.2009
-2 -8 -11 0.2150 0.1826
-2 -8 -10 0.1125 -0.3389
-2 -8 -9 -0.2552 -0.2901
-2 -8 -8 -0.3265 0.0263
-2 -8 -7 0.1416 0.0447
-2 -8 -6 -0.1864 -0.4853
-2 -8 -5 -0.4373 0.2387
-2 -8 -4 0.3568 0.0875
-2 -8 -3 0.0724 -0.4492
-2 -8 -2 -0.2789 -0.3600
-2 -8 -1 -0.4514 0.0876
-2 -8 0 0.1372 0.3369
-2 -8 1 0.2702 -0.2348
-2 -8 2 -0.2184 -0.2473
-2 -8 3 -0.2011 0.1846
-2 -8 4 0.1693 0.1606
-2 -8 5 0.1440 -0.1029
-2 -8 6 0.0388 -0.0984
-2 -8 7 0.0359 -0.1524
-2 -8 8 -0.1195 -0.1427
-2 -8 9 -0.0787 0.0330
-2 -8 10 0.0135 -0.0180
-2 -7 -15 -0.1931 -0.0064
-2 -7 -14 0.0522 0.1131
-2 -7 -13 0.0142 -0.2545
-2 -7 -12 -0.3742 0.0130
-2 -7 -11 0.1480 0.4314
-2 -7 -10 0.5836 -0.2884
-2 -7 -9 -0.2141 -0.5672
-2 -7 -8 -0.2254 0.1194
-2 -7 -7 0.2299 0.0010
-2 -7 -6 0.1849 -0.3851
-2 -7 -5 -0.3911 -0.3779
-2 -7 -4 -0.1779 0.3483
-2 -7 -3 0.4082 -0.1303
-2 -7 -2 -0.0894 -0.4745
-2 -7 -1 -0.4390 -0.1170
-2 -7 0 -0.0480 0.4288
-2 -7 1 0.4743 -0.2012
-2 -7 2 -0.2549 -0.3763
-2 -7 3 -0.1379 0.0911
-2 -7 4 -0.0487 0.0535
-2 -7 5 0.2258 0.1129
-2 -7 6 0.2115 -0.3207
-2 -7 7 -0.0762 -0.2316
-2 -7 8 -0.0340 -0.1951
-2 -7 9 -0.1471 -0.1286
-2 -7 10 -0.0619 -0.0196
-2 -7 11 -0.0763 -0.0154
-2 -7 12 0.0009 0.0893
-2 -6 -16 -0.0184 -0.1061
-2 -6 -15 -0.1725 0.0089
-2 -6 -14 0.0314 0.0995
-2 -6 -13 0.0851 -0.0975
-2 -6 -12 -0.1104 -0.1164
-2 -6 -11 -0.1571 0.2422
-2 -6 -10 0.5031 0.3920
-2 -6 -9 0.5671 -0.6114
-2 -6 -8 -0.6285 -0.2236
-2 -6 -7 0.3679 0.7095
-2 -6 -6 0.6992 -0.6134
-2 -6 -5 -0.3864 -0.5892
-2 -6 -4 -0.5456 0.0077
-2 -6 -3 -0.0699 0.5909
-2 -6 -2 0.7088 -0.2110
-2 -6 -1 -0.4464 -0.7731
-2 -6 1 0.7393 0.3452
-2 -6 2 0.2597 -0.8485
-2 -6 3 -0.5493 -0.1706
-2 -6 4 0.0595 0.1494
-2 -6 5 0.0993 -0.0807
-2 -6 6 0.2591 -0.1517
-2 -6 7 0.0643 -0.4032
-2 -6 8 -0.0477 -0.2269
-2 -6 9 -0.0403 -0.2456
-2 -6 10 -0.1283 -0.1430
-2 -6 11 -0.1129 -0.0436
-2 -6 12 -0.0836 0.0624
-2 -6 13 0.0195 0.0862
-2 -5 -16 -0.0061 -0.0222
-2 -5 -15 -0.0985 -0.0961
-2 -5 -14 -0.0316 0.1479
-2 -5 -13 0.2461 -0.0773
-2 -5 -12 -0.0900 -0.2723
-2 -5 -11 -0.3248 0.1537
-2 -5 -10 0.1349 0.5963
-2 -5 -9 0.7639 0.0038
-2 -5 -8 -0.2695 -0.6759
-2 -5 -7 -0.6062 1.0002
-2 -5 -6 1.5716 0.3853
-2 -5 -5 -0.1089 -1.6920
-2 -5 -4 -1.3381 0.3600
-2 -5 -3 0.1844 0.7355
-2 -5 -2 0.5650 0.1107
-2 -5 -1 0.3662 -0.9421
-2 -5 0 -1.1995 -0.3220
-2 -5 1 0.1593 1.1950
-2 -5 2 1.2349 -0.5101
-2 -5 3 -0.3413 -1.0751
-2 -5 4 -0.5061 0.1794
-2 -5 5 0.3630 0.0933
-2 -5 6 0.1918 -0.3504
-2 -5 7 0.0730 -0.2442
-2 -5 8 0.0592 -0.2328
-2 -5 9 0.0935 -0.1955
-2 -5 10 0.0046 -0.2942
-2 -5 11 -0.1815 -0.1001
-2 -5 12 -0.0239 0.0687
-2 -5 13 -0.0166 -0.0263
-2 -4 -17 0.0333 -0.0344
-2 -4 -16 -0.0111 -0.0517
-2 -4 -15 0.0471 -0.0127
-2 -4 -14 0.0008 -0.0604
-2 -4 -13 0.1662 0.1217
-2 -4 -12 0.2910 -0.4151
-2 -4 -11 -0.6821 -0.2582
-2 -4 -10 -0.2136 0.9250
-2 -4 -9 0.7919 0.1310
-2 -4 -8 -0.2713 -0.6000
-2 -4 -7 -0.9053 0.5792
-2 -4 -6 0.5894 1.3090
-2 -4 -5 1.3891 -0.9874
-2 -4 -4 -1.7921 -1.2958
-2 -4 -3 -0.9480 2.2242
-2 -4 -2 2.0663 0.4594
-2 -4 -1 0.3602 -1.5354
-2 -4 0 -0.9742 -0.5344
-2 -4 1 -0.5698 0.9301
-2 -4 2 1.2871 0.6529
-2 -4 3 0.8119 -1.2434
-2 -4 4 -0.7428 -0.5557
-2 -4 5 0.0690 0.5110
-2 -4 6 0.6106 -0.3585
-2 -4 7 -0.1640 -0.3930
-2 -4 8 0.1160 0.0580
-2 -4 9 0.1638 -0.2150
-2 -4 10 0.1064 -0.0970
-2 -4 11 0.0515 -0.2721
-2 -4 12 -0.2056 0.0083
-2 -4 13 0.1143 0.0975
-2 -4 14 -0.0433 -0.1200
-2 -3 -17 0.0246 0.0637
-2 -3 -16 0.0848 -0.0055
-2 -3 -15 0.0211 -0.0191
-2 -3 -14 0.1235 0.0269
-2 -3 -13 0.0844 -0.0185
-2 -3 -12 0.3405 -0.0613
-2 -3 -11 -0.2760 -0.7203
-2 -3 -10 -1.0256 0.7532
-2 -3 -9 1.1183 0.8056
-2 -3 -8 -0.0975 -1.5157
-2 -3 -7 -1.8727 0.7374
-2 -3 -6 0.6443 1.4770
-2 -3 -5 0.6882 -0.5299
-2 -3 -4 -0.6949 -0.7802
-2 -3 -3 -1.8650 0.8398
-2 -3 -2 0.9077 2.8765
-2 -3 -1 2.9031 -0.9572
-2 -3 0 -1.1233 -2.0216
-2 -3 1 -1.3134 1.3999
-2 -3 2 1.2542 1.3818
-2 -3 3 1.4462 -0.5463
-2 -3 4 -0.0644 -0.8770
-2 -3 5 -0.2255 0.2840
-2 -3 6 0.6907 0.0816
-2 -3 7 0.1695 -0.6632
-2 -3 8 -0.2992 0.0165
-2 -3 9 0.3206 0.0884
-2 -3 10 0.0848 -0.2689
-2 -3 11 0.0318 -0.0330
-2 -3 12 0.0202 -0.1834
-2 -3 13 -0.1640 0.0253
-2 -3 14 0.0641 0.0835
-2 -3 15 -0.0088 -0.0745
-2 -2 -17 -0.1495 0.1985
-2 -2 -16 0.1961 0.0762
-2 -2 -15 0.0133 -0.1470
-2 -2 -14 -0.0702 0.0813
-2 -2 -13 0.1678 0.0865
-2 -2 -12 0.1480 -0.1115
-2 -2 -11 -0.0188 -0.3234
-2 -2 -10 -0.7949 -0.0761
-2 -2 -9 0.0047 1.2128
-2 -2 -8 1.3437 -0.8602
-2 -2 -7 -2.2118 -1.5305
-2 -2 -6 -1.4048 2.7973
-2 -2 -5 2.4151 0.1590
-2 -2 -4 -1.5203 -2.1268
-2 -2 -3 -2.4492 1.8370
-2 -2 -2 0.2331 2.7240
-2 -2 -1 2.2682 1.5926
-2 -2 0 1.6247 -1.7594
-2 -2 1 -2.3148 -0.3865
-2 -2 2 0.0690 3.1664
-2 -2 3 2.6934 0.3493
-2 -2 4 0.2301 -1.2412
-2 -2 5 -0.2838 0.5214
-2 -2 6 0.9505 0.1542
-2 -2 7 0.2743 -0.7078
-2 -2 8 -0.2034 -0.1940
-2 -2 9 0.0607 0.0081
-2 -2 10 0.1892 -0.1282
-2 -2 11 0.0476 -0.3006
-2 -2 12 -0.1635 -0.1370
-2 -2 13 -0.0415 -0.0090
-2 -2 14 -0.0897 -0.0607
-2 -2 15 -0.0532 0.0952
-2 -1 -17 -0.3119 -0.0381
-2 -1 -16 0.1128 0.2964
-2 -1 -15 0.2343 -0.3003
-2 -1 -14 -0.2803 -0.1396
-2 -1 -13 -0.0081 0.2043
-2 -1 -12 0.2608 -0.0918
-2 -1 -11 -0.1690 -0.4271
-2 -1 -10 -0.5284 0.1099
-2 -1 -9 -0.0824 0.3723
-2 -1 -8 0.4131 0.0602
-2 -1 -7 -0.1155 -1.4259
-2 -1 -6 -2.8904 0.1115
-2 -1 -5 0.5358 3.2281
-2 -1 -4 2.0953 -2.3826
-2 -1 -3 -4.9047 -1.0933
-2 -1 -2 -1.4372 5.4626
-2 -1 -1 2.9474 1.9063
-2 -1 0 1.1133 -0.2356
-2 -1 1 -0.3428 -0.5038
-2 -1 2 -1.6506 1.9036
-2 -1 3 2.1778 2.8644
-2 -1 4 2.1567 -1.4541
-2 -1 5 -1.1866 -0.3771
-2 -1 7 1.2566 -0.9853
-2 -1 8 -0.5176 -0.6512
-2 -1 9 0.1711 0.1716
-2 -1 10 0.2372 -0.4356
-2 -1 11 -0.0046 -0.2244
-2 -1 12 0.0479 -0.3809
-2 -1 13 -0.3268 -0.1647
-2 -1 14 -0.0031 0.1102
-2 -1 15 -0.0200 -0.1412
-2 0 -17 -0.0611 -0.1603
-2 0 -16 -0.0640 0.1325
-2 0 -15 0.3569 -0.1188
-2 0 -14 -0.1175 -0.4230
-2 0 -13 -0.1731 0.0907
-2 0 -11 0.1254 -0.4984
-2 0 -10 -0.6647 -0.3364
-2 0 -9 -0.2053 0.5874
-2 0 -8 0.4661 -0.3270
-2 0 -7 -0.5057 -0.7800
-2 0 -6 -1.4460 -0.4605
-2 0 -5 -1.7493 1.8356
-2 0 -4 2.1690 1.2353
-2 0 -3 -1.4406 -3.6580
-2 0 -2 -5.8490 3.4704
-2 0 -1 2.8169 5.6985
-2 0 0 2.2417 -1.5087
-2 0 1 -1.6663 0.6754
-2 0 2 0.0685 1.7482
-2 0 3 0.3548 1.9136
-2 0 4 2.3984 0.8387
-2 0 5 0.3870 -1.5983
-2 0 6 -0.8205 0.9231
-2 0 8 0.5431 -1.4647
-2 0 9 -0.4798 -0.1076
-2 0 10 0.5661 -0.0319
-2 0 11 0.1291 -0.6022
-2 0 12 -0.0345 -0.1918
-2 0 13 0.0204 -0.3267
-2 0 14 -0.2568 -0.0883
-2 0 15 0.0511 0.0884
-2 1 -16 0.0156 -0.0162
-2 1 -15 0.2696 -0.0217
-2 1 -14 0.1149 -0.3801
-2 1 -13 -0.1561 -0.0671
-2 1 -12 0.2270 0.0373
-2 1 -11 0.2847 -0.3791
-2 1 -10 -0.2388 -0.6165
-2 1 -9 -0.6458 0.0964
-2 1 -8 0.3530 0.3062
-2 1 -7 0.1025 -1.1038
-2 1 -6 -1.6929 -0.6821
-2 1 -5 -1.6337 1.2615
-2 1 -4 0.5023 1.5886
-2 1 -3 0.5839 -1.5410
-2 1 -2 -4.3966 -0.6069
-2 1 -1 -1.8460 5.8008
-2 1 0 4.1303 1.4347
-2 1 1 -1.3918 -2.0760
-2 1 2 -1.7566 3.2424
-2 1 3 2.0788 1.7674
-2 1 4 0.8510 0.0476
-2 1 5 0.8282 0.0660
-2 1 6 -0.0171 -0.2559
-2 1 7 0.4368 0.8885
-2 1 8 1.4758 -0.3869
-2 1 9 -0.0320 -0.9728
-2 1 10 -0.0211 0.1982
-2 1 11 0.5535 -0.2818
-2 1 12 -0.0508 -0.3982
-2 1 13 0.0225 -0.0590
-2 1 14 -0.0024 -0.1915
-2 1 15 -0.1109 -0.0026
-2 1 16 0.0552 0.0001
-2 2 -16 0.0955 -0.0621
-2 2 -15 0.0811 -0.0115
-2 2 -14 0.1979 -0.1511
-2 2 -13 -0.0772 -0.1975
-2 2 -12 0.0602 0.1289
-2 2 -11 0.3760 -0.1842
-2 2 -10 0.0095 -0.5411
-2 2 -9 -0.4449 -0.2354
-2 2 -8 -0.1009 0.2790
-2 2 -7 0.5409 -0.4142
-2 2 -6 -0.7412 -1.4802
-2 2 -5 -2.3380 0.3926
-2 2 -4 0.0779 1.9667
-2 2 -3 0.8398 -1.0105
-2 2 -2 -2.5015 -0.8884
-2 2 -1 -2.2326 2.3666
-2 2 1 1.1548 -0.4290
-2 2 2 -2.0517 0.0254
-2 2 3 -0.1502 3.1883
-2 2 4 2.3363 0.5102
-2 2 5 0.0603 -0.7201
-2 2 6 -0.0519 0.6780
-2 2 7 0.6809 0.4960
-2 2 8 0.8911 0.1220
-2 2 9 0.6466 -0.5740
-2 2 10 -0.1926 -0.2835
-2 2 11 0.2655 0.2350
-2 2 12 0.2817 -0.3709
-2 2 13 -0.2092 -0.1014
-2 2 14 0.0593 0.0371
-2 2 15 -0.0540 -0.0842
-2 3 -16 0.0316 -0.0538
-2 3 -15 0.0208 -0.0575
-2 3 -14 0.0335 -0.0690
-2 3 -13 0.0170 -0.1491
-2 3 -12 -0.1538 -0.0280
-2 3 -11 0.2172 0.1488
-2 3 -10 0.2428 -0.4697
-2 3 -9 -0.4089 -0.2673
-2 3 -8 -0.0358 0.2279
-2 3 -7 0.4371 -0.1812
-2 3 -6 0.1561 -1.0501
-2 3 -5 -1.4678 -0.9720
-2 3 -4 -1.2876 1.4365
-2 3 -3 1.5827 0.3728
-2 3 -2 -0.9915 -2.3384
-2 3 -1 -2.7455 1.3203
-2 3 0 0.5692 1.6347
-2 3 1 -0.1496 -0.1176
-2 3 2 -0.4817 0.5457
-2 3 4 0.3444 1.7792
-2 3 5 1.3605 0.0132
-2 3 6 -0.3780 -0.2467
-2 3 7 0.1361 1.0471
-2 3 8 1.0043 0.2410
-2 3 9 0.3865 -0.3248
-2 3 10 0.0845 -0.1201
-2 3 11 0.0113 -0.0033
-2 3 12 0.1684 0.0165
-2 3 13 -0.0233 -0.2728
-2 3 14 -0.2433 0.0431
-2 3 15 0.0262 0.0529
-2 4 -15 -0.0774 -0.1053
-2 4 -14 0.0100 -0.0247
-2 4 -13 0.0016 -0.1793
-2 4 -12 -0.1435 -0.1179
-2 4 -11 -0.0720 0.1041
-2 4 -10 0.3616 -0.0678
-2 4 -9 -0.0991 -0.5849
-2 4 -8 -0.3302 0.2168
-2 4 -7 0.6173 0.0009
-2 4 -6 0.2629 -0.8625
-2 4 -5 -0.5255 -0.8377
-2 4 -4 -0.9857 0.1033
-2 4 -3 0.4025 0.7864
-2 4 -2 0.9024 -1.3795
-2 4 -1 -2.1818 -1.3773
-2 4 0 -1.4182 2.1057
-2 4 1 1.3496 0.4627
-2 4 2 -0.8119 -0.7878
-2 4 3 -0.8281 1.0732
-2 4 4 0.1232 0.8803
-2 4 5 0.4345 0.6822
-2 4 6 0.3433 -0.0235
-2 4 7 -0.2605 0.4086
-2 4 8 0.5213 0.6558
-2 4 9 0.4999 -0.2422
-2 4 10 -0.1998 -0.0423
-2 4 11 0.2182 0.2391
-2 4 12 0.1451 -0.2795
-2 4 13 -0.1682 -0.1037
-2 4 14 -0.1023 -0.0801
-2 4 15 -0.1630 0.0287
-2 5 -14 -0.0391 -0.0857
-2 5 -13 0.0465 -0.0898
-2 5 -12 -0.1099 -0.1627
-2 5 -11 -0.0158 0.1049
-2 5 -10 0.2396 -0.0543
-2 5 -9 0.2394 -0.2837
-2 5 -8 -0.0933 -0.3746
-2 5 -7 0.1065 0.1101
-2 5 -6 0.5742 -0.5960
-2 5 -5 -0.4141 -0.8744
-2 5 -4 -0.5587 0.0499
-2 5 -3 0.2705 0.1942
-2 5 -2 0.4589 -0.8197
-2 5 -1 -0.9269 -1.2028
-2 5 0 -1.7688 0.4567
-2 5 1 0.0847 1.6422
-2 5 2 0.9378 -0.4937
-2 5 3 -1.3346 -0.4036
-2 5 4 -0.4306 1.4477
-2 5 5 0.5800 0.4639
-2 5 6 0.0919 0.1130
-2 5 7 -0.0776 0.1824
-2 5 8 0.0059 0.4368
-2 5 9 0.3311 0.1524
-2 5 10 -0.0200 -0.1181
-2 5 11 -0.1003 0.2457
-2 5 12 0.3700 0.0754
-2 5 13 0.0078 -0.4216
-2 5 14 -0.2855 -0.0117
-2 6 -13 0.0286 -0.0783
-2 6 -12 -0.0205 -0.0986
-2 6 -11 -0.1224 0.1006
-2 6 -10 0.3564 0.2005
-2 6 -9 0.3193 -0.3474
-2 6 -8 0.0926 -0.1988
-2 6 -7 0.1845 -0.3322
-2 6 -6 0.1370 -0.3221
-2 6 -5 0.0427 -0.7399
-2 6 -4 -0.6915 -0.3116
-2 6 -3 0.0895 0.3144
-2 6 -2 0.4618 -0.7612
-2 6 0 -1.4576 0.3917
-2 6 1 -0.1658 1.0322
-2 6 2 0.4501 0.1018
-2 6 3 -0.4396 -0.5300
-2 6 4 -0.9984 0.6894
-2 6 5 0.4224 0.8680
-2 6 6 0.1102 -0.1882
-2 6 7 -0.2213 0.3078
-2 6 8 0.0790 0.1547
-2 6 9 -0.0966 0.1333
-2 6 10 0.0015 0.1956
-2 6 11 0.0705 0.1302
-2 6 12 0.0890 0.0753
-2 6 13 0.1833 -0.0480
-2 7 -12 -0.0073 -0.0263
-2 7 -11 -0.0575 0.0243
-2 7 -10 -0.0119 0.2048
-2 7 -9 0.4083 0.1199
-2 7 -8 0.2136 -0.3904
-2 7 -7 -0.0091 -0.1218
-2 7 -6 0.2280 -0.3091
-2 7 -5 -0.0305 -0.4891
-2 7 -4 -0.2843 -0.4740
-2 7 -3 -0.3703 -0.0026
-2 7 -2 0.2988 -0.1956
-2 7 -1 -0.3215 -0.9952
-2 7 0 -1.2776 -0.1207
-2 7 2 0.4586 -0.0794
-2 7 3 -0.4743 -0.4293
-2 7 5 -0.2270 0.5738
-2 7 6 0.3302 0.1733
-2 7 7 -0.2697 -0.2152
-2 7 8 -0.2130 0.4071
-2 7 9 0.1292 0.0749
-2 7 10 -0.1626 0.0700
-2 7 11 -0.0127 0.2497
-2 7 12 0.1516 0.1064
-2 7 13 0.0595 -0.0360
-2 8 -11 -0.0871 0.0127
-2 8 -10 -0.0284 0.1055
-2 8 -9 0.0075 0.0632
-2 8 -8 0.1524 0.0493
-2 8 -7 0.0420 -0.2576
-2 8 -6 -0.0877 0.0131
-2 8 -5 0.2466 -0.2453
-2 8 -4 -0.2039 -0.4473
-2 8 -3 -0.2271 -0.0921
-2 8 -2 -0.0072 -0.1129
-2 8 -1 0.0050 -0.3719
-2 8 0 -0.4538 -0.4048
-2 8 1 -0.5119 0.2640
-2 8 2 0.2988 0.2600
-2 8 3 0.0201 -0.5965
-2 8 4 -0.6631 -0.0026
-2 8 5 -0.0794 0.2676
-2 8 6 -0.1543 0.0782
-2 8 7 0.0352 0.1190
-2 8 8 -0.2052 -0.0653
-2 8 9 -0.1239 0.2986
-2 8 10 0.0783 0.0769
-2 8 11 -0.0469 0.0747
-2 8 12 -0.0052 0.0888
-2 9 -9 0.0006 0.0980
-2 9 -8 -0.0237 -0.0954
-2 9 -7 -0.1329 0.0168
-2 9 -6 -0.0315 0.0244
-2 9 -5 0.0811 0.0271
-2 9 -4 0.0993 -0.2954
-2 9 -3 -0.2845 -0.1182
-2 9 -2 0.1018 0.1208
-2 9 -1 0.1295 -0.2880
-2 9 0 -0.1933 -0.2165
-2 9 1 -0.1719 0.0134
-2 9 2 -0.0370 0.0929
-2 9 3 0.1708 -0.0204
-2 9 4 -0.0800 -0.3795
-2 9 5 -0.4504 0.0719
-2 9 6 0.0404 0.2095
-2 9 7 -0.1029 -0.0768
-2 9 8 -0.1373 0.1405
-2 9 9 -0.0295 0.1030
-2 9 10 -0.0010 0.0823
-2 10 -7 -0.0286 -0.0934
-2 10 -6 -0.1618 0.0617
-2 10 -5 0.0947 0.1058
-2 10 -4 0.0835 -0.1020
-2 10 -3 -0.0439 -0.0767
-2 10 -2 0.0048 0.0858
-2 10 -1 0.2609 -0.0507
-2 10 0 -0.0113 -0.3772
-2 10 1 -0.3580 -0.0229
-2 10 2 0.0023 0.2353
-2 10 3 0.0781 -0.0731
-2 10 4 -0.0510 -0.0187
-2 10 5 -0.0516 -0.1562
-2 10 6 -0.3064 0.0551
-2 10 7 0.0507 0.1642
-2 10 8 -0.0733 -0.0919
-2 11 -2 0.1723 0.0543
-2 11 -1 0.1568 -0.1235
-2 11 0 0.0445 -0.1992
-2 11 1 -0.1923 -0.1928
-2 11 2 -0.2250 0.1320
-2 11 3 0.0920 0.0948
-2 11 4 -0.0401 -0.1421
-2 11 5 -0.1190 0.0263
-1 -12 -6 0.1776 0.1165
-1 -12 -5 0.1343 -0.0835
-1 -12 -4 0.0252 0.0038
-1 -12 -3 0.0385 -0.0094
-1 -12 -2 -0.0294 0.0417
-1 -12 -1 -0.0236 0.0431
-1 -12 0 -0.0532 0.0962
-1 -11 -9 -0.1606 -0.1032
-1 -11 -8 -0.0265 0.0253
-1 -11 -7 -0.1081 0.0027
-1 -11 -6 0.0567 0.1987
-1 -11 -5 0.1728 -0.0688
-1 -11 -4 -0.1055 -0.0548
-1 -11 -3 -0.0467 0.1370
-1 -11 -2 0.0232 0.0708
-1 -11 -1 -0.0239 0.0207
-1 -11 0 -0.1399 0.0269
-1 -11 1 -0.0805 0.1881
-1 -11 2 0.0622 0.0257
-1 -11 3 -0.0667 -0.0155
-1 -10 -12 0.0750 -0.1923
-1 -10 -11 -0.1689 -0.0929
-1 -10 -10 0.1663 0.0702
-1 -10 -9 0.1213 -0.4054
-1 -10 -8 -0.2690 -0.1534
-1 -10 -7 -0.0575 0.0286
-1 -10 -6 0.0039 0.0431
-1 -10 -5 0.0880 -0.1156
-1 -10 -4 -0.2454 -0.0483
-1 -10 -3 -0.0356 0.2857
-1 -10 -2 0.1945 0.0577
-1 -10 -1 0.0146 -0.1868
-1 -10 0 -0.2832 -0.0145
-1 -10 1 -0.0549 0.2220
-1 -10 2 0.0894 0.0192
-1 -10 3 0.0450 -0.1020
-1 -10 4 -0.1048 -0.1752
-1 -10 5 -0.1836 -0.0012
-1 -10 6 -0.0556 0.0509
-1 -10 7 -0.0627 0.0197
-1 -10 8 -0.0255 0.1084
-1 -9 -13 0.0283 0.0208
-1 -9 -12 0.1820 -0.2407
-1 -9 -11 -0.1748 -0.2083
-1 -9 -10 0.0228 0.1529
-1 -9 -9 0.4142 -0.0911
-1 -9 -8 0.0935 -0.5358
-1 -9 -7 -0.3266 -0.0788
-1 -9 -6 0.1473 0.1564
-1 -9 -5 0.1330 -0.2376
-1 -9 -4 -0.2821 -0.1007
-1 -9 -3 -0.1201 0.4213
-1 -9 -2 0.4440 0.2026
-1 -9 -1 0.2435 -0.3229
-1 -9 0 -0.2699 -0.2786
-1 -9 1 -0.2748 0.3271
-1 -9 2 0.3999 0.1493
-1 -9 3 0.0528 -0.3509
-1 -9 4 -0.1217 -0.0976
-1 -9 5 -0.1595 -0.0930
-1 -9 6 -0.1250 0.1272
-1 -9 7 0.0059 0.0425
-1 -9 8 -0.0560 0.0840
-1 -9 9 0.0431 0.0791
-1 -9 10 -0.0033 0.0024
-1 -8 -14 0.0081 -0.1289
-1 -8 -13 0.0653 0.0159
-1 -8 -12 0.2294 -0.2144
-1 -8 -11 -0.2502 -0.2708
-1 -8 -10 -0.0719 0.3803
-1 -8 -9 0.4576 0.0660
-1 -8 -8 0.2885 -0.2198
-1 -8 -7 -0.0265 -0.3315
-1 -8 -6 -0.1708 0.2402
-1 -8 -5 0.4391 0.0155
-1 -8 -4 -0.1953 -0.2859
-1 -8 -3 -0.1903 0.3973
-1 -8 -2 0.3257 0.3823
-1 -8 -1 0.5008 -0.1169
-1 -8 0 -0.1069 -0.3913
-1 -8 1 -0.3121 0.2302
-1 -8 2 0.2414 0.3854
-1 -8 3 0.4287 -0.1448
-1 -8 4 -0.1025 -0.3056
-1 -8 5 -0.1671 0.1187
-1 -8 6 0.0406 0.1345
-1 -8 7 0.0690 0.0737
-1 -8 8 0.0382 0.0379
-1 -8 9 0.0416 0.0168
-1 -8 10 -0.0452 -0.0202
-1 -8 11 -0.0346 0.0435
-1 -7 -15 0.0987 0.0481
-1 -7 -14 0.0671 -0.1777
-1 -7 -13 -0.1023 0.0153
-1 -7 -12 0.1659 0.0297
-1 -7 -11 -0.0008 -0.2916
-1 -7 -10 -0.4653 0.0853
-1 -7 -7 -0.0671 -0.2709
-1 -7 -6 -0.2858 0.1522
-1 -7 -5 0.2492 0.5638
-1 -7 -4 0.5485 -0.3544
-1 -7 -3 -0.5730 -0.1776
-1 -7 -2 -0.0325 0.7238
-1 -7 -1 0.5812 0.2269
-1 -7 0 0.2286 -0.4181
-1 -7 1 -0.5724 0.0836
-1 -7 2 0.2111 0.7494
-1 -7 3 0.4906 0.0083
-1 -7 4 0.1303 -0.0616
-1 -7 5 -0.0805 0.0003
-1 -7 6 -0.0008 0.3936
-1 -7 7 0.3473 0.1660
-1 -7 8 0.1421 -0.0088
-1 -7 9 0.1254 -0.0048
-1 -7 10 0.0149 -0.0830
-1 -7 11 -0.0247 -0.0186
-1 -7 12 -0.0080 -0.0947
-1 -6 -16 0.0126 -0.0345
-1 -6 -15 0.0009 -0.0468
-1 -6 -14 -0.0208 -0.0398
-1 -6 -13 -0.0734 -0.0291
-1 -6 -12 -0.0458 0.0831
-1 -6 -11 0.1185 -0.0332
-1 -6 -10 -0.1606 -0.3524
-1 -6 -9 -0.6595 0.2406
-1 -6 -8 0.4013 0.6247
-1 -6 -7 0.2097 -0.7109
-1 -6 -6 -0.8938 0.1638
-1 -6 -5 0.1594 0.7881
-1 -6 -4 0.6200 0.0889
-1 -6 -3 0.1178 -0.7022
-1 -6 -2 -1.0748 0.1665
-1 -6 -1 0.3419 1.3171
-1 -6 0 1.0268 -0.3673
-1 -6 1 -0.6826 -0.5634
-1 -6 2 -0.5293 1.1124
-1 -6 3 0.9419 0.6487
-1 -6 4 0.2891 -0.3092
-1 -6 5 -0.0975 0.1802
-1 -6 6 -0.0054 0.3381
-1 -6 8 0.3551 -0.0081
-1 -6 9 0.0865 0.0347
-1 -6 10 0.1333 -0.0316
-1 -6 11 0.0278 -0.0445
-1 -6 12 0.0655 -0.1379
-1 -6 13 -0.1255 -0.1738
-1 -5 -16 0.0466 -0.1060
-1 -5 -15 -0.0681 0.0004
-1 -5 -14 0.0041 -0.0824
-1 -5 -13 -0.2457 -0.0168
-1 -5 -12 -0.0472 0.2913
-1 -5 -11 0.3654 0.0106
-1 -5 -10 0.1116 -0.6216
-1 -5 -8 -0.3005 0.6523
-1 -5 -7 0.8517 -0.4825
-1 -5 -6 -1.3159 -1.1791
-1 -5 -5 -0.9033 1.6788
-1 -5 -4 1.5508 0.0929
-1 -5 -3 -0.4633 -1.1787
-1 -5 -2 -1.0170 0.2488
-1 -5 -1 -0.5042 1.1456
-1 -5 0 1.1668 0.8606
-1 -5 1 0.2606 -1.1628
-1 -5 2 -1.5091 0.4861
-1 -5 3 0.4242 1.7374
-1 -5 4 1.1718 -0.0470
-1 -5 5 -0.2304 -0.3500
-1 -5 6 -0.1954 0.5436
-1 -5 7 0.2547 0.4188
-1 -5 8 0.3111 0.1592
-1 -5 9 0.0849 -0.0701
-1 -5 10 -0.0397 0.1245
-1 -5 11 0.1527 0.0487
-1 -5 12 0.0698 -0.1571
-1 -5 13 -0.1006 -0.1467
-1 -5 14 -0.0790 -0.0259
-1 -4 -17 -0.0680 0.0742
-1 -4 -16 0.1325 0.0181
-1 -4 -15 -0.1096 -0.1863
-1 -4 -14 -0.1367 0.1583
-1 -4 -13 0.0151 -0.1291
-1 -4 -12 -0.4318 0.2338
-1 -4 -11 0.6389 0.5563
-1 -4 -9 -0.8656 -0.7811
-1 -4 -8 -0.2274 0.4018
-1 -4 -7 0.6576 -0.4069
-1 -4 -6 -0.1924 -1.5155
-1 -4 -5 -2.0174 -0.2256
-1 -4 -4 0.4100 1.9482
-1 -4 -3 1.6876 -1.9299
-1 -4 -2 -2.9686 -1.5205
-1 -4 -1 -1.3988 2.5403
-1 -4 0 1.2817 0.9418
-1 -4 1 0.2872 -0.8279
-1 -4 2 -1.4612 -0.2842
-1 -4 3 -0.9633 1.7745
-1 -4 4 1.1476 1.1954
-1 -4 5 0.5293 -0.5905
-1 -4 6 -0.7114 0.1478
-1 -4 7 0.2083 0.7902
-1 -4 8 0.3693 -0.0779
-1 -4 9 -0.0831 -0.0074
-1 -4 10 -0.0210 0.0027
-1 -4 11 -0.0993 0.1086
-1 -4 12 0.1921 0.0090
-1 -4 13 -0.0765 -0.2878
-1 -4 14 -0.2007 0.0522
-1 -4 15 0.0693 0.0100
-1 -3 -17 -0.0443 -0.0454
-1 -3 -16 -0.0388 0.0304
-1 -3 -15 0.0435 -0.0245
-1 -3 -14 -0.1560 -0.1011
-1 -3 -13 -0.0866 0.1567
-1 -3 -12 -0.0832 -0.0473
-1 -3 -11 0.0326 0.6160
-1 -3 -10 1.4588 -0.3476
-1 -3 -9 -0.5304 -1.8473
-1 -3 -8 -0.9972 0.9726
-1 -3 -7 2.0158 -0.1672
-1 -3 -6 -0.2752 -2.4784
-1 -3 -5 -1.4466 -0.2726
-1 -3 -4 -0.2578 0.3068
-1 -3 -3 1.0849 -0.3746
-1 -3 -2 -0.5786 -3.5480
-1 -3 -1 -5.0287 -0.0347
-1 -3 0 -0.1396 3.8182
-1 -3 1 1.7923 -1.2124
-1 -3 2 -2.4102 -1.4678
-1 -3 3 -2.1293 1.7330
-1 -3 4 0.2649 1.7926
-1 -3 5 0.6914 0.1229
-1 -3 6 -0.4391 -0.1886
-1 -3 7 -0.3391 0.7948
-1 -3 8 0.6671 0.3449
-1 -3 9 0.0587 -0.4403
-1 -3 10 -0.2261 0.1429
-1 -3 11 0.1794 0.0149
-1 -3 12 -0.0122 -0.1254
-1 -3 13 0.0557 -0.1002
-1 -3 14 -0.1003 -0.2070
-1 -3 15 -0.1471 0.0306
-1 -2 -17 0.1327 -0.0954
-1 -2 -16 -0.1040 -0.1112
-1 -2 -15 -0.0900 0.1284
-1 -2 -14 0.1514 0.0742
-1 -2 -13 -0.0177 -0.1562
-1 -2 -12 -0.1174 0.1766
-1 -2 -11 0.2790 0.2320
-1 -2 -10 0.7422 0.0518
-1 -2 -8 -1.4184 -0.6957
-1 -2 -7 0.8001 1.9959
-1 -2 -6 3.1114 -2.3863
-1 -2 -5 -2.6437 -3.1548
-1 -2 -4 -0.9965 2.3006
-1 -2 -3 3.1404 -1.4992
-1 -2 -2 -1.0294 -4.8481
-1 -2 0 -3.8475 2.4776
-1 -2 1 1.4601 1.7494
-1 -2 2 -0.4717 -3.2089
-1 -2 3 -4.4499 0.0412
-1 -2 4 -0.9544 3.0194
-1 -2 5 0.9585 0.3853
-1 -2 6 -0.7261 -0.2748
-1 -2 7 -0.4751 0.9909
-1 -2 8 0.5769 0.5656
-1 -2 10 -0.0521 -0.1002
-1 -2 11 0.0871 0.2223
-1 -2 12 0.4295 -0.0623
-1 -2 13 0.0742 -0.3776
-1 -2 14 -0.0801 -0.0677
-1 -2 15 0.0747 -0.1472
-1 -2 16 -0.1708 -0.1184
-1 -1 -17 0.1367 0.1691
-1 -1 -16 0.1203 -0.2274
-1 -1 -15 -0.3221 0.1206
-1 -1 -14 0.1978 0.4201
-1 -1 -13 0.3420 -0.0585
-1 -1 -12 -0.0868 -0.0526
-1 -1 -11 0.2174 0.5209
-1 -1 -10 0.9666 -0.1194
-1 -1 -9 0.2935 -0.7205
-1 -1 -8 -0.0463 -0.4660
-1 -1 -7 -0.3771 0.3968
-1 -1 -6 2.4210 0.8155
-1 -1 -5 1.7211 -4.5080
-1 -1 -4 -4.5587 -1.0230
-1 -1 -3 3.0359 3.3389
-1 -1 -2 3.8291 -7.7365
-1 -1 -1 -7.6537 -5.6781
-1 -1 0 -4.8142 2.9718
-1 -1 1 0.1459 1.1968
-1 -1 2 -0.1154 -1.6638
-1 -1 3 -3.1747 -2.1105
-1 -1 4 -3.5716 2.1648
-1 -1 5 0.9390 2.1898
-1 -1 6 0.1571 -1.0871
-1 -1 7 -1.5954 0.6859
-1 -1 8 0.5334 1.4524
-1 -1 9 0.6911 -0.1811
-1 -1 10 -0.1484 0.0946
-1 -1 11 0.3004 0.3609
-1 -1 12 0.3637 0.0640
-1 -1 13 0.4130 -0.0564
-1 -1 14 0.1641 -0.3518
-1 -1 15 -0.0655 -0.0559
-1 -1 16 0.1292 -0.1176
-1 0 -17 -0.0921 0.0551
-1 0 -16 0.1114 0.1337
-1 0 -15 -0.1692 -0.0611
-1 0 -14 -0.1758 0.5607
-1 0 -13 0.4704 0.3349
-1 0 -12 0.1058 -0.0586
-1 0 -11 -0.0467 0.4859
-1 0 -10 0.9154 0.5788
-1 0 -9 0.9147 -0.8357
-1 0 -8 -0.5354 -0.4051
-1 0 -7 0.4167 0.6671
-1 0 -6 1.4237 -0.0189
-1 0 -5 2.1998 -1.9612
-1 0 -4 -1.6494 -3.8800
-1 0 -3 -1.8131 2.4507
-1 0 -2 6.7464 -2.4568
-1 0 -1 -3.7209 -11.3045
-1 0 0 -9.8477 1.7520
-1 0 1 1.4686 3.4457
-1 0 2 -0.3684 -3.3774
-1 0 3 -3.1864 -0.7395
-1 0 4 -2.4112 0.4479
-1 0 5 -1.1751 2.0964
-1 0 6 1.1572 0.3480
-1 0 7 -1.1336 -0.8489
-1 0 8 -0.9413 1.6314
-1 0 9 1.0395 0.7517
-1 0 10 0.0620 -0.3064
-1 0 11 -0.1751 0.5523
-1 0 12 0.5124 0.3520
-1 0 13 0.2382 -0.0378
-1 0 14 0.2788 0.1203
-1 0 15 0.2665 -0.2354
-1 0 16 -0.0667 -0.0899
-1 1 -17 -0.0357 0.0577
-1 1 -16 -0.0463 0.0633
-1 1 -15 -0.1609 0.0745
-1 1 -14 -0.2294 0.3444
-1 1 -13 0.1048 0.4586
-1 1 -12 0.1318 0.1657
-1 1 -11 -0.1467 0.3503
-1 1 -10 0.3160 0.8402
-1 1 -9 1.2197 0.0963
-1 1 -7 -0.6369 0.6243
-1 1 -6 1.8720 0.9274
-1 1 -5 2.2436 -2.1483
-1 1 -4 -0.6311 -3.0157
-1 1 -3 -1.5375 -0.1134
-1 1 -2 3.2203 0.0114
-1 1 1 -2.9703 5.6332
-1 1 2 3.4153 -1.9779
-1 1 3 -4.1829 -3.3590
-1 1 4 -2.6080 2.3371
-1 1 5 0.0309 0.6817
-1 1 6 -0.3938 0.4812
-1 1 7 -0.0585 -0.1811
-1 1 8 -1.2393 0.3075
-1 1 9 0.0794 1.3983
-1 1 10 0.6367 -0.0529
-1 1 11 -0.3834 0.0074
-1 1 12 0.0455 0.5240
-1 1 13 0.2557 0.1023
-1 1 14 0.0423 0.1062
-1 1 15 0.2515 0.1455
-1 1 16 0.1846 -0.1624
-1 2 -16 -0.0480 0.1316
-1 2 -15 -0.0054 -0.0235
-1 2 -14 -0.2865 0.0883
-1 2 -13 -0.0519 0.3585
-1 2 -12 0.0059 0.0540
-1 2 -11 -0.3392 0.2743
-1 2 -10 0.0111 0.7186
-1 2 -9 0.6874 0.4916
-1 2 -8 0.6524 -0.4686
-1 2 -7 -0.5962 -0.2686
-1 2 -6 0.3327 1.5376
-1 2 -5 3.0700 -0.3318
-1 2 -4 0.4307 -3.5725
-1 2 -3 -1.9082 -0.1272
-1 2 -2 2.5504 0.3297
-1 2 -1 1.7383 -4.8387
-1 2 0 -3.4834 -4.3163
-1 2 1 -4.1318 0.7043
-1 2 2 0.8357 1.7008
-1 2 3 0.3854 -3.2612
-1 2 4 -4.1648 -0.6533
-1 2 5 -0.5499 2.6026
-1 2 6 0.7955 -0.4593
-1 2 7 -1.0807 -0.3675
-1 2 8 -0.7261 0.5045
-1 2 9 -0.4088 0.7294
-1 2 10 0.4432 0.5487
-1 2 11 0.1169 -0.4013
-1 2 12 -0.4264 0.1508
-1 2 13 0.1300 0.2353
-1 2 14 -0.0180 -0.0136
-1 2 15 0.0493 0.1688
-1 2 16 0.1671 0.0075
-1 3 -16 -0.0329 0.0480
-1 3 -15 0.0398 0.0653
-1 3 -14 0.0246 -0.0592
-1 3 -13 -0.1545 0.0165
-1 3 -12 0.0146 0.1068
-1 3 -11 -0.2225 -0.1491
-1 3 -10 -0.4515 0.5380
-1 3 -9 0.5284 0.6184
-1 3 -8 0.4589 -0.3459
-1 3 -7 -0.4177 -0.2115
-1 3 -6 -0.3462 0.9430
-1 3 -5 1.5822 1.1462
-1 3 -4 2.1005 -1.7076
-1 3 -3 -1.4459 -1.8268
-1 3 -2 0.1864 2.0197
-1 3 -1 3.6540 -2.0774
-1 3 0 -1.8971 -4.1931
-1 3 1 -2.1923 0.5958
-1 3 2 0.2547 -0.2115
-1 3 3 -0.2680 -0.7798
-1 3 4 -0.7826 -1.3966
-1 3 5 -2.1488 0.2388
-1 3 6 0.2794 1.1867
-1 3 8 -1.4790 0.0730
-1 3 9 -0.1892 0.9022
-1 3 10 0.1843 0.1736
-1 3 11 0.1839 0.0279
-1 3 12 0.0058 -0.3292
-1 3 13 -0.2685 0.0464
-1 3 14 0.1259 0.0676
-1 3 15 -0.0446 -0.0837
-1 3 16 0.0243 0.0914
-1 4 -15 0.0594 0.0630
-1 4 -14 0.0896 -0.0057
-1 4 -13 0.0507 -0.0335
-1 4 -12 -0.0100 -0.0686
-1 4 -11 -0.0703 -0.0552
-1 4 -10 -0.3402 0.0145
-1 4 -9 -0.0942 0.7028
-1 4 -8 0.7719 0.0462
-1 4 -7 -0.3449 -0.5925
-1 4 -6 -0.6815 0.7935
-1 4 -5 0.7497 1.1425
-1 4 -4 1.3725 -0.2325
-1 4 -3 0.0191 -1.0379
-1 4 -2 -0.7320 0.6060
-1 4 -1 1.8171 1.1798
-1 4 1 -2.3429 -1.8438
-1 4 2 -0.3456 1.5956
-1 4 3 1.2385 -1.0720
-1 4 4 -0.9483 -1.2119
-1 4 5 -0.8505 -0.1506
-1 4 6 -0.5091 0.2413
-1 4 7 0.1709 -0.1998
-1 4 8 -0.7519 -0.6303
-1 4 9 -0.7505 0.6095
-1 4 10 0.3947 0.3660
-1 4 11 0.0506 -0.2983
-1 4 12 -0.0332 0.0896
-1 4 13 0.1950 -0.1865
-1 4 14 -0.1160 -0.1136
-1 4 15 0.0798 -0.0173
-1 4 16 -0.0585 -0.1024
-1 5 -14 0.0295 0.1067
-1 5 -13 0.0945 -0.0222
-1 5 -12 0.0377 0.0013
-1 5 -11 -0.0158 -0.1573
-1 5 -10 -0.3182 0.0673
-1 5 -9 -0.1348 0.3895
-1 5 -8 0.2742 0.4851
-1 5 -7 0.4508 -0.2298
-1 5 -6 -0.6372 -0.0235
-1 5 -5 0.1179 1.1959
-1 5 -3 -0.0650 -0.6611
-1 5 -2 -0.4720 0.7794
-1 5 -1 1.1877 0.8927
-1 5 0 1.4676 -0.7225
-1 5 1 0.0731 -1.7157
-1 5 2 -1.5104 -0.1669
-1 5 3 0.6923 1.1071
-1 5 4 0.8431 -1.5096
-1 5 5 -1.2886 -0.6269
-1 5 6 -0.1677 0.4655
-1 5 7 0.1659 -0.2742
-1 5 8 -0.2271 -0.4229
-1 5 9 -0.4719 -0.0613
-1 5 10 -0.0829 0.2627
-1 5 11 0.2014 -0.0377
-1 5 12 -0.0596 -0.1698
-1 5 13 0.0197 0.1397
-1 5 15 -0.0668 -0.2194
-1 6 -13 0.0297 0.0882
-1 6 -12 0.0277 -0.0464
-1 6 -11 0.0284 -0.0282
-1 6 -10 -0.2113 -0.2176
-1 6 -9 -0.4218 0.4044
-1 6 -8 0.2403 0.4886
-1 6 -7 0.2805 0.1936
-1 6 -6 0.1825 -0.0202
-1 6 -5 -0.2028 0.4283
-1 6 -4 0.7900 0.6283
-1 6 -3 0.4837 -0.5789
-1 6 -2 -0.5846 0.2465
-1 6 -1 0.7082 1.2017
-1 6 0 1.7184 -0.5174
-1 6 1 -0.1027 -1.4580
-1 6 2 -0.7418 -0.0542
-1 6 3 0.1063 0.4267
-1 6 4 0.7382 -0.3271
-1 6 5 -0.4179 -0.9716
-1 6 6 -0.5889 0.4636
-1 6 7 0.5183 0.0388
-1 6 8 -0.0664 -0.3925
-1 6 9 -0.0580 -0.0872
-1 6 10 -0.0594 -0.1668
-1 6 11 -0.1452 -0.0542
-1 6 12 -0.0203 0.0960
-1 6 13 0.0894 -0.0328
-1 6 14 0.0439 0.0160
-1 6 15 0.1654 -0.1360
-1 7 -12 0.0277 -0.0277
-1 7 -11 0.0141 -0.0678
-1 7 -10 -0.0061 -0.1246
-1 7 -9 -0.2984 -0.1125
-1 7 -8 -0.2086 0.5071
-1 7 -7 0.4351 0.2874
-1 7 -6 0.1360 -0.0136
-1 7 -5 0.0669 0.2301
-1 7 -4 0.2670 0.4398
-1 7 -3 0.6625 0.0350
-1 7 -2 -0.0722 -0.1995
-1 7 -1 0.1305 0.7152
-1 7 0 1.1607 0.2045
-1 7 1 0.6040 -1.0503
-1 7 3 0.1387 0.6100
-1 7 4 0.5539 -0.3483
-1 7 5 -0.1120 -0.4779
-1 7 6 -0.4663 -0.0853
-1 7 7 0.0266 0.5474
-1 7 8 0.5407 -0.1901
-1 7 9 -0.1344 -0.3239
-1 7 10 -0.0258 -0.0240
-1 7 11 -0.0485 -0.1529
-1 7 12 -0.1745 -0.0228
-1 7 13 -0.0124 0.1472
-1 8 -11 0.0834 -0.0249
-1 8 -10 0.0834 -0.1678
-1 8 -9 -0.0878 -0.0843
-1 8 -8 -0.0497 0.0447
-1 8 -7 0.0747 0.2414
-1 8 -6 0.3440 -0.0394
-1 8 -5 -0.1686 -0.0611
-1 8 -4 0.0925 0.4698
-1 8 -3 0.4249 0.1373
-1 8 -2 0.1598 -0.0671
-1 8 -1 -0.0285 0.2186
-1 8 0 0.4336 0.3562
-1 8 1 0.5359 -0.2535
-1 8 2 -0.0983 -0.4100
-1 8 3 -0.2160 0.2731
-1 8 4 0.5355 0.0768
-1 8 5 -0.0296 -0.5131
-1 8 6 -0.2301 0.0232
-1 8 7 -0.1622 0.0196
-1 8 8 0.0754 0.3545
-1 8 9 0.3627 -0.2461
-1 8 10 -0.2436 -0.2284
-1 8 11 -0.0726 0.0514
-1 8 12 -0.0625 -0.0330
-1 8 13 -0.0484 0.0165
-1 9 -9 0.0292 -0.1802
-1 9 -8 -0.0479 0.0995
-1 9 -7 0.2457 0.0431
-1 9 -6 0.1162 -0.1216
-1 9 -5 -0.0379 -0.1290
-1 9 -4 -0.2388 0.2151
-1 9 -3 0.3041 0.3461
-1 9 -2 0.1715 -0.1966
-1 9 -1 -0.1697 0.0871
-1 9 0 0.1234 0.2618
-1 9 1 0.2998 -0.0286
-1 9 2 0.0300 -0.2104
-1 9 3 -0.0869 -0.0287
-1 9 4 0.0263 0.1237
-1 9 5 0.3300 -0.1026
-1 9 6 -0.1426 -0.4405
-1 9 7 -0.2991 0.1134
-1 9 8 0.0519 0.0821
-1 9 9 0.0318 -0.0340
-1 9 10 -0.0405 -0.1152
-1 9 11 -0.1000 0.0063
-1 9 12 -0.0324 -0.0277
-1 10 -7 0.0402 0.1171
-1 10 -6 0.1954 -0.0249
-1 10 -5 -0.0819 -0.1528
-1 10 -4 -0.1635 0.1376
-1 10 -3 0.0517 0.2159
-1 10 -2 0.1866 0.0168
-1 10 -1 -0.0425 -0.1139
-1 10 0 -0.0349 0.1613
-1 10 1 0.3230 0.0190
-1 10 2 0.1054 -0.3872
-1 10 3 -0.2135 -0.0709
-1 10 4 0.1219 0.0240
-1 10 5 0.0270 -0.0925
-1 10 6 0.2259 -0.1033
-1 10 7 -0.1485 -0.4025
-1 10 8 -0.2293 0.1756
-1 10 9 0.1572 -0.0435
-1 10 10 -0.1372 -0.0873
-1 11 -5 -0.0092 0.0388
-1 11 -4 -0.1100 0.0481
-1 11 -3 0.0128 0.1653
-1 11 -2 0.0539 0.0148
-1 11 -1 0.0366 0.0798
-1 11 0 0.1589 0.0213
-1 11 2 0.2416 -0.2689
-1 11 3 -0.1069 -0.2787
-1 11 4 -0.0252 0.1019
-1 11 5 0.2302 -0.0870
-1 11 6 0.0065 -0.1190
-1 11 7 0.1254 -0.0587
-1 11 8 -0.0655 -0.1688
0 -12 -5 -0.1528 0.0351
0 -12 -4 0.0361 -0.0177
0 -12 -3 -0.0191 -0.1438
0 -12 -2 -0.0188 -0.1476
0 -12 -1 -0.0632 -0.1691
0 -12 0 -0.0387 -0.1412
0 -12 1 -0.1104 -0.1378
0 -11 -9 0.1942 0.1155
0 -11 -8 0.1007 -0.1913
0 -11 -7 0.0325 -0.0658
0 -11 -6 0.0147 -0.2776
0 -11 -5 -0.2373 -0.0659
0 -11 -4 0.1084 0.0488
0 -11 -3 0.1023 -0.2768
0 -11 -2 -0.0811 -0.1921
0 -11 -1 0.0130 -0.1344
0 -11 0 0.0144 -0.1545
0 -11 1 -0.0025 -0.2004
0 -11 2 -0.1846 -0.0741
0 -11 3 -0.0010 0.1358
0 -10 -11 0.1405 0.1474
0 -10 -10 0.0690 -0.1437
0 -10 -9 -0.1572 0.2701
0 -10 -8 0.4852 0.2000
0 -10 -7 0.1889 -0.3148
0 -10 -6 0.0434 -0.1296
0 -10 -5 -0.0524 -0.1748
0 -10 -4 0.0627 0.0492
0 -10 -3 0.1732 -0.2772
0 -10 -2 -0.1905 -0.1970
0 -10 -1 -0.0369 0.1384
0 -10 0 0.2851 -0.0192
0 -10 1 0.0448 -0.3098
0 -10 2 -0.2009 -0.0156
0 -10 3 -0.0127 0.1916
0 -10 4 0.2021 0.1214
0 -10 5 0.1532 -0.1386
0 -10 6 -0.0700 -0.0966
0 -10 7 -0.0423 0.0092
0 -9 -13 0.0927 0.0482
0 -9 -12 -0.0148 0.1197
0 -9 -11 0.1958 0.1259
0 -9 -10 0.0500 -0.0820
0 -9 -9 -0.1599 0.0890
0 -9 -8 0.0019 0.4469
0 -9 -7 0.5543 0.1690
0 -9 -6 0.1654 -0.3688
0 -9 -5 -0.1178 -0.0413
0 -9 -4 0.0970 0.0315
0 -9 -3 0.1380 -0.2239
0 -9 -2 -0.2917 -0.2413
0 -9 -1 -0.2473 0.2825
0 -9 0 0.2163 0.2712
0 -9 1 0.2956 -0.1981
0 -9 2 -0.3415 -0.2330
0 -9 3 -0.1575 0.4605
0 -9 4 0.3248 0.1288
0 -9 5 0.1611 -0.0956
0 -9 6 0.0243 -0.2296
0 -9 7 -0.1575 -0.0330
0 -9 8 0.0757 -0.0321
0 -9 9 -0.0613 -0.1727
0 -9 10 -0.0937 -0.0187
0 -8 -14 -0.0143 0.0827
0 -8 -13 0.0295 0.0685
0 -8 -12 -0.0517 0.1192
0 -8 -11 0.2239 0.2618
0 -8 -10 0.2131 -0.3417
0 -8 -9 -0.5022 -0.0113
0 -8 -7 0.1121 0.2979
0 -8 -6 0.4565 0.0333
0 -8 -5 -0.1089 -0.4004
0 -8 -4 -0.1496 0.2250
0 -8 -3 0.2602 -0.1320
0 -8 -2 -0.1849 -0.3938
0 -8 -1 -0.5310 0.0167
0 -8 0 -0.0690 0.4423
0 -8 1 0.2451 -0.0815
0 -8 2 -0.2457 -0.2745
0 -8 3 -0.4616 0.1933
0 -8 4 0.1067 0.4256
0 -8 5 0.2154 -0.1882
0 -8 6 -0.1919 -0.1320
0 -8 7 -0.1063 0.0219
0 -8 8 -0.0011 0.0570
0 -8 9 0.0922 -0.0848
0 -8 10 -0.0059 -0.0851
0 -8 11 0.0248 -0.0752
0 -7 -15 0.0644 -0.1264
0 -7 -14 -0.1385 -0.0023
0 -7 -13 0.0380 0.1049
0 -7 -12 0.0207 0.0003
0 -7 -11 -0.0039 0.0975
0 -7 -10 0.2592 0.0480
0 -7 -9 0.0033 -0.4828
0 -7 -7 0.0779 0.5321
0 -7 -6 0.4002 0.0624
0 -7 -5 0.1820 -0.4936
0 -7 -4 -0.6373 -0.0717
0 -7 -3 0.3415 0.5617
0 -7 -2 0.4627 -0.7472
0 -7 -1 -0.7213 -0.5835
0 -7 0 -0.6302 0.3806
0 -7 1 0.3093 0.2700
0 -7 2 -0.1369 -0.6344
0 -7 3 -0.7331 0.0844
0 -7 4 -0.1386 0.3162
0 -7 5 0.0411 0.0335
0 -7 6 -0.1598 -0.2940
0 -7 7 -0.4948 0.1110
0 -7 8 0.0144 0.3110
0 -7 9 0.0930 0.0340
0 -7 10 0.0982 0.0281
0 -7 11 0.0995 -0.0497
0 -7 12 0.0270 -0.0166
0 -6 -15 0.0669 -0.0247
0 -6 -14 0.0817 -0.1608
0 -6 -13 -0.1120 -0.0778
0 -6 -12 0.0067 0.0334
0 -6 -11 0.0085 -0.0182
0 -6 -10 0.0144 0.1146
0 -6 -9 0.3937 0.0268
0 -6 -8 -0.0527 -0.5821
0 -6 -7 -0.5137 0.4676
0 -6 -6 0.8824 0.3224
0 -6 -5 0.2035 -0.8309
0 -6 -4 -0.4855 -0.1933
0 -6 -3 -0.1529 0.4701
0 -6 -2 1.0222 0.0174
0 -6 -1 -0.0147 -1.6179
0 -6 0 -1.5653 -0.1113
0 -6 2 0.5696 -0.6386
0 -6 3 -1.0486 -0.6930
0 -6 4 -0.6243 0.7216
0 -6 5 0.2380 0.0824
0 -6 6 -0.1723 -0.2534
0 -6 7 -0.4516 -0.1771
0 -6 8 -0.4420 0.4043
0 -6 9 0.2042 0.2908
0 -6 10 0.0640 0.0209
0 -6 11 0.1318 0.0468
0 -6 12 0.0101 0.0026
0 -6 13 0.1287 0.1332
0 -5 -16 0.0579 0.0767
0 -5 -15 0.2008 -0.0821
0 -5 -14 0.0270 -0.1272
0 -5 -13 0.1310 -0.1025
0 -5 -12 -0.0286 -0.2918
0 -5 -11 -0.3262 -0.0161
0 -5 -10 -0.0655 0.4817
0 -5 -9 0.5770 0.3553
0 -5 -8 0.5349 -0.3863
0 -5 -7 -0.4678 -0.0909
0 -5 -6 0.6600 1.1684
0 -5 -5 1.6107 -1.1090
0 -5 -4 -1.2284 -0.9731
0 -5 -3 0.1477 1.2927
0 -5 -2 1.3992 -0.4956
0 -5 -1 0.2590 -1.4113
0 -5 0 -1.1583 -1.1188
0 -5 1 -0.9900 0.8458
0 -5 2 0.9784 0.0901
0 -5 3 -0.4407 -1.5008
0 -5 4 -1.6238 0.2610
0 -5 5 0.1449 1.0308
0 -5 6 0.4200 -0.4248
0 -5 7 -0.5067 -0.3114
0 -5 8 -0.4068 0.1850
0 -5 9 -0.0752 0.3923
0 -5 10 0.2567 0.1028
0 -5 11 0.0429 -0.0459
0 -5 12 0.0394 0.0457
0 -5 13 0.0647 0.0914
0 -5 14 0.1656 -0.0068
0 -4 -16 -0.0566 -0.0754
0 -4 -15 0.0634 0.2326
0 -4 -13 -0.0917 -0.1947
0 -4 -12 0.2364 -0.0736
0 -4 -11 -0.3342 -0.5317
0 -4 -10 -0.7497 0.7755
0 -4 -9 0.8795 1.0038
0 -4 -8 0.6905 -0.3790
0 -4 -7 -0.1823 0.1991
0 -4 -6 0.3573 0.8812
0 -4 -5 1.6645 0.6329
0 -4 -4 1.1621 -1.7906
0 -4 -3 -1.7097 0.1074
0 -4 -2 2.1484 2.0935
0 -4 -1 2.5736 -2.8074
0 -4 0 -1.7141 -2.1376
0 -4 1 -0.8062 0.7000
0 -4 2 1.0141 -0.0939
0 -4 3 0.1934 -1.7499
0 -4 4 -1.6941 -0.8712
0 -4 5 -0.9340 1.0975
0 -4 6 0.8074 0.4321
0 -4 7 -0.0182 -0.8537
0 -4 8 -0.7566 0.1661
0 -4 9 0.0898 0.4469
0 -4 10 0.1375 0.1033
0 -4 11 0.1870 0.0617
0 -4 12 0.0512 -0.0534
0 -4 13 0.0534 0.1186
0 -4 14 0.1909 -0.0169
0 -4 15 -0.0018 -0.1182
0 -3 -17 -0.0439 0.0067
0 -3 -16 0.0032 0.0141
0 -3 -15 -0.0838 0.0049
0 -3 -14 0.0970 0.2587
0 -3 -13 0.3698 -0.1647
0 -3 -12 -0.1046 -0.2024
0 -3 -11 -0.0043 -0.1416
0 -3 -10 -0.8644 0.0580
0 -3 -9 0.0320 1.7741
0 -3 -8 1.7267 -0.0666
0 -3 -7 -1.0180 -0.6507
0 -3 -6 -0.0619 2.3837
0 -3 -5 2.2598 0.6225
0 -3 -4 1.0800 -0.4577
0 -3 -3 0.3542 -0.4506
0 -3 -2 0.1016 1.8880
0 -3 -1 5.0660 0.8949
0 -3 0 2.0787 -5.3425
0 -3 1 -2.8925 -0.8966
0 -3 2 1.8257 1.3225
0 -3 3 1.7762 -2.8917
0 -3 4 -1.7263 -2.1539
0 -3 5 -1.4156 0.4653
0 -3 6 0.2520 0.5903
0 -3 7 0.3753 -0.5251
0 -3 8 -0.7227 -0.4476
0 -3 9 -0.4589 0.7100
0 -3 11 -0.0322 -0.0239
0 -3 12 0.0656 0.3034
0 -3 13 0.2108 0.0804
0 -3 14 0.1033 0.0570
0 -3 15 0.1422 -0.0089
0 -3 16 0.0179 -0.0719
0 -2 -17 -0.0902 -0.0794
0 -2 -16 -0.1134 0.0213
0 -2 -15 -0.0347 0.0273
0 -2 -14 -0.1501 -0.0168
0 -2 -13 -0.0592 0.3195
0 -2 -12 0.3338 -0.0576
0 -2 -11 -0.3611 -0.2606
0 -2 -10 -0.4750 0.4008
0 -2 -9 -0.3716 0.8466
0 -2 -8 0.8691 1.2617
0 -2 -7 0.8446 -1.0959
0 -2 -6 -2.5736 0.7157
0 -2 -5 1.6202 4.4448
0 -2 -4 4.1101 -1.2823
0 -2 -3 -1.7559 -1.0913
0 -2 -2 0.7316 4.3983
0 -2 -1 6.2444 1.8639
0 -2 0 5.3957 -4.0954
0 -2 1 -0.8545 -4.4421
0 -2 2 -0.5132 1.3022
0 -2 3 4.0185 -1.0710
0 -2 4 0.0661 -4.4765
0 -2 5 -2.4925 -0.6495
0 -2 6 0.1150 0.8484
0 -2 7 0.4673 -0.8011
0 -2 8 -0.8000 -0.6005
0 -2 9 -0.7143 0.3870
0 -2 12 -0.3062 0.2142
0 -2 13 0.0426 0.5734
0 -2 14 0.3321 0.1397
0 -2 15 0.0147 0.0232
0 -2 16 0.1285 0.1408
0 -1 -17 0.0903 -0.1990
0 -1 -16 -0.2659 -0.1218
0 -1 -15 -0.0316 0.0407
0 -1 -14 -0.1716 -0.2605
0 -1 -13 -0.5036 0.0823
0 -1 -12 -0.0517 0.4105
0 -1 -11 0.0473 -0.2695
0 -1 -10 -0.9891 0.1277
0 -1 -9 -0.1366 1.2230
0 -1 -8 0.4258 0.3640
0 -1 -7 0.1653 0.3702
0 -1 -6 -0.5337 -0.3139
0 -1 -5 -1.9278 3.0831
0 -1 -4 4.8063 3.8712
0 -1 -3 2.3058 -4.3767
0 -1 -2 -4.7377 3.7430
0 -1 -1 8.1466 8.0055
0 -1 1 -0.7683 -5.4688
0 -1 2 -0.1016 0.5187
0 -1 3 3.1978 -0.2895
0 -1 4 2.3410 -3.5399
0 -1 5 -1.7476 -2.9741
0 -1 6 -1.3444 0.8258
0 -1 7 1.1590 -0.1088
0 -1 8 -0.4527 -1.5069
0 -1 9 -1.2630 0.1278
0 -1 10 -0.1625 0.5057
0 -1 11 -0.2018 -0.0667
0 -1 12 -0.5138 0.2311
0 -1 13 -0.2360 0.4762
0 -1 14 0.0068 0.4352
0 -1 15 0.1861 0.2095
0 -1 16 0.0275 0.0510
0 0 -17 0.0777 0.0436
0 0 -16 0.0848 -0.3117
0 0 -15 -0.2205 -0.1593
0 0 -14 0.0201 -0.2715
0 0 -13 -0.5566 -0.4495
0 0 -12 -0.5718 0.3050
0 0 -11 0.0846 0.0486
0 0 -10 -0.6890 -0.4992
0 0 -9 -1.1836 0.9951
0 0 -8 0.8088 1.1664
0 0 -7 0.1140 -0.7040
0 0 -6 -1.3145 0.8119
0 0 -5 -0.4387 2.2158
0 0 -4 1.7349 3.6827
0 0 -3 4.7783 -0.4368
0 0 -2 -2.9356 -1.4524
0 0 -1 1.5008 10.2901
0 0 1 1.5008 -10.2901
0 0 2 -2.9356 1.4524
0 0 3 4.7783 0.4368
0 0 4 1.7349 -3.6827
0 0 5 -0.4387 -2.2158
0 0 6 -1.3145 -0.8119
0 0 7 0.1140 0.7040
0 0 8 0.8088 -1.1664
0 0 9 -1.1836 -0.9951
0 0 10 -0.6890 0.4992
0 0 11 0.0846 -0.0486
0 0 12 -0.5718 -0.3050
0 0 13 -0.5566 0.4495
0 0 14 0.0201 0.2715
0 0 15 -0.2205 0.1593
0 0 16 0.0848 0.3117
0 0 17 0.0777 -0.0436
0 1 -16 0.0275 -0.0510
0 1 -15 0.1861 -0.2095
0 1 -14 0.0068 -0.4352
0 1 -13 -0.2360 -0.4762
0 1 -12 -0.5138 -0.2311
0 1 -11 -0.2018 0.0667
0 1 -10 -0.1625 -0.5057
0 1 -9 -1.2630 -0.1278
0 1 -8 -0.4527 1.5069
0 1 -7 1.1590 0.1088
0 1 -6 -1.3444 -0.8258
0 1 -5 -1.7476 2.9741
0 1 -4 2.3410 3.5399
0 1 -3 3.1978 0.2895
0 1 1 8.1466 -8.0055
0 1 2 -4.7377 -3.7430
0 1 3 2.3058 4.3767
0 1 4 4.8063 -3.8712
0 1 5 -1.9278 -3.0831
0 1 6 -0.5337 0.3139
0 1 7 0.1653 -0.3702
0 1 8 0.4258 -0.3640
0 1 9 -0.1366 -1.2230
0 1 10 -0.9891 -0.1277
0 1 11 0.0473 0.2695
0 1 12 -0.0517 -0.4105
0 1 13 -0.5036 -0.0823
0 1 14 -0.1716 0.2605
0 1 15 -0.0316 -0.0407
0 1 16 -0.2659 0.1218
0 1 17 0.0903 0.1990
0 2 -16 0.1285 -0.1408
0 2 -15 0.0147 -0.0232
0 2 -14 0.3321 -0.1397
0 2 -13 0.0426 -0.5734
0 2 -12 -0.3062 -0.2142
0 2 -11 0.0668 -0.1083
0 2 -10 -0.0643 -0.5390
0 2 -9 -0.7143 -0.3870
0 2 -7 0.4673 0.8011
0 2 -6 0.1150 -0.8484
0 2 -5 -2.4925 0.6495
0 2 -4 0.0661 4.4765
0 2 -3 4.0185 1.0710
0 2 1 6.2444 -1.8639
0 2 2 0.7316 -4.3983
0 2 3 -1.7559 1.0913
0 2 4 4.1101 1.2823
0 2 5 1.6202 -4.4448
0 2 6 -2.5736 -0.7157
0 2 7 0.8446 1.0959
0 2 8 0.8691 -1.2617
0 2 9 -0.3716 -0.8466
0 2 10 -0.4750 -0.4008
0 2 11 -0.3611 0.2606
0 2 12 0.3338 0.0576
0 2 13 -0.0592 -0.3195
0 2 14 -0.1501 0.0168
0 2 15 -0.0347 -0.0273
0 2 16 -0.1134 -0.0213
0 2 17 -0.0902 0.0794
0 3 -16 0.0179 0.0719
0 3 -15 0.1422 0.0089
0 3 -14 0.1033 -0.0570
0 3 -13 0.2108 -0.0804
0 3 -12 0.0656 -0.3034
0 3 -11 -0.0322 0.0239
0 3 -10 0.4113 -0.3055
0 3 -9 -0.4589 -0.7100
0 3 -8 -0.7227 0.4476
0 3 -7 0.3753 0.5251
0 3 -6 0.2520 -0.5903
0 3 -5 -1.4156 -0.4653
0 3 -4 -1.7263 2.1539
0 3 -3 1.7762 2.8917
0 3 1 5.0660 -0.8949
0 3 2 0.1016 -1.8880
0 3 4 1.0800 0.4577
0 3 5 2.2598 -0.6225
0 3 6 -0.0619 -2.3837
0 3 7 -1.0180 0.6507
0 3 8 1.7267 0.0666
0 3 9 0.0320 -1.7741
0 3 10 -0.8644 -0.0580
0 3 11 -0.0043 0.1416
0 3 12 -0.1046 0.2024
0 3 13 0.3698 0.1647
0 3 14 0.0970 -0.2587
0 3 15 -0.0838 -0.0049
0 3 16 0.0032 -0.0141
0 3 17 -0.0439 -0.0067
0 4 -15 -0.0018 0.1182
0 4 -14 0.1909 0.0169
0 4 -13 0.0534 -0.1186
0 4 -12 0.0512 0.0534
0 4 -11 0.1870 -0.0617
0 4 -10 0.1375 -0.1033
0 4 -8 -0.7566 -0.1661
0 4 -7 -0.0182 0.8537
0 4 -6 0.8074 -0.4321
0 4 -5 -0.9340 -1.0975
0 4 -4 -1.6941 0.8712
0 4 0 -1.7141 2.1376
0 4 1 2.5736 2.8074
0 4 2 2.1484 -2.0935
0 4 3 -1.7097 -0.1074
0 4 4 1.1621 1.7906
0 4 5 1.6645 -0.6329
0 4 6 0.3573 -0.8812
0 4 7 -0.1823 -0.1991
0 4 8 0.6905 0.3790
0 4 9 0.8795 -1.0038
0 4 10 -0.7497 -0.7755
0 4 11 -0.3342 0.5317
0 4 12 0.2364 0.0736
0 4 13 -0.0917 0.1947
0 4 14 0.3703 0.1761
0 4 15 0.0634 -0.2326
0 4 16 -0.0566 0.0754
0 5 -14 0.1656 0.0068
0 5 -13 0.0647 -0.0914
0 5 -12 0.0394 -0.0457
0 5 -11 0.0429 0.0459
0 5 -10 0.2567 -0.1028
0 5 -8 -0.4068 -0.1850
0 5 -7 -0.5067 0.3114
0 5 -6 0.4200 0.4248
0 5 -5 0.1449 -1.0308
0 5 0 -1.1583 1.1188
0 5 1 0.2590 1.4113
0 5 2 1.3992 0.4956
0 5 3 0.1477 -1.2927
0 5 4 -1.2284 0.9731
0 5 5 1.6107 1.1090
0 5 6 0.6600 -1.1684
0 5 7 -0.4678 0.0909
0 5 8 0.5349 0.3863
0 5 9 0.5770 -0.3553
0 5 10 -0.0655 -0.4817
0 5 11 -0.3262 0.0161
0 5 12 -0.0286 0.2918
0 5 13 0.1310 0.1025
0 5 14 0.0270 0.1272
0 5 15 0.2008 0.0821
0 5 16 0.0579 -0.0767
0 6 -13 0.1287 -0.1332
0 6 -12 0.0101 -0.0026
0 6 -11 0.1318 -0.0468
0 6 -10 0.0640 -0.0209
0 6 -9 0.2042 -0.2908
0 6 -8 -0.4420 -0.4043
0 6 -7 -0.4516 0.1771
0 6 -6 -0.1723 0.2534
0 6 -5 0.2380 -0.0824
0 6 -4 -0.6243 -0.7216
0 6 0 -1.5653 0.1113
0 6 1 -0.0147 1.6179
0 6 2 1.0222 -0.0174
0 6 3 -0.1529 -0.4701
0 6 4 -0.4855 0.1933
0 6 5 0.2035 0.8309
0 6 6 0.8824 -0.3224
0 6 7 -0.5137 -0.4676
0 6 8 -0.0527 0.5821
0 6 9 0.3937 -0.0268
0 6 10 0.0144 -0.1146
0 6 11 0.0085 0.0182
0 6 12 0.0067 -0.0334
0 6 13 -0.1120 0.0778
0 6 14 0.0817 0.1608
0 6 15 0.0669 0.0247
0 7 -12 0.0270 0.0166
0 7 -11 0.0995 0.0497
0 7 -10 0.0982 -0.0281
0 7 -9 0.0930 -0.0340
0 7 -8 0.0144 -0.3110
0 7 -7 -0.4948 -0.1110
0 7 -6 -0.1598 0.2940
0 7 -1 0.3093 -0.2700
0 7 0 -0.6302 -0.3806
0 7 1 -0.7213 0.5835
0 7 2 0.4627 0.7472
0 7 3 0.3415 -0.5617
0 7 4 -0.6373 0.0717
0 7 5 0.1820 0.4936
0 7 6 0.4002 -0.0624
0 7 7 0.0779 -0.5321
0 7 8 -0.6243 -0.0914
0 7 9 0.0033 0.4828
0 7 10 0.2592 -0.0480
0 7 11 -0.0039 -0.0975
0 7 12 0.0207 -0.0003
0 7 13 0.0380 -0.1049
0 7 14 -0.1385 0.0023
0 7 15 0.0644 0.1264
0 8 -11 0.0248 0.0752
0 8 -10 -0.0059 0.0851
0 8 -9 0.0922 0.0848
0 8 -8 -0.0011 -0.0570
0 8 -7 -0.1063 -0.0219
0 8 -6 -0.1919 0.1320
0 8 -5 0.2154 0.1882
0 8 -4 0.1067 -0.4256
0 8 -3 -0.4616 -0.1933
0 8 -2 -0.2457 0.2745
0 8 -1 0.2451 0.0815
0 8 0 -0.0690 -0.4423
0 8 1 -0.5310 -0.0167
0 8 2 -0.1849 0.3938
0 8 3 0.2602 0.1320
0 8 4 -0.1496 -0.2250
0 8 5 -0.1089 0.4004
0 8 6 0.4565 -0.0333
0 8 7 0.1121 -0.2979
0 8 8 -0.0494 -0.4325
0 8 9 -0.5022 0.0113
0 8 10 0.2131 0.3417
0 8 11 0.2239 -0.2618
0 8 12 -0.0517 -0.1192
0 8 13 0.0295 -0.0685
0 8 14 -0.0143 -0.0827
0 9 -10 -0.0937 0.0187
0 9 -9 -0.0613 0.1727
0 9 -8 0.0757 0.0321
0 9 -7 -0.1575 0.0330
0 9 -6 0.0243 0.2296
0 9 -5 0.1611 0.0956
0 9 -4 0.3248 -0.1288
0 9 -3 -0.1575 -0.4605
0 9 -2 -0.3415 0.2330
0 9 -1 0.2956 0.1981
0 9 0 0.2163 -0.2712
0 9 1 -0.2473 -0.2825
0 9 2 -0.2917 0.2413
0 9 3 0.1380 0.2239
0 9 4 0.0970 -0.0315
0 9 5 -0.1178 0.0413
0 9 6 0.1654 0.3688
0 9 7 0.5543 -0.1690
0 9 8 0.0019 -0.4469
0 9 9 -0.1599 -0.0890
0 9 10 0.0500 0.0820
0 9 11 0.1958 -0.1259
0 9 12 -0.0148 -0.1197
0 9 13 0.0927 -0.0482
0 10 -8 -0.0027 0.0331
0 10 -7 -0.0423 -0.0092
0 10 -6 -0.0700 0.0966
0 10 -5 0.1532 0.1386
0 10 -4 0.2021 -0.1214
0 10 -3 -0.0127 -0.1916
0 10 -2 -0.2009 0.0156
0 10 -1 0.0448 0.3098
0 10 0 0.2851 0.0192
0 10 1 -0.0369 -0.1384
0 10 2 -0.1905 0.1970
0 10 3 0.1732 0.2772
0 10 4 0.0627 -0.0492
0 10 5 -0.0524 0.1748
0 10 6 0.0434 0.1296
0 10 7 0.1889 0.3148
0 10 9 -0.1572 -0.2701
0 10 10 0.0690 0.1437
0 10 11 0.1405 -0.1474
0 11 -5 0.0306 -0.0437
0 11 -4 0.0555 -0.0080
0 11 -3 -0.0010 -0.1358
0 11 -2 -0.1846 0.0741
0 11 -1 -0.0025 0.2004
0 11 0 0.0144 0.1545
0 11 1 0.0130 0.1344
0 11 2 -0.0811 0.1921
0 11 3 0.1023 0.2768
0 11 4 0.1084 -0.0488
0 11 5 -0.2373 0.0659
0 11 6 0.0147 0.2776
0 11 7 0.0325 0.0658
0 11 8 0.1007 0.1913
0 11 9 0.1942 -0.1155
0 12 -1 -0.1104 0.1378
0 12 0 -0.0387 0.1412
0 12 1 -0.0632 0.1691
0 12 2 -0.0188 0.1476
0 12 3 -0.0191 0.1438
0 12 4 0.0361 0.0177
0 12 5 -0.1528 -0.0351
1 -11 -8 -0.0655 0.1688
1 -11 -7 0.1254 0.0587
1 -11 -6 0.0065 0.1190
1 -11 -5 0.2302 0.0870
1 -11 -4 -0.0252 -0.1019
1 -11 -3 -0.1069 0.2787
1 -11 -2 0.2416 0.2689
1 -11 -1 0.2167 0.0405
1 -11 0 0.1589 -0.0213
1 -11 1 0.0366 -0.0798
1 -11 2 0.0539 -0.0148
1 -11 3 0.0128 -0.1653
1 -10 -10 -0.1372 0.0873
1 -10 -9 0.1572 0.0435
1 -10 -8 -0.2293 -0.1756
1 -10 -7 -0.1485 0.4025
1 -10 -6 0.2259 0.1033
1 -10 -5 0.0270 0.0925
1 -10 -4 0.1219 -0.0240
1 -10 -3 -0.2135 0.0709
1 -10 -2 0.1054 0.3872
1 -10 -1 0.3230 -0.0190
1 -10 0 -0.0349 -0.1613
1 -10 1 -0.0425 0.1139
1 -10 2 0.1866 -0.0168
1 -10 3 0.0517 -0.2159
1 -10 4 -0.1635 -0.1376
1 -10 5 -0.0819 0.1528
1 -10 6 0.1954 0.0249
1 -10 7 0.0402 -0.1171
1 -9 -12 -0.0324 0.0277
1 -9 -11 -0.1000 -0.0063
1 -9 -10 -0.0405 0.1152
1 -9 -9 0.0318 0.0340
1 -9 -8 0.0519 -0.0821
1 -9 -7 -0.2991 -0.1134
1 -9 -6 -0.1426 0.4405
1 -9 -5 0.3300 0.1026
1 -9 -4 0.0263 -0.1237
1 -9 -3 -0.0869 0.0287
1 -9 -2 0.0300 0.2104
1 -9 -1 0.2998 0.0286
1 -9 0 0.1234 -0.2618
1 -9 1 -0.1697 -0.0871
1 -9 2 0.1715 0.1966
1 -9 3 0.3041 -0.3461
1 -9 4 -0.2388 -0.2151
1 -9 5 -0.0379 0.1290
1 -9 6 0.1162 0.1216
1 -9 7 0.2457 -0.0431
1 -9 8 -0.0479 -0.0995
1 -9 9 0.0292 0.1802
1 -8 -13 -0.0484 -0.0165
1 -8 -12 -0.0625 0.0330
1 -8 -11 -0.0726 -0.0514
1 -8 -10 -0.2436 0.2284
1 -8 -9 0.3627 0.2461
1 -8 -8 0.0754 -0.3545
1 -8 -7 -0.1622 -0.0196
1 -8 -6 -0.2301 -0.0232
1 -8 -5 -0.0296 0.5131
1 -8 -4 0.5355 -0.0768
1 -8 -3 -0.2160 -0.2731
1 -8 -2 -0.0983 0.4100
1 -8 -1 0.5359 0.2535
1 -8 0 0.4336 -0.3562
1 -8 1 -0.0285 -0.2186
1 -8 2 0.1598 0.0671
1 -8 3 0.4249 -0.1373
1 -8 4 0.0925 -0.4698
1 -8 5 -0.1686 0.0611
1 -8 6 0.3440 0.0394
1 -8 7 0.0747 -0.2414
1 -8 8 -0.0497 -0.0447
1 -8 9 -0.0878 0.0843
1 -8 10 0.0834 0.1678
1 -8 11 0.0834 0.0249
1 -7 -14 0.1273 0.0435
1 -7 -13 -0.0124 -0.1472
1 -7 -12 -0.1745 0.0228
1 -7 -11 -0.0485 0.1529
1 -7 -10 -0.0258 0.0240
1 -7 -9 -0.1344 0.3239
1 -7 -8 0.5407 0.1901
1 -7 -6 -0.4663 0.0853
1 -7 -4 0.5539 0.3483
1 -7 -3 0.1387 -0.6100
1 -7 -2 -0.7544 0.4057
1 -7 -1 0.6040 1.0503
1 -7 0 1.1607 -0.2045
1 -7 1 0.1305 -0.7152
1 -7 2 -0.0722 0.1995
1 -7 3 0.6625 -0.0350
1 -7 4 0.2670 -0.4398
1 -7 5 0.0669 -0.2301
1 -7 6 0.1360 0.0136
1 -7 7 0.4351 -0.2874
1 -7 8 -0.2086 -0.5071
1 -7 9 -0.2984 0.1125
1 -7 10 -0.0061 0.1246
1 -7 11 0.0141 0.0678
1 -7 12 0.0277 0.0277
1 -6 -15 0.1654 0.1360
1 -6 -14 0.0439 -0.0160
1 -6 -13 0.0894 0.0328
1 -6 -12 -0.0203 -0.0960
1 -6 -11 -0.1452 0.0542
1 -6 -10 -0.0594 0.1668
1 -6 -9 -0.0580 0.0872
1 -6 -8 -0.0664 0.3925
1 -6 -7 0.5183 -0.0388
1 -6 -6 -0.5889 -0.4636
1 -6 -5 -0.4179 0.9716
1 -6 -4 0.7382 0.3271
1 -6 -3 0.1063 -0.4267
1 -6 -2 -0.7418 0.0542
1 -6 -1 -0.1027 1.4580
1 -6 0 1.7184 0.5174
1 -6 1 0.7082 -1.2017
1 -6 2 -0.5846 -0.2465
1 -6 3 0.4837 0.5789
1 -6 4 0.7900 -0.6283
1 -6 5 -0.2028 -0.4283
1 -6 6 0.1825 0.0202
1 -6 7 0.2805 -0.1936
1 -6 8 0.2403 -0.4886
1 -6 9 -0.4218 -0.4044
1 -6 10 -0.2113 0.2176
1 -6 11 0.0284 0.0282
1 -6 12 0.0277 0.0464
1 -6 13 0.0297 -0.0882
1 -5 -15 -0.0668 0.2194
1 -5 -14 0.2715 0.1372
1 -5 -13 0.0197 -0.1397
1 -5 -12 -0.0596 0.1698
1 -5 -11 0.2014 0.0377
1 -5 -10 -0.0829 -0.2627
1 -5 -9 -0.4719 0.0613
1 -5 -8 -0.2271 0.4229
1 -5 -7 0.1659 0.2742
1 -5 -6 -0.1677 -0.4655
1 -5 -5 -1.2886 0.6269
1 -5 -4 0.8431 1.5096
1 -5 -3 0.6923 -1.1071
1 -5 -2 -1.5104 0.1669
1 -5 -1 0.0731 1.7157
1 -5 0 1.4676 0.7225
1 -5 1 1.1877 -0.8927
1 -5 2 -0.4720 -0.7794
1 -5 3 -0.0650 0.6611
1 -5 4 1.1747 -0.1051
1 -5 5 0.1179 -1.1959
1 -5 6 -0.6372 0.0235
1 -5 7 0.4508 0.2298
1 -5 8 0.2742 -0.4851
1 -5 9 -0.1348 -0.3895
1 -5 10 -0.3182 -0.0673
1 -5 11 -0.0158 0.1573
1 -5 12 0.0377 -0.0013
1 -5 13 0.0945 0.0222
1 -5 14 0.0295 -0.1067
1 -4 -16 -0.0585 0.1024
1 -4 -15 0.0798 0.0173
1 -4 -14 -0.1160 0.1136
1 -4 -13 0.1950 0.1865
1 -4 -12 -0.0332 -0.0896
1 -4 -11 0.0506 0.2983
1 -4 -10 0.3947 -0.3660
1 -4 -9 -0.7505 -0.6095
1 -4 -8 -0.7519 0.6303
1 -4 -7 0.1709 0.1998
1 -4 -6 -0.5091 -0.2413
1 -4 -5 -0.8505 0.1506
1 -4 -4 -0.9483 1.2119
1 -4 -3 1.2385 1.0720
1 -4 -2 -0.3456 -1.5956
1 -4 -1 -2.3429 1.8438
1 -4 0 1.9898 2.6007
1 -4 1 1.8171 -1.1798
1 -4 2 -0.7320 -0.6060
1 -4 3 0.0191 1.0379
1 -4 4 1.3725 0.2325
1 -4 5 0.7497 -1.1425
1 -4 6 -0.6815 -0.7935
1 -4 7 -0.3449 0.5925
1 -4 8 0.7719 -0.0462
1 -4 9 -0.0942 -0.7028
1 -4 10 -0.3402 -0.0145
1 -4 11 -0.0703 0.0552
1 -4 12 -0.0100 0.0686
1 -4 13 0.0507 0.0335
1 -4 14 0.0896 0.0057
1 -4 15 0.0594 -0.0630
1 -3 -16 0.0243 -0.0914
1 -3 -15 -0.0446 0.0837
1 -3 -14 0.1259 -0.0676
1 -3 -13 -0.2685 -0.0464
1 -3 -12 0.0058 0.3292
1 -3 -11 0.1839 -0.0279
1 -3 -10 0.1843 -0.1736
1 -3 -9 -0.1892 -0.9022
1 -3 -8 -1.4790 -0.0730
1 -3 -5 -2.1488 -0.2388
1 -3 -4 -0.7826 1.3966
1 -3 -3 -0.2680 0.7798
1 -3 -2 0.2547 0.2115
1 -3 -1 -2.1923 -0.5958
1 -3 0 -1.8971 4.1931
1 -3 1 3.6540 2.0774
1 -3 2 0.1864 -2.0197
1 -3 3 -1.4459 1.8268
1 -3 4 2.1005 1.7076
1 -3 5 1.5822 -1.1462
1 -3 6 -0.3462 -0.9430
1 -3 7 -0.4177 0.2115
1 -3 8 0.4589 0.3459
1 -3 9 0.5284 -0.6184
1 -3 10 -0.4515 -0.5380
1 -3 11 -0.2225 0.1491
1 -3 12 0.0146 -0.1068
1 -3 13 -0.1545 -0.0165
1 -3 14 0.0246 0.0592
1 -3 15 0.0398 -0.0653
1 -3 16 -0.0329 -0.0480
1 -2 -16 0.1671 -0.0075
1 -2 -15 0.0493 -0.1688
1 -2 -14 -0.0180 0.0136
1 -2 -13 0.1300 -0.2353
1 -2 -12 -0.4264 -0.1508
1 -2 -11 0.1169 0.4013
1 -2 -10 0.4432 -0.5487
1 -2 -9 -0.4088 -0.7294
1 -2 -8 -0.7261 -0.5045
1 -2 -7 -1.0807 0.3675
1 -2 -6 0.7955 0.4593
1 -2 -5 -0.5499 -2.6026
1 -2 -4 -4.1648 0.6533
1 -2 -3 0.3854 3.2612
1 -2 -2 0.8357 -1.7008
1 -2 -1 -4.1318 -0.7043
1 -2 0 -3.4834 4.3163
1 -2 1 1.7383 4.8387
1 -2 2 2.5504 -0.3297
1 -2 3 -1.9082 0.1272
1 -2 4 0.4307 3.5725
1 -2 5 3.0700 0.3318
1 -2 6 0.3327 -1.5376
1 -2 7 -0.5962 0.2686
1 -2 8 0.6524 0.4686
1 -2 9 0.6874 -0.4916
1 -2 10 0.0111 -0.7186
1 -2 11 -0.3392 -0.2743
1 -2 12 0.0059 -0.0540
1 -2 13 -0.0519 -0.3585
1 -2 14 -0.2865 -0.0883
1 -2 15 -0.0054 0.0235
1 -2 16 -0.0480 -0.1316
1 -1 -16 0.1846 0.1624
1 -1 -15 0.2515 -0.1455
1 -1 -14 0.0423 -0.1062
1 -1 -13 0.2557 -0.1023
1 -1 -12 0.0455 -0.5240
1 -1 -11 -0.3834 -0.0074
1 -1 -10 0.6367 0.0529
1 -1 -9 0.0794 -1.3983
1 -1 -8 -1.2393 -0.3075
1 -1 -7 -0.0585 0.1811
1 -1 -6 -0.3938 -0.4812
1 -1 -5 0.0309 -0.6817
1 -1 -4 -2.6080 -2.3371
1 -1 -3 -4.1829 3.3590
1 -1 -2 3.4153 1.9779
1 -1 -1 -2.9703 -5.6332
1 -1 0 -8.9191 4.6759
1 -1 1 1.8865 8.1682
1 -1 2 3.2203 -0.0114
1 -1 3 -1.5375 0.1134
1 -1 4 -0.6311 3.0157
1 -1 5 2.2436 2.1483
1 -1 6 1.8720 -0.9274
1 -1 7 -0.6369 -0.6243
1 -1 8 0.1529 1.0189
1 -1 9 1.2197 -0.0963
1 -1 10 0.3160 -0.8402
1 -1 11 -0.1467 -0.3503
1 -1 12 0.1318 -0.1657
1 -1 13 0.1048 -0.4586
1 -1 14 -0.2294 -0.3444
1 -1 15 -0.1609 -0.0745
1 -1 16 -0.0463 -0.0633
1 -1 17 -0.0357 -0.0577
1 0 -16 -0.0667 0.0899
1 0 -15 0.2665 0.2354
1 0 -14 0.2788 -0.1203
1 0 -13 0.2382 0.0378
1 0 -12 0.5124 -0.3520
1 0 -11 -0.1751 -0.5523
1 0 -10 0.0620 0.3064
1 0 -9 1.0395 -0.7517
1 0 -8 -0.9413 -1.6314
1 0 -7 -1.1336 0.8489
1 0 -6 1.1572 -0.3480
1 0 -5 -1.1751 -2.0964
1 0 -4 -2.4112 -0.4479
1 0 -3 -3.1864 0.7395
1 0 -2 -0.3684 3.3774
1 0 -1 1.4686 -3.4457
1 0 0 -9.8477 -1.7520
1 0 1 -3.7209 11.3045
1 0 2 6.7464 2.4568
1 0 3 -1.8131 -2.4507
1 0 4 -1.6494 3.8800
1 0 5 2.1998 1.9612
1 0 6 1.4237 0.0189
1 0 7 0.4167 -0.6671
1 0 8 -0.5354 0.4051
1 0 9 0.9147 0.8357
1 0 10 0.9154 -0.5788
1 0 11 -0.0467 -0.4859
1 0 12 0.1058 0.0586
1 0 13 0.4704 -0.3349
1 0 14 -0.1758 -0.5607
1 0 15 -0.1692 0.0611
1 0 16 0.1114 -0.1337
1 0 17 -0.0921 -0.0551
1 1 -16 0.1292 0.1176
1 1 -15 -0.0655 0.0559
1 1 -14 0.1641 0.3518
1 1 -13 0.4130 0.0564
1 1 -12 0.3637 -0.0640
1 1 -11 0.3004 -0.3609
1 1 -10 -0.1484 -0.0946
1 1 -9 0.6911 0.1811
1 1 -7 -1.5954 -0.6859
1 1 -6 0.1571 1.0871
1 1 -5 0.9390 -2.1898
1 1 -4 -3.5716 -2.1648
1 1 -3 -3.1747 2.1105
1 1 -2 -0.1154 1.6638
1 1 -1 0.1459 -1.1968
1 1 0 -4.8142 -2.9718
1 1 1 -7.6537 5.6781
1 1 2 3.8291 7.7365
1 1 3 3.0359 -3.3389
1 1 4 -4.5587 1.0230
1 1 5 1.7211 4.5080
1 1 6 2.4210 -0.8155
1 1 7 -0.3771 -0.3968
1 1 8 -0.0463 0.4660
1 1 9 0.2935 0.7205
1 1 10 0.9666 0.1194
1 1 11 0.2174 -0.5209
1 1 12 -0.0868 0.0526
1 1 13 0.3420 0.0585
1 1 14 0.1978 -0.4201
1 1 15 -0.3221 -0.1206
1 1 16 0.1203 0.2274
1 1 17 0.1367 -0.1691
1 2 -16 -0.1708 0.1184
1 2 -15 0.0747 0.1472
1 2 -14 -0.0801 0.0677
1 2 -13 0.0742 0.3776
1 2 -12 0.4295 0.0623
1 2 -11 0.0871 -0.2223
1 2 -10 -0.0521 0.1002
1 2 -9 0.3778 0.1621
1 2 -8 0.5769 -0.5656
1 2 -7 -0.4751 -0.9909
1 2 -6 -0.7261 0.2748
1 2 -5 0.9585 -0.3853
1 2 -4 -0.9544 -3.0194
1 2 -3 -4.4499 -0.0412
1 2 -2 -0.4717 3.2089
1 2 -1 1.4601 -1.7494
1 2 0 -3.8475 -2.4776
1 2 1 -4.7675 2.2341
1 2 2 -1.0294 4.8481
1 2 3 3.1404 1.4992
1 2 5 -2.6437 3.1548
1 2 6 3.1114 2.3863
1 2 7 0.8001 -1.9959
1 2 8 -1.4184 0.6957
1 2 9 0.7654 1.2392
1 2 10 0.7422 -0.0518
1 2 11 0.2790 -0.2320
1 2 12 -0.1174 -0.1766
1 2 13 -0.0177 0.1562
1 2 14 0.1514 -0.0742
1 2 15 -0.0900 -0.1284
1 2 16 -0.1040 0.1112
1 2 17 0.1327 0.0954
1 3 -15 -0.1471 -0.0306
1 3 -14 -0.1003 0.2070
1 3 -13 0.0557 0.1002
1 3 -12 -0.0122 0.1254
1 3 -11 0.1794 -0.0149
1 3 -10 -0.2261 -0.1429
1 3 -9 0.0587 0.4403
1 3 -8 0.6671 -0.3449
1 3 -7 -0.3391 -0.7948
1 3 -6 -0.4391 0.1886
1 3 -5 0.6914 -0.1229
1 3 -4 0.2649 -1.7926
1 3 -3 -2.1293 -1.7330
1 3 -2 -2.4102 1.4678
1 3 -1 1.7923 1.2124
1 3 0 -0.1396 -3.8182
1 3 1 -5.0287 0.0347
1 3 2 -0.5786 3.5480
1 3 3 1.0849 0.3746
1 3 4 -0.2578 -0.3068
1 3 5 -1.4466 0.2726
1 3 6 -0.2752 2.4784
1 3 7 2.0158 0.1672
1 3 8 -0.9972 -0.9726
1 3 9 -0.5304 1.8473
1 3 10 1.4588 0.3476
1 3 11 0.0326 -0.6160
1 3 12 -0.0832 0.0473
1 3 13 -0.0866 -0.1567
1 3 14 -0.1560 0.1011
1 3 15 0.0435 0.0245
1 3 16 -0.0388 -0.0304
1 3 17 -0.0443 0.0454
1 4 -15 0.0693 -0.0100
1 4 -14 -0.2007 -0.0522
1 4 -13 -0.0765 0.2878
1 4 -12 0.1921 -0.0090
1 4 -11 -0.0993 -0.1086
1 4 -10 -0.0210 -0.0027
1 4 -9 -0.0831 0.0074
1 4 -8 0.3693 0.0779
1 4 -7 0.2083 -0.7902
1 4 -6 -0.7114 -0.1478
1 4 -5 0.5293 0.5905
1 4 -4 1.1476 -1.1954
1 4 -3 -0.9633 -1.7745
1 4 -2 -1.4612 0.2842
1 4 -1 0.2872 0.8279
1 4 0 1.2817 -0.9418
1 4 1 -1.3988 -2.5403
1 4 2 -2.9686 1.5205
1 4 3 1.6876 1.9299
1 4 4 0.4100 -1.9482
1 4 5 -2.0174 0.2256
1 4 6 -0.1924 1.5155
1 4 7 0.6576 0.4069
1 4 8 -0.2274 -0.4018
1 4 10 0.7157 1.0385
1 4 11 0.6389 -0.5563
1 4 12 -0.4318 -0.2338
1 4 13 0.0151 0.1291
1 4 14 -0.1367 -0.1583
1 4 15 -0.1096 0.1863
1 4 16 0.1325 -0.0181
1 4 17 -0.0680 -0.0742
1 5 -14 -0.0790 0.0259
1 5 -13 -0.1006 0.1467
1 5 -12 0.0698 0.1571
1 5 -11 0.1527 -0.0487
1 5 -10 -0.0397 -0.1245
1 5 -9 0.0849 0.0701
1 5 -8 0.3111 -0.1592
1 5 -7 0.2547 -0.4188
1 5 -6 -0.1954 -0.5436
1 5 -5 -0.2304 0.3500
1 5 -4 1.1718 0.0470
1 5 -3 0.4242 -1.7374
1 5 -2 -1.5091 -0.4861
1 5 -1 0.2606 1.1628
1 5 0 1.1668 -0.8606
1 5 1 -0.5042 -1.1456
1 5 2 -1.0170 -0.2488
1 5 4 1.5508 -0.0929
1 5 5 -0.9033 -1.6788
1 5 6 -1.3159 1.1791
1 5 7 0.8517 0.4825
1 5 8 -0.3005 -0.6523
1 5 9 -0.7388 0.4102
1 5 10 0.1116 0.6216
1 5 11 0.3654 -0.0106
1 5 12 -0.0472 -0.2913
1 5 13 -0.2457 0.0168
1 5 14 0.0041 0.0824
1 5 15 -0.0681 -0.0004
1 5 16 0.0466 0.1060
1 6 -13 -0.1255 0.1738
1 6 -12 0.0655 0.1379
1 6 -11 0.0278 0.0445
1 6 -10 0.1333 0.0316
1 6 -9 0.0865 -0.0347
1 6 -8 0.3551 0.0081
1 6 -7 0.3078 -0.4560
1 6 -6 -0.0054 -0.3381
1 6 -5 -0.0975 -0.1802
1 6 -4 0.2891 0.3092
1 6 0 1.0268 0.3673
1 6 1 0.3419 -1.3171
1 6 2 -1.0748 -0.1665
1 6 3 0.1178 0.7022
1 6 4 0.6200 -0.0889
1 6 5 0.1594 -0.7881
1 6 6 -0.8938 -0.1638
1 6 7 0.2097 0.7109
1 6 8 0.4013 -0.6247
1 6 9 -0.6595 -0.2406
1 6 10 -0.1606 0.3524
1 6 11 0.1185 0.0332
1 6 12 -0.0458 -0.0831
1 6 13 -0.0734 0.0291
1 6 14 -0.0208 0.0398
1 6 15 0.0009 0.0468
1 6 16 0.0126 0.0345
1 7 -12 -0.0080 0.0947
1 7 -11 -0.0247 0.0186
1 7 -10 0.0149 0.0830
1 7 -9 0.1254 0.0048
1 7 -8 0.1421 0.0088
1 7 -7 0.3473 -0.1660
1 7 -6 -0.0008 -0.3936
1 7 -5 -0.0805 -0.0003
1 7 -4 0.1303 0.0616
1 7 -3 0.4906 -0.0083
1 7 -2 0.2111 -0.7494
1 7 -1 -0.5724 -0.0836
1 7 0 0.2286 0.4181
1 7 1 0.5812 -0.2269
1 7 2 -0.0325 -0.7238
1 7 3 -0.5730 0.1776
1 7 4 0.5485 0.3544
1 7 5 0.2492 -0.5638
1 7 6 -0.2858 -0.1522
1 7 7 -0.0671 0.2709
1 7 8 0.5372 0.0978
1 7 9 0.1474 -0.6331
1 7 10 -0.4653 -0.0853
1 7 11 -0.0008 0.2916
1 7 12 0.1659 -0.0297
1 7 13 -0.1023 -0.0153
1 7 14 0.0671 0.1777
1 7 15 0.0987 -0.0481
1 8 -11 -0.0346 -0.0435
1 8 -10 -0.0452 0.0202
1 8 -9 0.0416 -0.0168
1 8 -8 0.0382 -0.0379
1 8 -7 0.0690 -0.0737
1 8 -6 0.0406 -0.1345
1 8 -5 -0.1671 -0.1187
1 8 -4 -0.1025 0.3056
1 8 -3 0.4287 0.1448
1 8 -2 0.2414 -0.3854
1 8 -1 -0.3121 -0.2302
1 8 0 -0.1069 0.3913
1 8 1 0.5008 0.1169
1 8 2 0.3257 -0.3823
1 8 3 -0.1903 -0.3973
1 8 4 -0.1953 0.2859
1 8 5 0.4391 -0.0155
1 8 6 -0.1708 -0.2402
1 8 7 -0.0265 0.3315
1 8 8 0.2885 0.2198
1 8 9 0.4576 -0.0660
1 8 10 -0.0719 -0.3803
1 8 11 -0.2502 0.2708
1 8 12 0.2294 0.2144
1 8 13 0.0653 -0.0159
1 8 14 0.0081 0.1289
1 9 -10 -0.0033 -0.0024
1 9 -9 0.0431 -0.0791
1 9 -8 -0.0560 -0.0840
1 9 -7 0.0059 -0.0425
1 9 -6 -0.1250 -0.1272
1 9 -5 -0.1595 0.0930
1 9 -4 -0.1217 0.0976
1 9 -3 0.0528 0.3509
1 9 -2 0.3999 -0.1493
1 9 -1 -0.2748 -0.3271
1 9 0 -0.2699 0.2786
1 9 1 0.2435 0.3229
1 9 2 0.4440 -0.2026
1 9 3 -0.1201 -0.4213
1 9 4 -0.2821 0.1007
1 9 5 0.1330 0.2376
1 9 6 0.1473 -0.1564
1 9 7 -0.3266 0.0788
1 9 8 0.0935 0.5358
1 9 9 0.4142 0.0911
1 9 10 0.0228 -0.1529
1 9 11 -0.1748 0.2083
1 9 12 0.1820 0.2407
1 9 13 0.0283 -0.0208
1 10 -8 -0.0255 -0.1084
1 10 -7 -0.0627 -0.0197
1 10 -6 -0.0556 -0.0509
1 10 -5 -0.1836 0.0012
1 10 -4 -0.1048 0.1752
1 10 -3 0.0450 0.1020
1 10 -2 0.0894 -0.0192
1 10 -1 -0.0549 -0.2220
1 10 0 -0.2832 0.0145
1 10 1 0.0146 0.1868
1 10 2 0.1945 -0.0577
1 10 3 -0.0356 -0.2857
1 10 4 -0.2454 0.0483
1 10 5 0.0880 0.1156
1 10 6 0.0039 -0.0431
1 10 7 -0.0575 -0.0286
1 10 8 -0.2690 0.1534
1 10 9 0.1213 0.4054
1 10 10 0.1663 -0.0702
1 10 11 -0.1689 0.0929
1 10 12 0.0750 0.1923
1 11 -5 -0.0957 0.0468
1 11 -4 -0.0097 0.0245
1 11 -3 -0.0667 0.0155
1 11 -2 0.0622 -0.0257
1 11 -1 -0.0805 -0.1881
1 11 0 -0.1399 -0.0269
1 11 1 -0.0239 -0.0207
1 11 2 0.0232 -0.0708
1 11 3 -0.0467 -0.1370
1 11 4 -0.1055 0.0548
1 11 5 0.1728 0.0688
1 11 6 0.0567 -0.1987
1 11 7 -0.1081 -0.0027
1 11 8 -0.0265 -0.0253
1 11 9 -0.1606 0.1032
1 12 -2 -0.1226 -0.0695
1 12 -1 -0.0083 -0.0304
1 12 0 -0.0532 -0.0962
1 12 1 -0.0236 -0.0431
1 12 2 -0.0294 -0.0417
1 12 3 0.0385 0.0094
1 12 4 0.0252 -0.0038
1 12 5 0.1343 0.0835
1 12 6 0.1776 -0.1165
2 -11 -5 -0.1190 -0.0263
2 -11 -4 -0.0401 0.1421
2 -11 -3 0.0920 -0.0948
2 -11 -2 -0.2250 -0.1320
2 -11 -1 -0.1923 0.1928
2 -11 0 0.0445 0.1992
2 -11 1 0.1568 0.1235
2 -11 2 0.1723 -0.0543
2 -11 3 0.0301 -0.0508
2 -10 -8 -0.0733 0.0919
2 -10 -7 0.0507 -0.1642
2 -10 -6 -0.3064 -0.0551
2 -10 -5 -0.0516 0.1562
2 -10 -4 -0.0510 0.0187
2 -10 -3 0.0781 0.0731
2 -10 -2 0.0023 -0.2353
2 -10 -1 -0.3580 0.0229
2 -10 0 -0.0113 0.3772
2 -10 1 0.2609 0.0507
2 -10 2 0.0048 -0.0858
2 -10 3 -0.0439 0.0767
2 -10 4 0.0835 0.1020
2 -10 5 0.0947 -0.1058
2 -10 6 -0.1618 -0.0617
2 -10 7 -0.0286 0.0934
2 -9 -10 -0.0010 -0.0823
2 -9 -9 -0.0295 -0.1030
2 -9 -8 -0.1373 -0.1405
2 -9 -7 -0.1029 0.0768
2 -9 -6 0.0404 -0.2095
2 -9 -5 -0.4504 -0.0719
2 -9 -4 -0.0800 0.3795
2 -9 -3 0.1708 0.0204
2 -9 -2 -0.0370 -0.0929
2 -9 -1 -0.1719 -0.0134
2 -9 0 -0.1933 0.2165
2 -9 1 0.1295 0.2880
2 -9 2 0.1018 -0.1208
2 -9 3 -0.2845 0.1182
2 -9 4 0.0993 0.2954
2 -9 5 0.0811 -0.0271
2 -9 6 -0.0315 -0.0244
2 -9 7 -0.1329 -0.0168
2 -9 8 -0.0237 0.0954
2 -9 9 0.0006 -0.0980
2 -8 -12 -0.0052 -0.0888
2 -8 -11 -0.0469 -0.0747
2 -8 -10 0.0783 -0.0769
2 -8 -9 -0.1239 -0.2986
2 -8 -8 -0.2052 0.0653
2 -8 -7 0.0352 -0.1190
2 -8 -6 -0.1543 -0.0782
2 -8 -5 -0.0794 -0.2676
2 -8 -4 -0.6631 0.0026
2 -8 -3 0.0201 0.5965
2 -8 -2 0.2988 -0.2600
2 -8 -1 -0.5119 -0.2640
2 -8 0 -0.4538 0.4048
2 -8 1 0.0050 0.3719
2 -8 2 -0.0072 0.1129
2 -8 3 -0.2271 0.0921
2 -8 4 -0.2039 0.4473
2 -8 5 0.2466 0.2453
2 -8 6 -0.0877 -0.0131
2 -8 7 0.0420 0.2576
2 -8 8 0.1524 -0.0493
2 -8 9 0.0075 -0.0632
2 -8 10 -0.0284 -0.1055
2 -8 11 -0.0871 -0.0127
2 -7 -13 0.0595 0.0360
2 -7 -12 0.1516 -0.1064
2 -7 -11 -0.0127 -0.2497
2 -7 -10 -0.1626 -0.0700
2 -7 -9 0.1292 -0.0749
2 -7 -8 -0.2130 -0.4071
2 -7 -7 -0.2697 0.2152
2 -7 -6 0.3302 -0.1733
2 -7 -5 -0.2270 -0.5738
2 -7 -4 -0.6184 -0.2370
2 -7 -3 -0.4743 0.4293
2 -7 -2 0.4586 0.0794
2 -7 -1 -0.3303 -0.9087
2 -7 0 -1.2776 0.1207
2 -7 1 -0.3215 0.9952
2 -7 2 0.2988 0.1956
2 -7 3 -0.3703 0.0026
2 -7 4 -0.2843 0.4740
2 -7 5 -0.0305 0.4891
2 -7 6 0.2280 0.3091
2 -7 7 -0.0091 0.1218
2 -7 8 0.2136 0.3904
2 -7 9 0.4083 -0.1199
2 -7 10 -0.0119 -0.2048
2 -7 11 -0.0575 -0.0243
2 -7 12 -0.0073 0.0263
2 -6 -14 -0.0678 0.2395
2 -6 -13 0.1833 0.0480
2 -6 -12 0.0890 -0.0753
2 -6 -11 0.0705 -0.1302
2 -6 -10 0.0015 -0.1956
2 -6 -9 -0.0966 -0.1333
2 -6 -8 0.0790 -0.1547
2 -6 -7 -0.2213 -0.3078
2 -6 -6 0.1102 0.1882
2 -6 -5 0.4224 -0.8680
2 -6 -4 -0.9984 -0.6894
2 -6 -3 -0.4396 0.5300
2 -6 -2 0.4501 -0.1018
2 -6 -1 -0.1658 -1.0322
2 -6 0 -1.4576 -0.3917
2 -6 1 -0.9096 1.1205
2 -6 2 0.4618 0.7612
2 -6 3 0.0895 -0.3144
2 -6 4 -0.6915 0.3116
2 -6 5 0.0427 0.7399
2 -6 6 0.1370 0.3221
2 -6 7 0.1845 0.3322
2 -6 8 0.0926 0.1988
2 -6 9 0.3193 0.3474
2 -6 10 0.3564 -0.2005
2 -6 11 -0.1224 -0.1006
2 -6 12 -0.0205 0.0986
2 -6 13 0.0286 0.0783
2 -5 -14 -0.2855 0.0117
2 -5 -13 0.0078 0.4216
2 -5 -12 0.3700 -0.0754
2 -5 -11 -0.1003 -0.2457
2 -5 -10 -0.0200 0.1181
2 -5 -9 0.3311 -0.1524
2 -5 -8 0.0059 -0.4368
2 -5 -7 -0.0776 -0.1824
2 -5 -6 0.0919 -0.1130
2 -5 -5 0.5800 -0.4639
2 -5 -4 -0.4306 -1.4477
2 -5 -3 -1.3346 0.4036
2 -5 -2 0.9378 0.4937
2 -5 -1 0.0847 -1.6422
2 -5 0 -1.7688 -0.4567
2 -5 1 -0.9269 1.2028
2 -5 2 0.4589 0.8197
2 -5 3 0.2705 -0.1942
2 -5 4 -0.5587 -0.0499
2 -5 5 -0.4141 0.8744
2 -5 6 0.5742 0.5960
2 -5 7 0.1065 -0.1101
2 -5 8 -0.0933 0.3746
2 -5 9 0.2394 0.2837
2 -5 10 0.2396 0.0543
2 -5 11 -0.0158 -0.1049
2 -5 12 -0.1099 0.1627
2 -5 13 0.0465 0.0898
2 -5 14 -0.0391 0.0857
2 -4 -15 -0.1630 -0.0287
2 -4 -14 -0.1023 0.0801
2 -4 -13 -0.1682 0.1037
2 -4 -12 0.1451 0.2795
2 -4 -11 0.2182 -0.2391
2 -4 -10 -0.1998 0.0423
2 -4 -8 0.5213 -0.6558
2 -4 -7 -0.2605 -0.4086
2 -4 -6 0.3433 0.0235
2 -4 -5 0.4345 -0.6822
2 -4 -4 0.1232 -0.8803
2 -4 -3 -0.8281 -1.0732
2 -4 -2 -0.8119 0.7878
2 -4 -1 1.3496 -0.4627
2 -4 0 -1.4182 -2.1057
2 -4 1 -2.1818 1.3773
2 -4 2 0.9024 1.3795
2 -4 3 0.4025 -0.7864
2 -4 4 -0.9857 -0.1033
2 -4 5 -0.5255 0.8377
2 -4 6 0.2629 0.8625
2 -4 7 0.6173 -0.0009
2 -4 8 -0.3302 -0.2168
2 -4 9 -0.0991 0.5849
2 -4 10 0.3616 0.0678
2 -4 11 -0.0720 -0.1041
2 -4 12 -0.1435 0.1179
2 -4 13 0.0016 0.1793
2 -4 14 0.0100 0.0247
2 -4 15 -0.0774 0.1053
2 -3 -15 0.0262 -0.0529
2 -3 -14 -0.2433 -0.0431
2 -3 -13 -0.0233 0.2728
2 -3 -12 0.1684 -0.0165
2 -3 -11 0.0113 0.0033
2 -3 -10 0.0845 0.1201
2 -3 -9 0.3865 0.3248
2 -3 -7 0.1361 -1.0471
2 -3 -5 1.3605 -0.0132
2 -3 -4 0.3444 -1.7792
2 -3 -3 -0.7141 -0.7390
2 -3 -2 -0.4817 -0.5457
2 -3 -1 -0.1496 0.1176
2 -3 0 0.5692 -1.6347
2 -3 1 -2.7455 -1.3203
2 -3 2 -0.9915 2.3384
2 -3 3 1.5827 -0.3728
2 -3 4 -1.2876 -1.4365
2 -3 5 -1.4678 0.9720
2 -3 6 0.1561 1.0501
2 -3 7 0.4371 0.1812
2 -3 8 -0.0358 -0.2279
2 -3 9 -0.4089 0.2673
2 -3 10 0.2428 0.4697
2 -3 11 0.2172 -0.1488
2 -3 12 -0.1538 0.0280
2 -3 13 0.0170 0.1491
2 -3 14 0.0335 0.0690
2 -3 15 0.0208 0.0575
2 -3 16 0.0316 0.0538
2 -2 -15 -0.0540 0.0842
2 -2 -14 0.0593 -0.0371
2 -2 -13 -0.2092 0.1014
2 -2 -12 0.2817 0.3709
2 -2 -11 0.2655 -0.2350
2 -2 -10 -0.1926 0.2835
2 -2 -9 0.6466 0.5740
2 -2 -8 0.8911 -0.1220
2 -2 -7 0.6809 -0.4960
2 -2 -6 -0.0519 -0.6780
2 -2 -5 0.0603 0.7201
2 -2 -4 2.3363 -0.5102
2 -2 -3 -0.1502 -3.1883
2 -2 -2 -2.0517 -0.0254
2 -2 -1 1.1548 0.4290
2 -2 0 0.7630 -2.5747
2 -2 1 -2.2326 -2.3666
2 -2 2 -2.5015 0.8884
2 -2 3 0.8398 1.0105
2 -2 4 0.0779 -1.9667
2 -2 5 -2.3380 -0.3926
2 -2 7 0.5409 0.4142
2 -2 8 -0.1009 -0.2790
2 -2 9 -0.4449 0.2354
2 -2 10 0.0095 0.5411
2 -2 11 0.3760 0.1842
2 -2 12 0.0602 -0.1289
2 -2 13 -0.0772 0.1975
2 -2 14 0.1979 0.1511
2 -2 15 0.0811 0.0115
2 -2 16 0.0955 0.0621
2 -1 -16 0.0552 -0.0001
2 -1 -15 -0.1109 0.0026
2 -1 -14 -0.0024 0.1915
2 -1 -13 0.0225 0.0590
2 -1 -12 -0.0508 0.3982
2 -1 -11 0.5535 0.2818
2 -1 -10 -0.0211 -0.1982
2 -1 -9 -0.0320 0.9728
2 -1 -8 1.4758 0.3869
2 -1 -6 -0.0171 0.2559
2 -1 -5 0.8282 -0.0660
2 -1 -4 0.8510 -0.0476
2 -1 -3 2.0788 -1.7674
2 -1 -2 -1.7566 -3.2424
2 -1 -1 -1.3918 2.0760
2 -1 0 4.1303 -1.4347
2 -1 1 -1.8460 -5.8008
2 -1 2 -4.3966 0.6069
2 -1 3 0.5839 1.5410
2 -1 4 0.5023 -1.5886
2 -1 5 -1.6337 -1.2615
2 -1 6 -1.6929 0.6821
2 -1 7 0.1025 1.1038
2 -1 8 0.3530 -0.3062
2 -1 9 -0.6458 -0.0964
2 -1 10 -0.2388 0.6165
2 -1 11 0.2847 0.3791
2 -1 12 0.2270 -0.0373
2 -1 13 -0.1561 0.0671
2 -1 14 0.1149 0.3801
2 -1 15 0.2696 0.0217
2 -1 16 0.0156 0.0162
2 0 -16 0.0056 0.1411
2 0 -15 0.0511 -0.0884
2 0 -14 -0.2568 0.0883
2 0 -13 0.0204 0.3267
2 0 -12 -0.0345 0.1918
2 0 -11 0.1291 0.6022
2 0 -10 0.5661 0.0319
2 0 -9 -0.4798 0.1076
2 0 -8 0.5431 1.4647
2 0 -7 1.7634 -0.5677
2 0 -6 -0.8205 -0.9231
2 0 -5 0.3870 1.5983
2 0 -4 2.3984 -0.8387
2 0 -3 0.3548 -1.9136
2 0 -2 0.0685 -1.7482
2 0 -1 -1.6663 -0.6754
2 0 0 2.2417 1.5087
2 0 1 2.8169 -5.6985
2 0 2 -5.8490 -3.4704
2 0 3 -1.4406 3.6580
2 0 4 2.1690 -1.2353
2 0 5 -1.7493 -1.8356
2 0 6 -1.4460 0.4605
2 0 7 -0.5057 0.7800
2 0 8 0.4661 0.3270
2 0 9 -0.2053 -0.5874
2 0 10 -0.6647 0.3364
2 0 11 0.1254 0.4984
2 0 12 0.2440 0.0092
2 0 13 -0.1731 -0.0907
2 0 14 -0.1175 0.4230
2 0 15 0.3569 0.1188
2 0 16 -0.0640 -0.1325
2 0 17 -0.0611 0.1603
2 1 -15 -0.0200 0.1412
2 1 -14 -0.0031 -0.1102
2 1 -13 -0.3268 0.1647
2 1 -12 0.0479 0.3809
2 1 -11 -0.0046 0.2244
2 1 -10 0.2372 0.4356
2 1 -9 0.1711 -0.1716
2 1 -8 -0.5176 0.6512
2 1 -7 1.2566 0.9853
2 1 -6 0.8208 -1.3404
2 1 -5 -1.1866 0.3771
2 1 -4 2.1567 1.4541
2 1 -3 2.1778 -2.8644
2 1 -2 -1.6506 -1.9036
2 1 -1 -0.3428 0.5038
2 1 0 1.1133 0.2356
2 1 1 2.9474 -1.9063
2 1 2 -1.4372 -5.4626
2 1 3 -4.9047 1.0933
2 1 4 2.0953 2.3826
2 1 5 0.5358 -3.2281
2 1 6 -2.8904 -0.1115
2 1 7 -0.1155 1.4259
2 1 8 0.4131 -0.0602
2 1 9 -0.0824 -0.3723
2 1 10 -0.5284 -0.1099
2 1 11 -0.1690 0.4271
2 1 12 0.2608 0.0918
2 1 13 -0.0081 -0.2043
2 1 14 -0.2803 0.1396
2 1 15 0.2343 0.3003
2 1 16 0.1128 -0.2964
2 1 17 -0.3119 0.0381
2 2 -15 -0.0532 -0.0952
2 2 -14 -0.0897 0.0607
2 2 -13 -0.0415 0.0090
2 2 -12 -0.1635 0.1370
2 2 -11 0.0476 0.3006
2 2 -10 0.1892 0.1282
2 2 -9 0.0607 -0.0081
2 2 -8 -0.2034 0.1940
2 2 -7 0.2743 0.7078
2 2 -6 0.9505 -0.1542
2 2 -5 -0.2838 -0.5214
2 2 -4 0.2301 1.2412
2 2 -2 0.0690 -3.1664
2 2 -1 -2.3148 0.3865
2 2 0 1.6247 1.7594
2 2 1 2.2682 -1.5926
2 2 2 0.2331 -2.7240
2 2 3 -2.4492 -1.8370
2 2 4 -1.5203 2.1268
2 2 5 2.4151 -0.1590
2 2 6 -1.4048 -2.7973
2 2 7 -2.2118 1.5305
2 2 8 1.3437 0.8602
2 2 9 0.0047 -1.2128
2 2 10 -0.7949 0.0761
2 2 11 -0.0188 0.3234
2 2 12 0.1480 0.1115
2 2 13 0.1678 -0.0865
2 2 14 -0.0702 -0.0813
2 2 15 0.0133 0.1470
2 2 16 0.1961 -0.0762
2 2 17 -0.1495 -0.1985
2 3 -15 -0.0088 0.0745
2 3 -14 0.0641 -0.0835
2 3 -13 -0.1640 -0.0253
2 3 -12 0.0202 0.1834
2 3 -11 0.0318 0.0330
2 3 -10 0.0848 0.2689
2 3 -9 0.3206 -0.0884
2 3 -8 -0.2992 -0.0165
2 3 -7 0.1695 0.6632
2 3 -6 0.6907 -0.0816
2 3 -5 -0.2255 -0.2840
2 3 -4 -0.0644 0.8770
2 3 -3 1.4462 0.5463
2 3 -2 1.2542 -1.3818
2 3 -1 -1.3134 -1.3999
2 3 0 -1.1233 2.0216
2 3 1 2.9031 0.9572
2 3 2 0.9077 -2.8765
2 3 3 -1.8650 -0.8398
2 3 4 -0.6949 0.7802
2 3 6 0.6443 -1.4770
2 3 7 -1.8727 -0.7374
2 3 8 -0.0975 1.5157
2 3 9 1.1183 -0.8056
2 3 10 -1.0256 -0.7532
2 3 11 -0.2760 0.7203
2 3 12 0.3405 0.0613
2 3 13 0.0844 0.0185
2 3 14 0.1235 -0.0269
2 3 15 0.0211 0.0191
2 3 16 0.0848 0.0055
2 3 17 0.0246 -0.0637
2 4 -14 -0.0433 0.1200
2 4 -13 0.1143 -0.0975
2 4 -12 -0.2056 -0.0083
2 4 -11 0.0515 0.2721
2 4 -10 0.1064 0.0970
2 4 -9 0.1638 0.2150
2 4 -8 0.1160 -0.0580
2 4 -7 -0.1640 0.3930
2 4 -6 0.6106 0.3585
2 4 -5 0.0690 -0.5110
2 4 -4 -0.7428 0.5557
2 4 -3 0.8119 1.2434
2 4 -2 1.2871 -0.6529
2 4 -1 -0.5698 -0.9301
2 4 0 -0.9742 0.5344
2 4 1 0.3602 1.5354
2 4 2 2.0663 -0.4594
2 4 3 -0.9480 -2.2242
2 4 4 -1.7921 1.2958
2 4 5 1.3891 0.9874
2 4 6 0.5894 -1.3090
2 4 7 -0.9053 -0.5792
2 4 8 -0.2713 0.6000
2 4 9 0.7919 -0.1310
2 4 10 -0.2136 -0.9250
2 4 11 -0.6821 0.2582
2 4 12 0.2910 0.4151
2 4 13 0.1662 -0.1217
2 4 14 0.0008 0.0604
2 4 15 0.0471 0.0127
2 4 16 -0.0111 0.0517
2 4 17 0.0333 0.0344
2 5 -13 -0.0166 0.0263
2 5 -12 -0.0239 -0.0687
2 5 -11 -0.1815 0.1001
2 5 -10 0.0046 0.2942
2 5 -9 0.0935 0.1955
2 5 -8 0.0592 0.2328
2 5 -7 0.0730 0.2442
2 5 -6 0.1918 0.3504
2 5 -5 0.3630 -0.0933
2 5 -4 -0.5061 -0.1794
2 5 -3 -0.3413 1.0751
2 5 -2 1.2349 0.5101
2 5 0 -1.1995 0.3220
2 5 1 0.3662 0.9421
2 5 2 0.5650 -0.1107
2 5 3 0.1844 -0.7355
2 5 4 -1.3381 -0.3600
2 5 5 -0.1089 1.6920
2 5 6 1.5716 -0.3853
2 5 7 -0.6062 -1.0002
2 5 8 -0.2695 0.6759
2 5 9 0.7639 -0.0038
2 5 11 -0.3248 -0.1537
2 5 12 -0.0900 0.2723
2 5 13 0.2461 0.0773
2 5 14 -0.0316 -0.1479
2 5 15 -0.0985 0.0961
2 5 16 -0.0061 0.0222
2 6 -13 0.0195 -0.0862
2 6 -12 -0.0836 -0.0624
2 6 -11 -0.1129 0.0436
2 6 -10 -0.1283 0.1430
2 6 -9 -0.0403 0.2456
2 6 -8 -0.0477 0.2269
2 6 -7 0.0643 0.4032
2 6 -6 0.2591 0.1517
2 6 -5 0.0993 0.0807
2 6 -4 0.0595 -0.1494
2 6 -2 0.2597 0.8485
2 6 -1 0.7393 -0.3452
2 6 0 -0.5977 -0.5434
2 6 1 -0.4464 0.7731
2 6 2 0.7088 0.2110
2 6 3 -0.0699 -0.5909
2 6 4 -0.5456 -0.0077
2 6 6 0.6992 0.6134
2 6 7 0.3679 -0.7095
2 6 8 -0.6285 0.2236
2 6 10 0.5031 -0.3920
2 6 11 -0.1571 -0.2422
2 6 12 -0.1104 0.1164
2 6 13 0.0851 0.0975
2 6 14 0.0314 -0.0995
2 6 15 -0.1725 -0.0089
2 6 16 -0.0184 0.1061
2 7 -12 0.0009 -0.0893
2 7 -11 -0.0763 0.0154
2 7 -10 -0.0619 0.0196
2 7 -9 -0.1471 0.1286
2 7 -8 -0.0340 0.1951
2 7 -7 -0.0762 0.2316
2 7 -6 0.2115 0.3207
2 7 -5 0.2258 -0.1129
2 7 -4 -0.0487 -0.0535
2 7 -3 -0.1379 -0.0911
2 7 -2 -0.2549 0.3763
2 7 -1 0.4743 0.2012
2 7 0 -0.0480 -0.4288
2 7 1 -0.4390 0.1170
2 7 2 -0.0894 0.4745
2 7 3 0.4082 0.1303
2 7 5 -0.3911 0.3779
2 7 6 0.1849 0.3851
2 7 7 0.2299 -0.0010
2 7 8 -0.2254 -0.1194
2 7 9 -0.2141 0.5672
2 7 10 0.5836 0.2884
2 7 11 0.1480 -0.4314
2 7 12 -0.3742 -0.0130
2 7 13 0.0142 0.2545
2 7 14 0.0522 -0.1131
2 7 15 -0.1931 0.0064
2 8 -10 0.0135 0.0180
2 8 -9 -0.0787 -0.0330
2 8 -8 -0.1195 0.1427
2 8 -7 0.0359 0.1524
2 8 -6 0.0388 0.0984
2 8 -5 0.1440 0.1029
2 8 -4 0.1693 -0.1606
2 8 -3 -0.2011 -0.1846
2 8 -2 -0.2184 0.2473
2 8 -1 0.2702 0.2348
2 8 0 0.1372 -0.3369
2 8 1 -0.4514 -0.0876
2 8 2 -0.2789 0.3600
2 8 3 0.0724 0.4492
2 8 6 -0.1864 0.4853
2 8 7 0.1416 -0.0447
2 8 8 -0.3265 -0.0263
2 8 9 -0.2552 0.2901
2 8 10 0.1125 0.3389
2 8 11 0.2150 -0.1826
2 8 12 -0.3119 -0.2009
2 8 13 -0.2114 0.1890
2 8 14 0.0328 0.0373
2 9 -9 -0.0268 -0.0046
2 9 -8 -0.0428 0.0225
2 9 -7 -0.0483 0.0693
2 9 -6 0.0589 0.1047
2 9 -5 0.0785 -0.0493
2 9 -4 -0.0094 0.0141
2 9 -3 0.0635 -0.0988
2 9 -2 -0.2599 0.0183
2 9 -1 0.1355 0.3604
2 9 0 0.3056 -0.2215
2 9 1 -0.2988 -0.2811
2 9 2 -0.4027 0.2263
2 9 3 0.0253 0.3872
2 9 4 0.2322 -0.0327
2 9 5 -0.1706 -0.3209
2 9 6 -0.4688 0.0668
2 9 7 -0.0400 0.2231
2 9 8 -0.0953 -0.2019
2 9 9 -0.4182 0.0384
2 9 10 -0.0543 0.2927
2 9 11 0.1843 -0.1422
2 9 12 -0.2917 -0.2642
2 9 13 -0.2046 0.1729
2 10 -7 0.0312 -0.0158
2 10 -6 -0.0560 -0.0012
2 10 -5 0.0254 0.0573
2 10 -4 0.0260 -0.0495
2 10 -3 -0.0785 0.0039
2 10 -2 -0.0513 0.0960
2 10 -1 0.0477 0.1630
2 10 0 0.1798 -0.0191
2 10 1 -0.0825 -0.1605
2 10 2 -0.2047 0.0474
2 10 3 -0.0701 0.1782
2 10 4 0.1462 -0.0284
2 10 5 -0.1651 -0.2858
2 10 6 -0.2972 -0.0010
2 10 7 -0.1518 0.0047
2 10 8 -0.1098 0.0031
2 10 9 -0.0904 -0.1124
2 10 10 -0.1907 -0.0026
2 10 11 0.0353 0.0305
2 10 12 -0.0327 -0.1820
2 11 -5 -0.0313 -0.0034
2 11 -4 -0.0383 0.0218
2 11 -3 0.0311 0.0604
2 11 -2 -0.0190 -0.0320
2 11 -1 -0.0475 0.1239
2 11 0 0.1041 0.0139
2 11 1 -0.0911 -0.0678
2 11 2 -0.1005 0.0777
2 11 3 -0.0187 0.0410
2 11 4 -0.0181 -0.0580
2 11 5 -0.1510 -0.1220
2 11 6 -0.1856 0.0340
2 11 7 -0.0378 -0.0039
2 11 8 -0.0911 -0.0401
2 11 9 -0.0051 -0.0288
2 11 10 -0.0708 -0.0851
2 12 -1 0.0084 -0.1095
2 12 0 -0.0987 0.0160
2 12 1 -0.0445 0.0104
2 12 2 -0.0707 0.0100
2 12 3 -0.0866 -0.0382
2 12 4 -0.1348 0.0112
2 12 5 -0.0983 -0.0231
2 12 6 -0.1590 0.0486
3 -10 -6 0.1185 0.0462
3 -10 -5 0.0791 -0.0986
3 -10 -4 0.0042 -0.0416
3 -10 -3 -0.0089 -0.0478
3 -10 -2 -0.0374 0.0502
3 -10 -1 0.1201 0.0164
3 -10 0 -0.0169 -0.1939
3 -10 1 -0.2437 0.0330
3 -10 2 0.0249 0.2070
3 -10 3 0.1222 -0.0245
3 -10 4 -0.0383 -0.0817
3 -10 5 -0.0945 0.0694
3 -9 -9 0.0336 0.0458
3 -9 -8 0.1036 0.0679
3 -9 -7 0.1441 -0.0635
3 -9 -6 -0.0405 -0.0104
3 -9 -5 0.2267 0.1043
3 -9 -4 0.1480 -0.3543
3 -9 -3 -0.3239 -0.1055
3 -9 -2 -0.0269 0.1893
3 -9 -1 0.0376 -0.0572
3 -9 0 -0.0997 0.0156
3 -9 1 -0.0470 0.0363
3 -9 2 -0.0542 0.1417
3 -9 3 0.2100 0.0475
3 -9 4 -0.0249 -0.2105
3 -9 5 -0.1404 0.0493
3 -9 6 -0.0203 0.0681
3 -9 7 0.0219 0.0983
3 -9 8 0.0608 0.0016
3 -8 -10 0.0018 0.0168
3 -8 -9 0.0504 0.1277
3 -8 -8 0.1754 0.0033
3 -8 -7 0.0240 0.0274
3 -8 -6 0.2189 0.0620
3 -8 -5 0.1239 -0.0611
3 -8 -4 0.3457 -0.0554
3 -8 -3 0.0332 -0.6095
3 -8 -2 -0.5496 0.0053
3 -8 -1 0.1540 0.3089
3 -8 0 0.1019 -0.2804
3 -8 1 -0.2691 -0.0071
3 -8 2 0.0235 0.1457
3 -8 3 0.0822 -0.0131
3 -8 4 0.0642 -0.1709
3 -8 5 -0.2705 -0.1553
3 -8 6 -0.1411 0.1888
3 -8 7 -0.0326 -0.0093
3 -8 8 -0.1571 0.1356
3 -8 9 0.0277 0.1236
3 -8 10 -0.0399 0.0681
3 -7 -12 0.0301 0.0520
3 -7 -11 0.0619 0.0752
3 -7 -10 0.1334 0.0063
3 -7 -9 -0.0311 -0.0651
3 -7 -8 0.0027 0.2450
3 -7 -7 0.3047 0.0270
3 -7 -6 -0.0364 0.0261
3 -7 -5 0.3471 0.3303
3 -7 -4 0.5612 -0.1734
3 -7 -3 0.2560 -0.4494
3 -7 -2 -0.2434 -0.3868
3 -7 -1 -0.1981 0.2966
3 -7 0 0.5272 0.0439
3 -7 1 0.0504 -0.6370
3 -7 2 -0.4846 -0.0686
3 -7 3 0.0466 0.1759
3 -7 4 0.0199 -0.2204
3 -7 5 -0.1840 -0.1914
3 -7 6 -0.3931 -0.1137
3 -7 7 -0.2786 0.2510
3 -7 8 -0.0538 0.0218
3 -7 9 -0.3180 0.0820
3 -7 10 -0.1160 0.2912
3 -7 11 0.0402 0.1703
3 -6 -13 -0.1673 -0.0077
3 -6 -12 0.0272 0.1754
3 -6 -11 0.1265 0.0001
3 -6 -10 0.0070 -0.0067
3 -6 -9 0.0662 0.0690
3 -6 -8 -0.0034 -0.0002
3 -6 -7 0.0046 0.2886
3 -6 -6 0.2682 0.1256
3 -6 -5 0.0023 0.3244
3 -6 -4 0.8214 0.4732
3 -6 -3 0.6798 -0.6655
3 -6 -2 -0.3304 -0.3036
3 -6 -1 0.0870 0.3940
3 -6 0 0.6533 -0.0026
3 -6 1 0.3655 -0.6831
3 -6 2 -0.4283 -0.6151
3 -6 3 -0.4790 0.1367
3 -6 8 -0.2350 0.2333
3 -6 9 -0.1026 -0.0711
3 -6 10 -0.4264 0.1015
3 -6 11 -0.0515 0.3356
3 -6 12 0.0814 0.0320
3 -5 -13 0.0417 -0.1967
3 -5 -12 -0.2696 0.0311
3 -5 -11 0.1462 0.2746
3 -5 -10 0.1913 -0.1708
3 -5 -9 -0.2234 -0.0044
3 -5 -8 0.0407 0.3281
3 -5 -7 0.1256 0.0917
3 -5 -6 -0.0177 0.2973
3 -5 -5 0.1567 0.3697
3 -5 -4 0.3523 0.6667
3 -5 -3 1.1894 0.0404
3 -5 -2 0.0135 -0.8948
3 -5 -1 -0.4449 0.6389
3 -5 0 1.2007 0.4434
3 -5 1 0.6902 -1.1464
3 -5 2 -0.6041 -0.7310
3 -5 3 -0.3818 0.0448
3 -5 4 -0.0116 -0.0493
3 -5 5 0.0085 -0.4162
3 -5 6 -0.6251 -0.4837
3 -5 7 -0.5941 0.3006
3 -5 8 0.0134 0.1437
3 -5 9 -0.1546 -0.1321
3 -5 10 -0.2649 -0.0165
3 -5 11 -0.1490 0.1456
3 -5 12 0.0419 -0.0175
3 -5 13 -0.1438 -0.0808
3 -5 14 -0.0765 0.0803
3 -4 -13 0.0196 -0.0007
3 -4 -12 -0.0199 -0.1562
3 -4 -11 -0.2008 0.1637
3 -4 -10 0.2367 0.1314
3 -4 -9 -0.1780 -0.1834
3 -4 -8 -0.2883 0.5004
3 -4 -7 0.3595 0.3826
3 -4 -6 -0.0494 0.0122
3 -4 -5 -0.0859 0.6547
3 -4 -4 0.4549 0.5352
3 -4 -3 0.5775 0.5035
3 -4 -2 1.0403 -0.2351
3 -4 -1 -0.3407 -0.5537
3 -4 0 0.2627 1.1327
3 -4 1 1.8332 -0.5709
3 -4 2 -0.3937 -1.6923
3 -4 3 -0.8400 0.3089
3 -4 4 0.5761 0.1041
3 -4 5 0.1173 -0.7698
3 -4 6 -0.4494 -0.5928
3 -4 7 -0.7869 -0.0415
3 -4 8 -0.0773 0.5500
3 -4 9 0.3009 -0.2336
3 -4 10 -0.3244 -0.2014
3 -4 11 -0.0677 0.1413
3 -4 12 0.0788 -0.0992
3 -4 13 -0.1160 -0.1968
3 -4 14 -0.2089 0.0339
3 -3 -13 0.0141 -0.1877
3 -3 -12 -0.1599 0.0544
3 -3 -11 -0.0156 0.0632
3 -3 -10 -0.1241 0.0837
3 -3 -9 -0.1337 0.0522
3 -3 -8 -0.4958 0.2848
3 -3 -7 0.0100 0.8829
3 -3 -6 0.5450 0.1095
3 -3 -5 -0.5286 -0.0120
3 -3 -4 -0.0758 1.3149
3 -3 -3 1.1189 0.5576
3 -3 -2 0.6099 0.0154
3 -3 -1 0.6627 -0.1042
3 -3 0 0.0309 0.0797
3 -3 1 1.2754 0.6636
3 -3 2 1.2251 -1.5940
3 -3 3 -1.1617 -0.7087
3 -3 4 0.3295 0.9409
3 -3 5 1.1011 -0.7094
3 -3 6 -0.2683 -1.0743
3 -3 7 -0.7127 -0.2219
3 -3 8 -0.2809 0.4239
3 -3 9 0.3913 0.0830
3 -3 10 -0.0838 -0.3882
3 -3 11 -0.2242 0.1381
3 -3 12 0.1529 -0.0079
3 -3 13 -0.0749 -0.1795
3 -3 14 -0.1455 -0.0435
3 -3 15 -0.1112 0.0497
3 -2 -14 -0.0559 0.0180
3 -2 -13 0.1172 0.0426
3 -2 -12 -0.1780 -0.2364
3 -2 -11 -0.3398 0.2659
3 -2 -10 0.0603 0.0607
3 -2 -9 -0.4803 -0.1061
3 -2 -8 -0.5070 0.4437
3 -2 -7 -0.2529 0.5259
3 -2 -6 0.0594 0.6571
3 -2 -5 0.3053 0.0034
3 -2 -4 -0.8749 0.2248
3 -2 -3 0.1668 2.0071
3 -2 -2 2.0469 0.3583
3 -2 -1 0.2376 -0.8236
3 -2 0 -0.0322 0.8661
3 -2 1 1.5562 0.7412
3 -2 2 1.6068 -0.9736
3 -2 3 -0.3378 -1.2410
3 -2 4 -0.4019 0.7418
3 -2 6 0.6777 -1.2522
3 -2 7 -0.6524 -0.7108
3 -2 8 -0.4273 0.3257
3 -2 9 0.3010 0.2019
3 -2 10 0.0913 -0.3363
3 -2 11 -0.3408 -0.0538
3 -2 12 -0.0154 0.2428
3 -2 13 0.1275 -0.1232
3 -2 14 -0.1991 -0.1392
3 -2 15 -0.1433 0.0638
3 -2 16 -0.0738 0.0453
3 -1 -15 -0.0339 0.1424
3 -1 -14 0.0746 -0.0685
3 -1 -13 -0.1950 -0.0239
3 -1 -12 -0.0165 -0.0137
3 -1 -11 -0.4366 -0.2055
3 -1 -10 -0.3513 0.4087
3 -1 -9 0.0756 -0.1986
3 -1 -8 -0.9498 -0.1810
3 -1 -7 -0.4595 0.9228
3 -1 -6 0.3148 0.1790
3 -1 -5 -0.4519 0.0373
3 -1 -4 -0.2174 0.5942
3 -1 -3 -0.3471 0.7658
3 -1 -2 0.8239 1.8094
3 -1 -1 2.0415 -0.4303
3 -1 0 -0.9358 -0.5767
3 -1 1 0.6466 2.4950
3 -1 2 3.1460 -0.4383
3 -1 3 -0.0838 -2.0314
3 -1 4 -0.8102 0.5763
3 -1 5 0.9977 0.7892
3 -1 6 1.2329 -0.5908
3 -1 7 -0.0424 -1.1696
3 -1 8 -0.7659 0.0180
3 -1 9 0.2235 0.4318
3 -1 10 0.1968 -0.3008
3 -1 11 -0.2607 -0.1281
3 -1 12 -0.1985 0.1374
3 -1 13 0.1020 0.1651
3 -1 14 0.0826 -0.2788
3 -1 15 -0.3552 -0.1064
3 -1 16 -0.0791 0.1613
3 0 -15 -0.1503 0.0185
3 0 -14 0.0592 0.1205
3 0 -13 -0.0007 -0.2697
3 0 -12 -0.3775 -0.0424
3 0 -11 -0.0797 -0.0505
3 0 -10 -0.5657 -0.1750
3 0 -9 -0.1519 0.4639
3 0 -8 0.1307 -0.5997
3 0 -6 0.1092 1.2517
3 0 -5 0.6646 -0.7092
3 0 -4 -1.4647 -0.0203
3 0 -3 0.0937 1.7780
3 0 -2 0.8986 0.3990
3 0 -1 0.5975 0.5834
3 0 0 0.6266 -0.4125
3 0 1 -1.0038 1.1222
3 0 2 2.5473 2.1782
3 0 3 2.1855 -2.4300
3 0 4 -1.7955 -0.7195
3 0 5 0.4982 1.5945
3 0 6 1.4398 -0.3738
3 0 7 0.2903 -0.9608
3 0 8 -0.6022 -0.4797
3 0 9 -0.2583 0.5711
3 0 10 0.4868 -0.0056
3 0 11 -0.1811 -0.2904
3 0 12 -0.1890 0.1456
3 0 13 0.0464 0.1582
3 0 14 0.2230 -0.1332
3 0 15 -0.2132 -0.3433
3 0 16 -0.2492 0.1413
3 1 -14 -0.0937 0.0055
3 1 -13 0.0961 -0.0273
3 1 -12 -0.1552 -0.3447
3 1 -11 -0.3663 0.0402
3 1 -10 -0.0562 -0.1071
3 1 -9 -0.4672 -0.0197
3 1 -7 -0.1663 -0.8060
3 1 -6 -1.0875 0.5165
3 1 -5 0.8913 0.7847
3 1 -4 -0.0483 -1.2527
3 1 -3 -1.6516 1.0560
3 1 -2 1.3784 1.7521
3 1 -1 0.9006 -0.9243
3 1 0 -0.6382 0.1745
3 1 1 -0.1643 0.6606
3 1 2 0.2991 1.8037
3 1 3 2.9263 0.2285
3 1 4 -0.0518 -2.5771
3 1 5 -1.5999 1.1706
3 1 6 1.9165 1.0317
3 1 7 0.7523 -1.5630
3 1 8 -0.8430 -0.3865
3 1 9 -0.1900 0.4874
3 1 10 0.3118 0.1948
3 1 11 0.0912 -0.1833
3 1 12 -0.1828 -0.0087
3 1 13 -0.0645 0.1888
3 1 14 0.2479 0.0569
3 1 15 0.0140 -0.3846
3 1 16 -0.3241 0.0158
3 1 17 0.1194 0.1122
3 2 -14 0.0606 0.0027
3 2 -13 0.0183 -0.0936
3 2 -12 -0.0419 -0.1267
3 2 -11 -0.1463 -0.1589
3 2 -10 -0.2204 -0.0376
3 2 -9 -0.1287 0.0212
3 2 -8 -0.0340 0.0408
3 2 -7 0.0579 -0.2095
3 2 -4 0.6147 -0.2669
3 2 -3 -0.9505 -0.4598
3 2 0 -0.3391 -1.5466
3 2 1 -1.3351 0.8506
3 2 2 0.4139 1.3114
3 2 3 1.2436 0.7501
3 2 4 1.4909 -1.0970
3 2 5 -1.2705 -1.0521
3 2 6 -0.1005 1.8793
3 2 7 2.1007 -0.4295
3 2 8 -0.6916 -1.4837
3 2 9 -0.7465 0.8784
3 2 10 0.6750 0.3122
3 2 11 0.0074 -0.3118
3 2 12 -0.1560 0.0431
3 2 13 -0.1099 0.0406
3 2 14 -0.0092 0.1452
3 2 15 0.1520 -0.1262
3 2 16 -0.2012 -0.1797
3 2 17 -0.0504 0.1569
3 3 -14 -0.0350 0.0027
3 3 -13 0.0836 0.0639
3 3 -12 0.0727 -0.1796
3 3 -11 -0.1426 -0.0790
3 3 -10 -0.0077 -0.1136
3 3 -9 -0.3034 -0.1091
3 3 -8 -0.0098 0.2302
3 3 -7 0.0962 -0.2896
3 3 -6 -0.4963 -0.0396
3 3 -5 0.0191 0.5138
3 3 -4 0.4444 -0.1979
3 3 -3 -0.5027 -0.4763
3 3 -2 -0.7035 0.7177
3 3 -1 0.7847 0.9520
3 3 0 1.0649 -0.9593
3 3 1 -1.3107 -0.9974
3 3 2 -0.7991 1.6264
3 3 3 1.5489 0.7571
3 3 4 0.8504 -0.9063
3 3 5 -0.3930 -0.7378
3 3 6 -0.6733 0.6775
3 3 7 1.1324 0.8301
3 3 8 0.5905 -1.1547
3 3 9 -1.0677 0.0438
3 3 10 0.3775 0.8676
3 3 11 0.4194 -0.4064
3 3 12 -0.3118 -0.1673
3 3 13 -0.1570 0.0189
3 3 14 -0.1290 0.0731
3 3 15 0.0563 -0.0254
3 3 16 -0.0834 -0.1291
3 3 17 -0.0768 0.0124
3 4 -13 -0.0728 -0.0275
3 4 -12 0.1185 0.0987
3 4 -11 0.0940 -0.2325
3 4 -10 -0.1284 -0.1204
3 4 -9 -0.0885 -0.1770
3 4 -7 0.0996 0.0495
3 4 -6 -0.2611 -0.2844
3 4 -5 -0.3189 0.4322
3 4 -4 0.5511 0.1483
3 4 -3 -0.0877 -0.7460
3 4 -2 -0.9330 0.2805
3 4 -1 0.4089 0.9772
3 4 0 0.9290 -0.3567
3 4 1 -0.1453 -0.8546
3 4 2 -0.9265 0.1986
3 4 3 0.5280 1.3499
3 4 4 1.6215 -0.6025
3 4 5 -0.5444 -1.2164
3 4 6 -0.7683 0.6802
3 4 7 0.6214 0.7451
3 4 8 0.6006 -0.3959
3 4 9 -0.5074 -0.2835
3 4 10 -0.1588 0.6638
3 4 11 0.5448 0.0241
3 4 12 -0.0933 -0.4288
3 4 13 -0.2636 -0.0504
3 4 14 -0.1288 0.0067
3 4 15 0.0167 0.0170
3 4 16 0.0065 -0.1560
3 5 -13 0.0740 -0.0271
3 5 -12 -0.0161 0.0321
3 5 -11 0.1864 -0.0303
3 5 -10 0.0081 -0.2798
3 5 -9 -0.1307 -0.1270
3 5 -8 -0.1185 -0.1429
3 5 -7 -0.1907 0.0058
3 5 -6 -0.0329 -0.0118
3 5 -5 -0.2324 0.0466
3 5 -4 0.1486 0.3653
3 5 -3 0.4224 -0.3217
3 5 -2 -0.5495 -0.4008
3 5 -1 -0.3014 0.8367
3 5 0 0.9809 0.1795
3 5 1 -0.0077 -0.7059
3 5 2 -0.3354 0.2770
3 5 3 0.2112 0.4655
3 5 4 0.8423 0.3229
3 5 5 0.5251 -0.9727
3 5 6 -1.0619 -0.1049
3 5 7 0.1893 1.0692
3 5 8 0.6642 -0.2140
3 5 9 -0.3332 -0.2773
3 5 10 -0.2515 0.3400
3 5 11 0.2118 0.2394
3 5 12 0.2276 -0.2357
3 5 13 -0.2191 -0.3040
3 5 14 -0.1766 0.0943
3 5 15 0.1059 -0.0268
3 5 16 -0.0047 -0.1035
3 6 -12 0.0513 0.0407
3 6 -11 0.1077 -0.0162
3 6 -10 0.0989 -0.1680
3 6 -9 -0.0914 -0.1676
3 6 -8 -0.0277 -0.0355
3 6 -6 -0.2420 0.1091
3 6 -3 0.2987 0.2537
3 6 -2 0.2001 -0.4010
3 6 0 0.3400 0.5601
3 6 1 0.4447 -0.3798
3 6 2 -0.4332 -0.0713
3 6 3 0.1190 0.5231
3 6 4 0.3006 0.0937
3 6 5 0.3069 0.0446
3 6 6 -0.1043 -0.3956
3 6 7 -0.5293 0.5264
3 6 8 0.6479 0.4340
3 6 9 0.0588 -0.6010
3 6 10 -0.5309 0.1334
3 6 11 0.1370 0.3352
3 6 12 0.2379 -0.1540
3 6 13 -0.0482 -0.2827
3 6 14 -0.2047 -0.0503
3 6 15 0.0641 0.0973
3 6 16 0.0657 -0.1362
3 7 -11 0.1030 0.0180
3 7 -10 0.0323 -0.0847
3 7 -9 0.0327 -0.0630
3 7 -8 -0.0423 -0.0811
3 7 -7 0.0023 -0.0001
3 7 -6 -0.1081 -0.0888
3 7 -5 -0.1510 0.2442
3 7 -4 0.1523 0.1590
3 7 -3 0.0358 0.1619
3 7 -2 0.3480 0.0485
3 7 -1 -0.1019 -0.2675
3 7 0 -0.1100 0.3263
3 7 1 0.3799 0.0364
3 7 4 -0.0647 0.4069
3 7 5 0.1936 0.0697
3 7 6 -0.0431 0.0181
3 7 7 -0.0667 0.0843
3 7 8 0.0359 0.2550
3 7 9 0.3532 -0.1172
3 7 10 -0.2483 -0.3723
3 7 11 -0.2419 0.3110
3 7 12 0.4162 0.0774
3 7 13 0.0773 -0.4344
3 7 14 -0.2256 -0.0741
3 7 15 0.0343 0.0447
3 8 -10 0.0578 -0.0494
3 8 -9 -0.0427 0.0053
3 8 -8 0.1009 -0.0045
3 8 -7 -0.0499 -0.1092
3 8 -6 -0.0675 0.0599
3 8 -5 -0.0347 0.0163
3 8 -4 -0.1039 0.1271
3 8 -3 0.0677 0.2148
3 8 -2 0.2255 0.0124
3 8 -1 -0.0539 -0.2089
3 8 0 -0.1859 0.2195
3 8 1 0.3513 0.1432
3 8 2 0.1773 -0.3179
3 8 3 -0.1390 -0.3235
3 8 4 -0.4785 0.0434
3 8 5 0.1348 0.5020
3 8 6 0.3081 -0.2504
3 8 7 -0.2462 0.0088
3 8 8 0.2242 0.1801
3 8 9 0.1611 -0.2157
3 8 10 -0.1002 -0.1391
3 8 11 -0.0650 0.1179
3 8 12 0.2574 0.0871
3 8 13 0.2139 -0.2501
3 8 14 -0.0946 -0.2064
3 9 -8 0.0091 0.0139
3 9 -7 0.0697 -0.0447
3 9 -6 -0.0517 -0.0966
3 9 -5 -0.0765 0.0253
3 9 -4 -0.0119 0.0002
3 9 -3 -0.0700 0.0265
3 9 -2 0.0891 0.0502
3 9 -1 -0.0017 -0.2217
3 9 0 -0.2950 0.0663
3 9 1 0.1921 0.3321
3 9 2 0.4098 -0.2209
3 9 3 -0.0732 -0.3651
3 9 4 -0.2088 -0.0042
3 9 5 0.0311 0.2400
3 9 6 0.3838 0.0426
3 9 7 0.1278 -0.2926
3 9 8 -0.0637 -0.0012
3 9 9 0.1665 0.0096
3 9 10 0.0407 -0.1586
3 9 11 -0.1287 0.0743
3 9 12 0.2278 0.2173
3 9 13 0.2461 -0.2148
3 10 -6 0.0439 -0.0312
3 10 -5 -0.0011 -0.1163
3 10 -4 -0.0820 -0.0504
3 10 -3 -0.0058 0.0181
3 10 -2 0.0910 -0.0800
3 10 -1 -0.0482 -0.2104
3 10 0 -0.1841 0.0071
3 10 1 0.0748 0.1523
3 10 2 0.2276 -0.0223
3 10 3 0.1580 -0.1889
3 10 4 -0.0944 -0.1014
3 10 5 0.0958 0.2393
3 10 6 0.3809 -0.0338
3 10 7 0.1219 -0.1687
3 10 8 0.0990 -0.0638
3 10 9 0.0112 -0.1039
3 10 10 -0.0419 0.0536
3 10 11 0.0586 0.0500
3 11 -4 -0.0161 -0.0817
3 11 -3 -0.0279 -0.0302
3 11 -2 0.0454 0.0348
3 11 -1 0.1714 -0.1205
3 11 0 -0.0778 -0.1798
3 11 1 0.0134 0.1067
3 11 2 0.2133 -0.0590
3 11 3 0.0721 -0.1081
3 11 4 0.0696 -0.0325
3 11 5 0.0751 0.0363
3 11 6 0.1923 0.0363
3 11 7 0.1467 -0.0828
3 11 8 0.0496 -0.0652
3 11 9 -0.0108 -0.0158
3 12 1 0.0434 -0.0951
3 12 2 0.0935 0.0026
3 12 3 0.1408 -0.0542
3 12 4 0.1022 -0.0933
3 12 5 0.0162 -0.0432
4 -9 -6 0.0025 -0.0696
4 -9 -5 -0.1142 -0.1019
4 -9 -4 -0.1926 0.1007
4 -9 -3 0.1170 0.1777
4 -9 -2 0.1162 -0.1693
4 -9 -1 -0.1253 -0.0426
4 -9 0 0.0855 0.0051
4 -9 1 -0.0107 -0.1681
4 -9 2 -0.0752 -0.0644
4 -9 3 -0.0682 -0.0403
4 -9 4 0.0207 0.0360
4 -9 5 0.0793 -0.1116
4 -8 -8 -0.0266 0.0564
4 -8 -7 0.1006 0.0107
4 -8 -5 -0.1288 0.0436
4 -8 -4 -0.0588 0.0646
4 -8 -3 -0.0133 0.2539
4 -8 -2 0.4271 0.0674
4 -8 -1 0.0863 -0.3982
4 -8 0 -0.1167 0.0181
4 -8 1 0.2607 -0.1337
4 -8 2 -0.0828 -0.3591
4 -8 3 -0.1360 -0.0587
4 -8 4 0.0002 -0.0560
4 -8 5 0.0813 -0.0753
4 -8 6 0.0367 -0.2203
4 -8 7 -0.0600 -0.0798
4 -8 8 0.0926 -0.1037
4 -7 -10 0.0037 0.0232
4 -7 -9 0.0054 0.0727
4 -7 -8 0.0568 0.0051
4 -7 -7 -0.0455 0.0113
4 -7 -6 0.0418 0.0245
4 -7 -5 -0.1627 -0.1077
4 -7 -4 -0.2624 0.3002
4 -7 -3 0.1734 0.3493
4 -7 -2 0.2582 0.1139
4 -7 -1 0.3192 -0.0702
4 -7 0 0.0647 -0.2553
4 -7 1 0.0449 0.0419
4 -7 2 0.3536 -0.2046
4 -7 3 -0.0228 -0.4124
4 -7 4 -0.0502 -0.0996
4 -7 5 0.0790 -0.1590
4 -7 6 0.0962 -0.1236
4 -7 7 0.1457 -0.2725
4 -7 8 -0.0519 -0.2161
4 -7 9 0.0848 -0.1038
4 -7 10 0.0604 -0.2591
4 -6 -11 -0.1211 0.1197
4 -6 -10 0.0903 0.1478
4 -6 -9 0.0245 -0.0396
4 -6 -8 -0.0681 0.0980
4 -6 -7 0.0766 0.0184
4 -6 -6 -0.1491 -0.0758
4 -6 -5 -0.1547 0.0895
4 -6 -4 -0.2877 0.0447
4 -6 -3 -0.2479 0.5460
4 -6 -2 0.4458 0.3446
4 -6 -1 0.1464 -0.2001
4 -6 0 -0.0416 0.1127
4 -6 1 0.2031 0.1054
4 -6 2 0.3107 0.0505
4 -6 3 0.4500 -0.2732
4 -6 4 0.0259 -0.4026
4 -6 5 0.0823 -0.0398
4 -6 6 0.2718 -0.2256
4 -6 7 0.1437 -0.2633
4 -6 8 0.1102 -0.3058
4 -6 9 -0.0322 -0.1756
4 -6 10 0.1688 -0.1246
4 -6 11 0.0322 -0.3528
4 -5 -10 -0.1490 0.2014
4 -5 -9 0.1746 0.1336
4 -5 -8 -0.0580 -0.1766
4 -5 -7 -0.2204 0.1127
4 -5 -6 0.0012 0.0139
4 -5 -5 -0.2915 -0.0739
4 -5 -4 -0.2544 0.1553
4 -5 -3 -0.3422 0.1277
4 -5 -2 -0.1594 0.5963
4 -5 -1 0.4756 0.1167
4 -5 0 -0.2637 -0.3116
4 -5 1 -0.3137 0.6130
4 -5 2 0.6070 0.4725
4 -5 3 0.5319 -0.1630
4 -5 4 0.2655 -0.2214
4 -5 5 0.1317 -0.0971
4 -5 6 0.3990 0.0214
4 -5 7 0.4154 -0.4666
4 -5 8 -0.1338 -0.3708
4 -5 9 0.0084 0.0259
4 -5 10 0.2067 -0.1151
4 -5 11 0.0694 -0.2457
4 -5 12 -0.0912 -0.1213
4 -5 13 0.0031 0.0190
4 -4 -11 -0.0272 0.1278
4 -4 -10 -0.1068 -0.0375
4 -4 -9 -0.0701 0.1795
4 -4 -8 0.1254 -0.1800
4 -4 -7 -0.4477 -0.2135
4 -4 -6 -0.2296 0.3078
4 -4 -5 0.0222 -0.1484
4 -4 -4 -0.5029 -0.0799
4 -4 -3 -0.2486 0.2406
4 -4 -2 -0.3527 0.0667
4 -4 -1 -0.1931 0.5645
4 -4 0 0.3250 -0.0560
4 -4 1 -0.7616 -0.1138
4 -4 2 -0.1999 1.2696
4 -4 3 1.0666 0.3555
4 -4 4 0.1839 -0.3659
4 -4 5 0.0626 0.2774
4 -4 6 0.5047 0.1637
4 -4 7 0.5804 -0.2707
4 -4 8 0.0002 -0.6317
4 -4 9 -0.3814 0.0684
4 -4 10 0.2733 0.1896
4 -4 11 0.1250 -0.2678
4 -4 12 -0.1196 -0.0343
4 -4 13 0.0640 0.0881
4 -4 14 0.1351 -0.0565
4 -3 -13 -0.0718 0.0421
4 -3 -12 0.0113 -0.1301
4 -3 -11 -0.2740 -0.0659
4 -3 -10 -0.0226 0.1220
4 -3 -9 -0.0137 -0.1675
4 -3 -8 -0.0788 -0.1101
4 -3 -7 -0.1497 -0.3992
4 -3 -6 -0.6742 -0.0509
4 -3 -5 -0.0149 0.4112
4 -3 -4 0.0935 -0.4845
4 -3 -3 -0.8365 -0.1765
4 -3 -2 -0.3332 0.4613
4 -3 -1 -0.2097 0.0949
4 -3 0 -0.2053 0.2949
4 -3 1 -0.2492 -0.1255
4 -3 2 -0.9437 0.6354
4 -3 4 0.7608 -0.2343
4 -3 5 -0.3881 0.0239
4 -3 6 0.2818 0.6886
4 -3 7 0.7528 -0.0540
4 -3 8 0.1839 -0.6264
4 -3 9 -0.4941 -0.1725
4 -3 10 0.0440 0.3971
4 -3 11 0.2958 -0.2330
4 -3 12 -0.2386 -0.1289
4 -3 13 0.0344 0.1672
4 -3 14 0.1115 -0.0441
4 -2 -13 -0.0612 -0.2067
4 -2 -12 -0.1113 0.0316
4 -2 -11 0.0909 -0.2298
4 -2 -10 -0.3126 -0.1542
4 -2 -9 0.1311 0.1089
4 -2 -8 0.1078 -0.4900
4 -2 -7 -0.3208 -0.2612
4 -2 -6 -0.1490 -0.2131
4 -2 -5 -0.4565 -0.0858
4 -2 -4 0.0862 0.2492
4 -2 -3 0.0383 -0.7250
4 -2 -2 -1.1726 -0.1684
4 -2 -1 -0.2903 0.8633
4 -2 0 0.2795 -0.1086
4 -2 1 -0.6676 -0.3560
4 -2 2 -0.9830 0.5756
4 -2 3 -0.0334 1.1852
4 -2 4 0.7240 0.2280
4 -2 5 -0.2253 -0.3321
4 -2 6 -0.3819 0.6520
4 -2 7 0.6809 0.5091
4 -2 8 0.4819 -0.5444
4 -2 9 -0.4013 -0.3666
4 -2 10 -0.1570 0.3092
4 -2 11 0.3560 -0.0418
4 -2 12 -0.0753 -0.3814
4 -2 13 -0.2384 0.0731
4 -2 14 0.1164 0.0989
4 -2 15 0.0447 -0.0758
4 -1 -13 0.1453 -0.0345
4 -1 -12 -0.0527 -0.3277
4 -1 -11 -0.0943 0.0331
4 -1 -10 0.1945 -0.2847
4 -1 -9 -0.2907 -0.1820
4 -1 -8 0.2682 0.1611
4 -1 -7 0.2184 -0.6183
4 -1 -6 -0.4721 -0.1830
4 -1 -5 0.1086 0.1369
4 -1 -4 -0.0199 -0.3487
4 -1 -3 -0.1756 -0.0645
4 -1 -2 -0.1602 -0.4426
4 -1 -1 -0.9509 0.0614
4 -1 0 0.1285 0.7760
4 -1 1 0.2809 -0.7880
4 -1 2 -1.5471 -0.2193
4 -1 3 -0.4632 1.5624
4 -1 4 0.9628 0.3384
4 -1 5 -0.1156 -0.5931
4 -1 7 0.1717 0.8396
4 -1 8 0.8174 -0.1320
4 -1 9 -0.2090 -0.6534
4 -1 10 -0.3016 0.2870
4 -1 11 0.3846 -0.0035
4 -1 12 0.0115 -0.3485
4 -1 13 -0.1506 -0.1278
4 -1 14 -0.1350 0.0827
4 -1 15 0.1465 0.1284
4 0 -13 -0.0550 -0.0483
4 0 -12 0.2082 -0.0542
4 0 -11 -0.0438 -0.3610
4 0 -10 -0.0715 0.1124
4 0 -9 0.2719 -0.2715
4 0 -8 -0.3712 -0.0790
4 0 -7 0.4070 0.4230
4 0 -6 0.3625 -0.6881
4 0 -5 -0.6862 -0.0103
4 0 -4 0.4487 0.5221
4 0 -3 0.2503 -0.7618
4 0 -2 -0.7019 -0.0445
4 0 -1 0.0461 0.2031
4 0 0 -0.2325 -0.0477
4 0 1 0.2787 0.0634
4 0 2 -0.4908 -0.9906
4 0 3 -1.5202 0.8437
4 0 4 0.8962 1.2892
4 0 5 0.5607 -0.9658
4 0 6 -1.0525 -0.1187
4 0 8 0.6774 0.2535
4 0 9 0.2401 -0.6078
4 0 10 -0.5056 -0.0853
4 0 11 0.2220 0.3234
4 0 12 0.2283 -0.3654
4 0 13 -0.1982 -0.1457
4 0 14 -0.0902 0.0466
4 0 15 0.0186 0.1869
4 0 16 0.2384 0.0045
4 1 -13 0.0705 -0.0798
4 1 -12 -0.0326 -0.0231
4 1 -11 0.2045 -0.0437
4 1 -10 -0.0796 -0.2543
4 1 -9 -0.0134 0.1801
4 1 -8 0.1409 -0.2133
4 1 -7 -0.3399 0.2152
4 1 -6 0.5685 0.3309
4 1 -5 0.0235 -0.7090
4 1 -4 -0.6919 0.4373
4 1 -3 0.7995 0.4275
4 1 -2 -0.0457 -0.9758
4 1 -1 -0.8252 0.4568
4 1 0 0.6359 0.4081
4 1 1 0.1714 -0.5052
4 1 2 -0.1019 -0.4397
4 1 3 -1.0331 -0.3253
4 1 4 -0.4159 1.4293
4 1 5 1.4021 -0.0618
4 1 6 -0.7447 -1.2383
4 1 7 -1.0114 0.9804
4 1 8 0.8210 0.5885
4 1 9 0.2529 -0.6590
4 1 10 -0.4542 -0.1516
4 1 11 -0.0204 0.2433
4 1 12 0.1978 -0.0785
4 1 13 -0.0042 -0.1599
4 1 14 -0.1123 -0.0472
4 1 15 -0.0593 0.2056
4 1 16 0.2499 0.1034
4 2 -13 -0.0294 0.0223
4 2 -12 0.0392 0.0109
4 2 -11 0.0066 0.0064
4 2 -10 0.1059 0.0250
4 2 -9 0.0082 -0.1098
4 2 -8 -0.0654 0.0643
4 2 -7 0.0084 0.0323
4 2 -6 0.0027 0.1180
4 2 -4 -0.3702 -0.1633
4 2 -3 -0.0835 0.5392
4 2 -2 0.6145 -0.2138
4 2 -1 -0.6217 -0.5735
4 2 0 -0.3298 0.9719
4 2 1 1.0782 0.0329
4 2 2 -0.0925 -0.8819
4 2 3 -0.6423 -0.1128
4 2 4 -0.5491 0.5381
4 2 5 0.6577 0.7222
4 2 6 0.5200 -1.1037
4 2 7 -1.4382 -0.2996
4 2 8 0.0256 1.2146
4 2 9 0.8251 -0.4978
4 2 10 -0.6324 -0.5559
4 2 11 -0.2100 0.4359
4 2 12 0.2822 -0.0283
4 2 13 -0.0035 -0.1050
4 2 14 0.0552 -0.0263
4 2 15 -0.0735 0.0073
4 2 16 0.1004 0.1951
4 3 -13 -0.0260 -0.0243
4 3 -12 -0.1260 0.0425
4 3 -11 0.0437 0.1513
4 3 -10 0.0345 0.0238
4 3 -9 0.1123 0.1165
4 3 -8 0.0953 -0.1761
4 3 -7 -0.1875 0.0539
4 3 -6 0.2069 0.0756
4 3 -5 -0.0221 -0.3638
4 3 -4 -0.4071 -0.0346
4 3 -3 -0.0414 0.3184
4 3 -2 0.3378 -0.0941
4 3 -1 -0.2265 -0.5232
4 3 0 -0.7629 0.3507
4 3 1 0.4799 0.9094
4 3 2 0.7629 -0.6418
4 3 3 -0.8371 -0.5056
4 3 4 -0.4436 0.7709
4 3 5 0.4944 0.4478
4 3 6 0.5534 -0.4920
4 3 7 -0.6083 -0.8457
4 3 8 -0.7863 0.5467
4 3 9 0.6324 0.2655
4 3 10 -0.0762 -0.7692
4 3 11 -0.5483 0.1755
4 3 12 0.2435 0.2782
4 3 13 0.1943 -0.0983
4 3 14 0.0793 -0.0747
4 3 15 -0.0260 -0.0062
4 3 16 0.0537 0.1163
4 4 -12 -0.0652 -0.0530
4 4 -11 -0.1754 0.1754
4 4 -10 0.1433 0.1962
4 4 -9 0.0502 0.0120
4 4 -8 0.1437 0.0669
4 4 -7 0.0189 -0.1902
4 4 -6 -0.0657 0.0751
4 4 -5 0.1988 -0.2061
4 4 -4 -0.3226 -0.3394
4 4 -3 -0.2977 0.2519
4 4 -2 0.3192 0.0940
4 4 -1 -0.0465 -0.5766
4 4 0 -0.7951 0.0165
4 4 1 -0.1300 0.7665
4 4 2 0.5624 0.0791
4 4 3 -0.2652 -0.6153
4 4 4 -0.8830 0.4351
4 4 5 0.3706 0.8219
4 4 6 0.6376 -0.4038
4 4 7 -0.2751 -0.7331
4 4 8 -0.6908 -0.0427
4 4 9 0.0314 0.4196
4 4 10 0.3376 -0.3381
4 4 11 -0.3899 -0.2564
4 4 12 -0.0494 0.3671
4 4 13 0.3056 0.0519
4 4 14 0.1284 -0.0768
4 4 15 -0.0028 -0.0606
4 4 16 -0.0448 0.1188
4 5 -11 -0.1637 0.0342
4 5 -10 -0.0141 0.2809
4 5 -9 0.1771 0.0090
4 5 -8 -0.0776 -0.0049
4 5 -7 0.0990 0.0629
4 5 -6 -0.0117 -0.1574
4 5 -5 -0.0460 -0.0170
4 5 -4 -0.0092 -0.2280
4 5 -3 -0.3420 -0.0963
4 5 -2 -0.0506 0.2322
4 5 -1 0.1793 -0.2417
4 5 0 -0.5223 -0.3115
4 5 1 -0.3841 0.4521
4 5 2 0.1771 0.1008
4 5 3 -0.1869 -0.2403
4 5 4 -0.5192 -0.0656
4 5 5 -0.3804 0.5265
4 5 6 0.5601 0.1899
4 5 7 0.0310 -0.7965
4 5 8 -0.6916 -0.1750
4 5 9 -0.1440 0.3424
4 5 10 0.2590 0.0136
4 5 11 0.0200 -0.2594
4 5 12 -0.2136 0.0587
4 5 13 0.1464 0.2773
4 5 14 0.2448 -0.0883
4 5 15 -0.0856 -0.0809
4 6 -11 -0.0875 0.0280
4 6 -10 -0.0877 0.1339
4 6 -9 0.1061 0.1012
4 6 -8 -0.0324 -0.1521
4 6 -7 -0.1971 0.0943
4 6 -6 0.1119 0.0324
4 6 -5 -0.1301 -0.1881
4 6 -4 -0.0886 0.0503
4 6 -2 -0.3925 0.0505
4 6 -1 0.1128 0.1948
4 6 0 -0.0587 -0.3567
4 6 1 -0.4731 0.0870
4 6 2 0.1228 0.1774
4 6 3 -0.1145 -0.3868
4 6 4 -0.3799 -0.0452
4 6 5 -0.2137 -0.1040
4 6 6 -0.2565 0.1179
4 6 7 0.2678 -0.1612
4 6 8 -0.4104 -0.5979
4 6 9 -0.5546 0.3570
4 6 10 0.3408 0.2981
4 6 11 0.1295 -0.2830
4 6 12 -0.1887 0.0151
4 6 13 0.0424 0.1900
4 6 14 0.1687 0.0448
4 6 15 0.0301 -0.1290
4 7 -10 -0.0483 0.0927
4 7 -9 0.0254 -0.0139
4 7 -8 -0.0555 -0.0605
4 7 -7 -0.1412 -0.0779
4 7 -6 -0.1462 0.0873
4 7 -5 0.0493 -0.0400
4 7 -4 -0.1514 -0.1042
4 7 -3 -0.0167 -0.0224
4 7 -2 -0.2118 -0.1897
4 7 -1 -0.1871 0.2176
4 7 0 0.1868 -0.0707
4 7 1 -0.2433 -0.2506
4 7 2 -0.2169 0.1824
4 7 3 0.2405 -0.0132
4 7 4 -0.0706 -0.4949
4 7 6 -0.0462 -0.0581
4 7 7 -0.1511 -0.2102
4 7 8 -0.1450 -0.1546
4 7 9 -0.3366 -0.0947
4 7 10 -0.1267 0.3380
4 7 11 0.2917 0.0124
4 7 12 -0.1372 -0.1935
4 7 13 -0.1181 0.2494
4 7 14 0.2074 0.0725
4 8 -8 -0.0330 -0.1398
4 8 -7 -0.1219 -0.0031
4 8 -6 -0.0482 -0.0439
4 8 -5 -0.0931 0.0213
4 8 -4 0.0491 -0.0089
4 8 -3 -0.0131 -0.1059
4 8 -2 -0.0766 -0.0794
4 8 -1 -0.0637 0.0522
4 8 0 0.1382 -0.0824
4 8 1 -0.1714 -0.2451
4 8 2 -0.2124 0.0841
4 8 3 0.0016 0.1097
4 8 4 0.2385 -0.0785
4 8 5 -0.1303 -0.5169
4 8 6 -0.4487 0.1128
4 8 7 0.2336 0.0522
4 8 8 -0.1607 -0.3739
4 8 9 -0.2815 0.0970
4 8 10 0.0304 0.0801
4 8 11 -0.0196 -0.0553
4 8 12 -0.1014 0.0039
4 8 13 -0.0636 0.0946
4 9 -7 -0.0361 -0.0809
4 9 -6 -0.0350 0.0097
4 9 -5 0.0015 -0.0179
4 9 -4 0.0172 0.0264
4 9 -3 0.0712 -0.0368
4 9 -2 -0.0048 -0.0222
4 9 -1 0.0721 0.0409
4 9 0 0.1617 -0.0887
4 9 1 -0.0431 -0.2984
4 9 2 -0.3521 -0.0202
4 9 3 -0.0294 0.2338
4 9 4 0.1039 -0.0582
4 9 5 -0.0729 -0.1623
4 9 6 -0.2527 -0.0505
4 9 7 -0.0702 0.2066
4 9 8 0.1509 -0.0588
4 9 9 -0.0900 -0.1463
4 9 10 -0.0835 0.0072
4 9 11 0.0168 -0.0280
4 9 12 -0.0878 -0.1220
4 10 -5 -0.0078 0.0108
4 10 -4 0.0422 0.0284
4 10 -3 0.0588 -0.0146
4 10 -2 -0.0436 -0.0092
4 10 0 0.2458 -0.0443
4 10 1 -0.0500 -0.2133
4 10 2 -0.1622 -0.0336
4 10 3 -0.1800 0.0627
4 10 4 0.0087 0.1603
4 10 5 0.0242 -0.1570
4 10 6 -0.3154 -0.0013
4 10 7 -0.0205 0.2581
4 10 8 0.1266 -0.0272
4 10 9 -0.0203 -0.0422
4 10 10 0.0707 -0.0469
4 11 -2 -0.0435 -0.0030
4 11 -1 -0.0963 0.0730
4 11 0 0.0586 0.1825
4 11 1 0.1247 -0.0948
4 11 2 -0.1838 -0.0634
4 11 3 -0.0862 0.1205
4 11 4 -0.0415 0.0495
4 11 5 -0.0090 0.0283
4 11 6 -0.0957 -0.0574
4 11 7 -0.1306 0.1124
4 11 8 0.0738 0.1080
5 -8 -4 0.0456 -0.1335
5 -8 -3 -0.0307 -0.0924
5 -8 -2 -0.1260 -0.0971
5 -8 -1 -0.1444 0.1405
5 -8 0 0.1021 0.0658
5 -8 1 -0.1100 -0.0415
5 -8 2 -0.0775 0.2132
5 -8 3 0.0790 0.1539
5 -8 4 0.0848 0.1168
5 -8 5 0.0888 0.0460
5 -7 -7 -0.0502 0.0162
5 -7 -6 -0.0204 0.0430
5 -7 -5 0.0986 0.0332
5 -7 -4 0.1211 -0.2004
5 -7 -3 -0.1847 -0.2306
5 -7 -2 -0.1816 0.0380
5 -7 -1 -0.0958 -0.0097
5 -7 0 -0.1534 0.1083
5 -7 1 -0.0181 0.0841
5 -7 2 -0.1893 0.1242
5 -7 3 0.0222 0.3660
5 -7 4 0.2013 0.1340
5 -7 5 0.0925 0.0420
5 -7 6 0.0265 -0.0011
5 -7 7 -0.0718 0.0779
5 -7 8 0.0183 0.1317
5 -6 -8 0.0523 -0.0479
5 -6 -7 -0.0775 -0.0714
5 -6 -6 0.0147 0.0362
5 -6 -5 0.0990 -0.1023
5 -6 -4 0.0436 -0.1631
5 -6 -3 -0.0051 -0.2866
5 -6 -2 -0.3167 -0.1952
5 -6 -1 -0.1255 0.1526
5 -6 0 0.0096 -0.1571
5 -6 1 -0.3443 -0.0201
5 -6 2 -0.1685 0.2020
5 -6 3 -0.1715 0.2511
5 -6 4 0.1483 0.3510
5 -6 5 0.1659 -0.0747
5 -6 6 -0.1554 0.0096
5 -6 7 -0.0752 0.1480
5 -6 8 -0.0470 0.1606
5 -6 9 0.0504 0.1609
5 -6 10 0.0614 0.0665
5 -5 -9 -0.0526 -0.0944
5 -5 -8 -0.0154 0.0724
5 -5 -7 0.1554 -0.0974
5 -5 -6 -0.0231 -0.1472
5 -5 -5 0.0948 -0.0552
5 -5 -4 0.0932 -0.2525
5 -5 -3 -0.0471 -0.1918
5 -5 -2 0.0189 -0.2238
5 -5 -1 -0.2136 -0.2352
5 -5 0 -0.0877 0.0416
5 -5 1 0.0025 -0.3079
5 -5 2 -0.5152 -0.1709
5 -5 3 -0.3335 0.3003
5 -5 4 -0.0326 0.2726
5 -5 5 0.1376 0.0367
5 -5 6 -0.1958 -0.2058
5 -5 7 -0.3547 0.2457
5 -5 8 0.0814 0.2810
5 -5 9 0.0384 0.0058
5 -5 10 -0.0570 0.0974
5 -5 11 0.0706 0.1011
5 -4 -10 -0.0552 -0.0316
5 -4 -9 0.0828 -0.0243
5 -4 -8 -0.0278 -0.0563
5 -4 -7 0.1988 0.1061
5 -4 -6 0.2818 -0.3236
5 -4 -5 -0.1395 -0.2162
5 -4 -4 0.1452 0.0239
5 -4 -3 0.1678 -0.3231
5 -4 -2 -0.0915 -0.1850
5 -4 -1 0.1483 -0.1679
5 -4 0 -0.1213 -0.4222
5 -4 1 -0.1635 -0.0403
5 -4 2 0.0546 -0.4488
5 -4 3 -0.7383 -0.3388
5 -4 4 -0.3439 0.4739
5 -4 5 0.1947 -0.0081
5 -4 6 -0.2185 -0.2924
5 -4 7 -0.4732 0.0739
5 -4 8 -0.0654 0.4275
5 -4 9 0.2616 -0.0257
5 -4 10 -0.1653 -0.1354
5 -4 11 -0.0450 0.1799
5 -4 12 0.1183 -0.0378
5 -3 -11 0.1400 0.0614
5 -3 -10 0.1096 -0.1732
5 -3 -9 -0.0776 0.0228
5 -3 -8 0.1919 0.0826
5 -3 -7 0.1427 -0.0241
5 -3 -6 0.3678 0.0017
5 -3 -5 0.1950 -0.4909
5 -3 -4 -0.2983 -0.0389
5 -3 -3 0.3688 0.1935
5 -3 -2 0.2803 -0.5191
5 -3 -1 -0.2434 -0.2165
5 -3 0 0.1612 -0.0674
5 -3 2 -0.0898 -0.2134
5 -3 3 -0.1589 -0.5956
5 -3 4 -0.8064 -0.0790
5 -3 5 0.0312 0.4236
5 -3 6 0.1122 -0.4228
5 -3 7 -0.5600 -0.1418
5 -3 8 -0.1976 0.4156
5 -3 9 0.3268 0.1242
5 -3 10 -0.0019 -0.3226
5 -3 11 -0.2533 0.1357
5 -3 12 0.2203 0.1104
5 -3 13 -0.0092 -0.2060
5 -2 -11 -0.0093 -0.0517
5 -2 -10 0.1744 0.1243
5 -2 -9 0.1190 -0.1890
5 -2 -8 -0.1361 0.1667
5 -2 -7 0.3617 0.2232
5 -2 -6 0.2336 -0.1518
5 -2 -5 0.1831 -0.0264
5 -2 -4 0.0970 -0.2781
5 -2 -3 -0.1739 0.1055
5 -2 -2 0.4508 0.0953
5 -2 -1 0.1191 -0.5945
5 -2 0 -0.4116 -0.0953
5 -2 2 0.2690 -0.4134
5 -2 3 -0.2540 -0.5692
5 -2 4 -0.5734 -0.1801
5 -2 6 0.2875 -0.0529
5 -2 7 -0.2992 -0.4376
5 -2 8 -0.4370 0.3366
5 -2 9 0.3055 0.2913
5 -2 10 0.1321 -0.2561
5 -2 11 -0.2445 0.0108
5 -2 12 0.0857 0.2695
5 -2 13 0.2280 -0.0940
5 -2 14 -0.0771 -0.1162
5 -1 -12 0.0600 0.2102
5 -1 -11 0.3047 -0.0444
5 -1 -10 -0.0809 -0.1034
5 -1 -9 0.1119 0.1967
5 -1 -8 0.0886 -0.1577
5 -1 -7 -0.2303 0.2273
5 -1 -6 0.3714 0.3030
5 -1 -5 0.1559 -0.2793
5 -1 -4 -0.1535 0.0898
5 -1 -3 0.1759 0.0392
5 -1 -2 -0.0414 -0.1030
5 -1 -1 0.0548 -0.0102
5 -1 0 -0.1078 -0.2673
5 -1 1 -0.3600 0.1384
5 -1 2 0.2985 0.2604
5 -1 3 0.2507 -0.6446
5 -1 4 -0.7660 -0.4044
5 -1 5 -0.3712 0.5318
5 -1 6 0.3612 0.1190
5 -1 7 -0.0213 -0.4413
5 -1 8 -0.5637 0.0198
5 -1 9 0.0534 0.5569
5 -1 10 0.3577 -0.1671
5 -1 11 -0.3199 -0.0835
5 -1 12 0.0330 0.3645
5 -1 13 0.2231 0.0013
5 -1 14 0.0473 -0.0704
5 0 -12 0.1087 0.0459
5 0 -11 0.0793 0.1164
5 0 -10 0.2443 -0.0727
5 0 -9 -0.1718 -0.1372
5 0 -8 0.0185 0.2315
5 0 -7 0.0411 -0.1967
5 0 -6 -0.3810 0.2126
5 0 -2 0.2581 0.1228
5 0 -1 -0.2241 -0.3350
5 0 0 -0.3398 0.1829
5 0 1 -0.1274 0.0677
5 0 2 -0.1594 0.2871
5 0 3 0.4187 -0.0412
5 0 4 -0.3477 -0.7166
5 0 5 -0.8130 0.4101
5 0 6 0.4307 0.5332
5 0 7 0.2538 -0.5176
5 0 8 -0.5238 -0.1895
5 0 9 -0.2249 0.4523
5 0 10 0.3613 0.1834
5 0 11 -0.0287 -0.2932
5 0 12 -0.2705 0.2320
5 0 13 0.2306 0.1858
5 0 14 0.0565 -0.1265
5 0 15 -0.0259 -0.0365
5 1 -12 0.0755 0.1935
5 1 -11 0.1614 -0.0809
5 1 -10 -0.0566 0.0380
5 1 -9 0.1615 -0.0571
5 1 -8 -0.2142 -0.1402
5 1 -7 -0.0097 0.1885
5 1 -6 -0.0155 -0.1948
5 1 -5 -0.2863 0.1927
5 1 -4 0.3226 0.1122
5 1 -3 -0.1689 -0.4678
5 1 -2 -0.4450 0.2729
5 1 -1 0.2415 0.0276
5 1 0 -0.4437 -0.3437
5 1 1 -0.4200 0.3712
5 1 2 -0.0424 0.1829
5 1 3 0.0493 0.1947
5 1 4 0.1686 -0.4141
5 1 5 -0.8408 -0.1818
5 1 6 -0.0318 0.9508
5 1 7 0.8685 -0.2534
5 1 8 -0.4371 -0.6642
5 1 9 -0.4153 0.4979
5 1 10 0.4245 0.2486
5 1 11 0.1060 -0.2678
5 1 12 -0.1808 0.0007
5 1 13 0.0074 0.1238
5 1 14 0.0658 -0.0093
5 1 15 -0.0042 -0.0834
5 2 -11 0.0759 0.0537
5 2 -10 0.0241 -0.1264
5 2 -9 -0.1184 0.0506
5 2 -8 0.1066 -0.0065
5 2 -7 -0.1324 -0.0965
5 2 -6 -0.0027 0.1637
5 2 -5 0.1212 -0.0718
5 2 -4 -0.0499 -0.0276
5 2 -3 0.0832 -0.0683
5 2 -2 -0.2367 -0.2010
5 2 -1 -0.1854 0.2751
5 2 0 0.2137 -0.2007
5 2 1 -0.6231 -0.3004
5 2 2 -0.3202 0.5209
5 2 3 0.1858 0.0439
5 2 4 -0.0771 -0.1465
5 2 5 -0.3062 -0.1887
5 2 6 -0.4723 0.5264
5 2 7 0.7508 0.5786
5 2 8 0.4337 -0.7806
5 2 9 -0.7171 -0.0286
5 2 10 0.2644 0.6958
5 2 11 0.5140 -0.2753
5 2 12 -0.2366 -0.2134
5 2 13 -0.0349 0.1746
5 2 14 0.0650 -0.0424
5 2 15 -0.0353 -0.0262
5 3 -11 0.0255 -0.0888
5 3 -10 -0.0895 -0.0108
5 3 -9 -0.0174 -0.0232
5 3 -8 -0.1045 0.0731
5 3 -7 0.1316 0.0862
5 3 -6 -0.0304 -0.0515
5 3 -5 0.0765 0.2180
5 3 -4 0.2756 -0.0857
5 3 -3 -0.0796 -0.1709
5 3 -2 -0.1215 0.0591
5 3 -1 -0.0434 0.1109
5 3 0 0.1690 0.0296
5 3 1 -0.0492 -0.4734
5 3 2 -0.6735 -0.0076
5 3 3 0.0730 0.4319
5 3 4 0.1401 -0.3694
5 3 5 -0.4996 -0.1076
5 3 8 0.7230 -0.0944
5 3 9 -0.2044 -0.4871
5 3 10 -0.3085 0.5393
5 3 11 0.5784 0.2720
5 3 12 0.1065 -0.3649
5 3 13 -0.2329 0.0449
5 3 14 0.0528 0.1401
5 3 15 0.0649 -0.0606
5 4 -10 -0.1248 -0.1334
5 4 -9 -0.0930 0.1391
5 4 -8 0.0747 -0.0211
5 4 -7 -0.0909 0.0873
5 4 -6 0.1586 0.1184
5 4 -5 0.0227 0.0015
5 4 -4 0.1247 0.1423
5 4 -3 0.1326 -0.1048
5 4 -2 -0.1409 -0.0772
5 4 -1 -0.1626 0.1754
5 4 0 0.1978 0.1961
5 4 1 0.2149 -0.3431
5 4 2 -0.3806 -0.3317
5 4 3 -0.2405 0.2487
5 4 4 0.2790 -0.0679
5 4 5 -0.2633 -0.4118
5 4 6 -0.4835 0.3125
5 4 7 0.1523 0.5784
5 4 8 0.5310 0.1727
5 4 9 0.1959 -0.3627
5 4 10 -0.4435 0.0561
5 4 11 0.1219 0.5681
5 4 12 0.3758 -0.0985
5 4 13 -0.1654 -0.1332
5 4 14 -0.0492 0.1498
5 4 15 0.0866 0.0171
5 5 -10 -0.0274 -0.1296
5 5 -9 -0.1800 0.0604
5 5 -8 0.1471 0.1598
5 5 -7 0.0683 -0.1602
5 5 -6 -0.1134 0.1019
5 5 -5 0.1456 0.0887
5 5 -4 0.0057 -0.0282
5 5 -3 0.0345 0.0530
5 5 -2 0.0032 -0.0968
5 5 -1 -0.2137 -0.0432
5 5 0 -0.1118 0.2349
5 5 1 0.2695 0.0259
5 5 2 -0.0071 -0.3443
5 5 3 -0.2294 -0.0174
5 5 4 0.1215 0.0962
5 5 5 0.1258 -0.2630
5 5 6 -0.3524 -0.1072
5 5 7 -0.1256 0.5031
5 5 8 0.4703 0.2860
5 5 9 0.2828 -0.2828
5 5 10 -0.3114 -0.1807
5 5 11 -0.2495 0.3897
5 5 12 0.2723 0.2643
5 5 13 0.1000 -0.1652
5 5 14 -0.1287 0.0340
5 6 -9 -0.0565 -0.0173
5 6 -8 0.0247 0.1305
5 6 -7 0.2203 -0.0456
5 6 -6 -0.0692 -0.1873
5 6 -5 -0.0906 0.1241
5 6 -4 0.0923 -0.0014
5 6 -3 -0.0673 -0.0088
5 6 -2 0.0786 -0.0176
5 6 -1 -0.1472 -0.2387
5 6 0 -0.3019 0.1355
5 6 1 0.1461 0.1798
5 6 2 0.1000 -0.1930
5 6 3 -0.0971 -0.0282
5 6 4 0.1046 0.0400
5 6 5 0.0934 -0.0709
5 6 6 0.0010 -0.0695
5 6 7 -0.1424 0.1244
5 6 8 0.1805 0.3821
5 6 9 0.4533 -0.1030
5 6 10 -0.1554 -0.3841
5 6 11 -0.3822 0.2214
5 6 12 0.1374 0.3131
5 6 13 0.1460 -0.0397
5 6 14 0.0011 -0.0327
5 7 -8 0.0835 0.0573
5 7 -7 0.1015 -0.0348
5 7 -6 0.0577 -0.1068
5 7 -5 -0.1225 -0.0801
5 7 -4 -0.0594 0.1116
5 7 -3 0.0240 0.0028
5 7 -2 0.0019 0.0254
5 7 -1 0.0473 -0.1526
5 7 0 -0.2637 -0.0913
5 7 1 -0.0336 0.2520
5 7 2 0.2700 -0.0568
5 7 3 -0.0699 -0.2275
5 7 4 -0.0724 0.1699
5 7 5 0.2819 -0.0055
5 7 6 -0.0866 -0.1921
5 7 7 -0.1229 0.2417
5 7 8 0.1987 0.2058
5 7 9 0.2093 0.0159
5 7 10 0.1022 -0.1617
5 7 11 -0.2211 -0.0837
5 7 12 -0.0785 0.2725
5 7 13 0.2043 0.0510
5 8 -6 -0.0017 -0.0615
5 8 -5 -0.0298 -0.0361
5 8 -4 -0.1424 0.0105
5 8 -3 -0.0358 0.1537
5 8 -2 0.0469 0.0265
5 8 -1 -0.0081 -0.0105
5 8 0 -0.0564 0.0074
5 8 1 0.0316 0.1172
5 8 2 0.1705 0.0013
5 8 3 0.1394 -0.1175
5 8 4 -0.0449 -0.1649
5 8 5 -0.0319 0.1411
5 8 6 0.2279 -0.1166
5 8 7 -0.2952 -0.1283
5 8 8 -0.0359 0.4225
5 8 9 0.3186 0.0327
5 8 10 -0.0090 -0.1191
5 8 11 -0.0471 0.0582
5 8 12 0.0256 0.0560
5 9 -5 -0.0240 0.0014
5 9 -4 -0.0776 -0.0119
5 9 -3 -0.1386 0.1172
5 9 -2 0.0501 0.1310
5 9 -1 -0.0270 -0.0163
5 9 0 -0.0566 0.1276
5 9 1 0.0991 0.1314
5 9 2 0.1962 0.0202
5 9 3 0.1225 -0.1292
5 9 4 0.0290 -0.0750
5 9 5 0.0289 -0.0648
5 9 6 0.0261 -0.0420
5 9 7 -0.0573 -0.1164
5 9 8 -0.1893 0.1209
5 9 9 0.0996 0.1986
5 9 10 0.0944 -0.0124
5 9 11 -0.0077 0.0055
5 10 -2 -0.0397 0.1264
5 10 -1 0.0569 0.0164
5 10 0 -0.1085 0.0258
5 10 1 0.0655 0.1824
5 10 2 0.1400 -0.0266
5 10 3 0.0766 -0.0083
5 10 4 0.0899 -0.1205
5 10 5 -0.0745 -0.0323
5 10 6 0.0979 0.0272
5 10 7 -0.0116 -0.1632
5 10 8 -0.1796 0.0477
5 10 9 0.0311 0.1573
6 -7 -1 0.0071 0.0168
6 -7 0 0.0934 -0.0081
6 -7 1 -0.0209 -0.0564
6 -7 2 0.0496 0.0412
6 -7 3 0.0470 -0.1239
6 -6 -5 -0.0311 0.0880
6 -6 -4 0.0434 0.1055
6 -6 -3 0.0641 0.0896
6 -6 -2 0.1295 0.0802
6 -6 -1 0.0971 -0.0554
6 -6 0 -0.0145 0.0659
6 -6 1 0.1890 0.0407
6 -6 2 0.0468 -0.1147
6 -6 3 0.0500 -0.0255
6 -6 4 -0.0697 -0.1239
6 -6 5 -0.1093 0.1790
6 -6 6 0.2049 0.1047
6 -5 -6 -0.0307 0.0768
6 -5 -5 -0.0438 0.0813
6 -5 -4 0.0155 0.1637
6 -5 -3 0.0867 0.0918
6 -5 -2 0.0164 0.0902
6 -5 -1 0.1129 0.1814
6 -5 0 0.1860 0.0119
6 -5 1 0.0451 0.0788
6 -5 2 0.2877 0.0787
6 -5 3 0.1381 -0.2069
6 -5 4 -0.0720 -0.0506
6 -5 5 -0.0749 0.1354
6 -5 6 0.2176 0.2913
6 -5 7 0.3809 -0.1311
6 -5 8 -0.0272 -0.2175
6 -5 9 -0.0584 0.0137
6 -4 -8 -0.0231 0.0490
6 -4 -7 -0.0213 -0.0532
6 -4 -6 -0.1897 0.0924
6 -4 -5 0.0441 0.2143
6 -4 -4 0.0398 0.0073
6 -4 -3 -0.1042 0.1219
6 -4 -2 0.0616 0.2383
6 -4 -1 0.1124 0.0954
6 -4 0 0.0706 0.2239
6 -4 1 0.3368 0.1250
6 -4 2 0.1452 -0.0287
6 -4 3 0.2771 0.0904
6 -4 4 0.1487 -0.2460
6 -4 5 -0.2043 0.1113
6 -4 6 0.2041 0.3937
6 -4 7 0.4820 0.0378
6 -4 8 0.1714 -0.3067
6 -4 9 -0.1488 -0.0395
6 -4 10 0.0516 0.1084
6 -3 -8 -0.0271 -0.0509
6 -3 -7 -0.1002 0.0297
6 -3 -6 -0.1055 0.0015
6 -3 -5 -0.1875 0.2023
6 -3 -4 0.1664 0.2008
6 -3 -3 -0.0209 -0.1504
6 -3 -2 -0.2775 0.2451
6 -3 -1 0.2535 0.4158
6 -3 0 0.2680 -0.0883
6 -3 1 -0.0393 0.1879
6 -3 2 0.4463 0.1965
6 -3 3 0.2029 -0.1889
6 -3 4 0.1279 0.0361
6 -3 5 0.0286 -0.1226
6 -3 6 -0.1116 0.3216
6 -3 8 0.2935 -0.2429
6 -3 9 -0.1078 -0.1332
6 -3 10 -0.0460 0.1533
6 -3 11 0.1318 0.0410
6 -2 -9 -0.1275 -0.0038
6 -2 -8 0.0376 0.0695
6 -2 -7 -0.0545 -0.1729
6 -2 -6 -0.2596 0.0331
6 -2 -5 -0.0900 0.1235
6 -2 -4 -0.0616 0.1296
6 -2 -3 0.0877 0.0541
6 -2 -2 -0.1242 -0.0447
6 -2 -1 -0.0698 0.3400
6 -2 0 0.4136 0.2004
6 -2 1 0.2044 -0.2310
6 -2 2 -0.0536 0.1309
6 -2 3 0.4336 0.1348
6 -2 4 0.1958 -0.3140
6 -2 5 -0.0862 -0.0481
6 -2 6 -0.0389 0.0896
6 -2 7 0.1305 0.2661
6 -2 8 0.3593 -0.0809
6 -2 9 -0.0754 -0.2263
6 -2 10 -0.0980 0.1000
6 -2 11 0.0679 0.0466
6 -2 12 0.0062 -0.0274
6 -1 -9 0.0721 -0.1010
6 -1 -8 -0.1407 -0.0621
6 -1 -7 0.0453 0.0232
6 -1 -6 -0.0793 -0.2867
6 -1 -5 -0.3798 0.0561
6 -1 -4 0.0644 0.2245
6 -1 -3 0.0626 -0.1171
6 -1 -2 -0.1048 0.0243
6 -1 -1 0.0764 0.1476
6 -1 0 0.2443 0.0382
6 -1 1 0.2205 -0.1120
6 -1 2 0.1095 -0.1271
6 -1 3 0.0853 0.0307
6 -1 5 0.1336 -0.3576
6 -1 6 -0.1885 -0.0514
6 -1 7 0.0626 0.1761
6 -1 8 0.2659 0.0004
6 -1 9 0.0900 -0.2924
6 -1 10 -0.2252 -0.0547
6 -1 11 0.0629 0.1107
6 -1 12 0.0235 -0.1246
6 -1 13 -0.0734 0.0135
6 0 -9 0.0112 0.0558
6 0 -8 0.1186 -0.1317
6 0 -7 -0.1375 -0.1523
6 0 -6 0.0233 -0.0138
6 0 -5 -0.1212 -0.2849
6 0 -4 -0.3041 0.1910
6 0 -3 0.3223 0.1312
6 0 -2 0.0022 -0.3037
6 0 -1 -0.0560 0.1707
6 0 0 0.3762 -0.0171
6 0 1 0.1543 -0.2543
6 0 2 0.0731 -0.0951
6 0 3 0.1259 -0.0477
6 0 4 0.2020 0.0123
6 0 5 0.3300 -0.1724
6 0 6 -0.0292 -0.3257
6 0 7 -0.1322 0.1237
6 0 8 0.2805 0.0956
6 0 9 0.1817 -0.2512
6 0 10 -0.1238 -0.2027
6 0 11 -0.1187 0.0890
6 0 12 0.1439 0.0381
6 0 13 0.0143 -0.1240
6 1 -9 0.0222 -0.1451
6 1 -8 -0.0202 0.0373
6 1 -7 0.1167 -0.1803
6 1 -6 -0.1993 -0.1497
6 1 -5 -0.0369 0.0480
6 1 -4 -0.0812 -0.0810
6 1 -3 -0.0147 0.1951
6 1 -2 0.3183 -0.0947
6 1 -1 -0.1016 -0.1859
6 1 0 0.1954 0.2126
6 1 1 0.3648 -0.2988
6 1 2 -0.0781 -0.1437
6 1 3 0.2047 0.0405
6 1 4 0.1022 -0.0913
6 1 5 0.2459 0.1015
6 1 6 0.2834 -0.3271
6 1 7 -0.3097 -0.1390
6 1 8 0.0837 0.3887
6 1 9 0.4120 -0.1657
6 1 10 -0.1640 -0.3035
6 1 11 -0.1750 0.1491
6 1 12 0.1076 0.1313
6 1 13 0.1254 -0.0113
6 2 -9 0.1138 -0.0244
6 2 -8 -0.0465 -0.1674
6 2 -7 -0.0473 0.0005
6 2 -6 -0.0240 -0.1699
6 2 -5 -0.2681 -0.0198
6 2 -4 -0.0223 0.1873
6 2 -3 0.0955 -0.0324
6 2 -2 0.0050 -0.0071
6 2 -1 0.1311 -0.0645
6 2 0 -0.0632 -0.0569
6 2 1 0.2405 0.1888
6 2 2 0.2799 -0.3033
6 2 3 -0.1487 0.0092
6 2 4 0.2987 0.1281
6 2 5 0.0955 -0.1387
6 2 6 0.1694 0.0493
6 2 7 0.0178 -0.3281
6 2 8 -0.3944 0.1860
6 2 9 0.3477 0.3362
6 2 10 0.1668 -0.4550
6 2 11 -0.4927 -0.0373
6 2 13 0.2286 -0.0001
6 2 14 -0.0018 -0.0337
6 3 -9 -0.0193 -0.0955
6 3 -8 0.0096 -0.0408
6 3 -7 -0.0743 -0.1633
6 3 -6 -0.1589 -0.0137
6 3 -5 -0.0930 -0.0663
6 3 -4 -0.2081 0.0486
6 3 -3 0.0870 0.1259
6 3 -2 0.0851 -0.2070
6 3 -1 -0.1411 -0.0762
6 3 0 0.0342 0.0034
6 3 1 -0.0717 0.0167
6 3 2 0.2233 0.2319
6 3 3 0.2622 -0.2397
6 3 4 -0.1720 0.0437
6 3 5 0.2815 0.1870
6 3 6 0.1348 -0.2227
6 3 7 -0.0800 -0.1021
6 3 8 -0.2104 -0.0560
6 3 9 -0.0789 0.2946
6 3 10 0.3439 -0.1114
6 3 11 -0.2868 -0.4219
6 3 12 -0.3998 0.2793
6 3 13 0.1957 0.2538
6 3 14 0.0861 -0.1205
6 4 -8 -0.1575 -0.0699
6 4 -7 0.0316 0.0256
6 4 -6 -0.0966 -0.2028
6 4 -5 -0.1695 0.0374
6 4 -4 0.0148 -0.0524
6 4 -3 -0.0456 -0.0604
6 4 -2 0.0952 -0.0922
6 4 -1 0.0417 -0.2395
6 4 0 -0.1165 -0.2090
6 4 1 -0.1808 0.0384
6 4 2 0.0640 0.2128
6 4 3 0.2542 0.0364
6 4 4 0.0572 -0.1436
6 4 5 -0.0822 0.1151
6 4 6 0.2333 0.0845
6 4 7 0.0390 -0.2729
6 4 8 -0.2718 -0.0543
6 4 9 -0.0768 0.2098
6 4 10 0.2692 0.0171
6 4 11 0.0273 -0.4389
6 4 12 -0.4431 -0.0902
6 4 13 -0.0574 0.2794
6 5 -8 -0.0892 -0.1413
6 5 -7 -0.1334 0.0832
6 5 -6 0.1422 -0.0214
6 5 -5 -0.0674 -0.2060
6 5 -4 -0.0360 0.0134
6 5 -3 0.1265 -0.1043
6 5 -2 0.1075 -0.1463
6 5 -1 0.1523 -0.1985
6 5 0 0.1083 -0.3024
6 5 1 -0.1949 -0.2948
6 5 2 -0.2219 0.2382
6 5 3 0.3248 0.1714
6 5 4 0.0735 -0.2239
6 5 5 -0.1226 0.0785
6 5 6 0.1199 0.0790
6 5 7 0.0532 -0.1354
6 5 8 -0.1601 -0.1156
6 5 9 -0.1634 0.1490
6 5 10 0.2155 0.1571
6 5 11 0.2330 -0.3004
6 5 12 -0.2422 -0.3024
6 5 13 -0.2303 0.1329
6 6 -7 -0.0636 -0.0066
6 6 -6 0.0573 0.0553
6 6 -5 0.1592 -0.1251
6 6 -4 -0.0048 -0.1683
6 6 -3 0.0641 -0.0245
6 6 -2 0.1715 -0.0630
6 6 -1 0.2752 -0.0954
6 6 0 0.2545 -0.3266
6 6 1 -0.0696 -0.3094
6 6 2 -0.1678 0.0057
6 6 3 0.0675 0.2032
6 6 4 0.2469 -0.0530
6 6 5 -0.0726 -0.1528
6 6 6 -0.0107 0.1058
6 6 7 0.1102 -0.1503
6 6 8 -0.2116 -0.1489
6 6 9 -0.1631 0.1237
6 6 10 0.0625 0.1667
6 6 11 0.2440 -0.0616
6 6 12 -0.0340 -0.2837
6 7 -5 0.1159 -0.0899
6 7 -4 0.0869 -0.1534
6 7 -3 -0.0028 -0.0891
6 7 -2 0.1036 0.0331
6 7 -1 0.2195 -0.0030
6 7 0 0.2991 -0.1184
6 7 1 0.0939 -0.3104
6 7 2 -0.1809 -0.0368
6 7 3 0.0655 0.2028
6 7 4 0.2076 -0.0071
6 7 5 0.0467 -0.0925
6 7 6 0.0480 -0.0071
6 7 7 0.1137 -0.1556
6 7 8 -0.1477 -0.2428
6 7 9 -0.2284 0.0494
6 7 10 -0.0028 0.1155
6 7 11 0.0733 0.0219
6 8 -4 0.0710 -0.1162
6 8 -3 0.0097 -0.1351
6 8 -2 -0.0421 0.0166
6 8 -1 0.1478 0.0777
6 8 0 0.1770 -0.0756
6 8 1 0.0578 -0.1000
6 8 2 -0.0148 -0.0347
6 8 3 -0.0403 0.0701
6 8 4 0.1022 0.1616
6 8 5 0.2032 -0.0466
6 8 6 0.0138 -0.0680
6 8 7 0.1575 -0.0267
6 8 8 0.0283 -0.2907
6 8 9 -0.2203 -0.0787
6 8 10 -0.0462 0.0757
6 9 -1 -0.0315 0.0750
6 9 0 0.1321 0.0099
6 9 1 0.0190 -0.0889
6 9 2 -0.0372 0.0252
6 9 3 0.0386 0.0498
6 9 4 0.0188 0.0210
6 9 5 0.0655 0.0791
6 9 6 0.1218 -0.0386
6 9 7 0.0341 -0.0336
6 9 8 0.1063 -0.0790
7 -5 0 -0.0720 0.0202
7 -5 1 0.0269 0.0756
7 -5 2 0.0177 -0.0383
7 -5 3 -0.0211 0.0049
7 -4 -3 0.0273 -0.0165
7 -4 -2 -0.0531 -0.0461
7 -4 -1 -0.0847 0.0295
7 -4 0 -0.0174 0.0186
7 -4 1 -0.1209 0.0063
7 -4 2 -0.0065 0.1324
7 -4 3 0.0207 -0.0729
7 -4 4 -0.1121 0.0367
7 -4 5 0.0656 0.0056
7 -4 6 -0.0554 -0.1487
7 -3 -5 0.0264 -0.0581
7 -3 -4 -0.0676 -0.0563
7 -3 -3 -0.0456 0.0486
7 -3 -2 0.0398 -0.0090
7 -3 -1 -0.0699 -0.1253
7 -3 0 -0.2389 0.0637
7 -3 1 0.0362 0.1697
7 -3 2 -0.0391 -0.0949
7 -3 3 -0.1267 0.1211
7 -3 4 0.0709 0.0144
7 -3 5 -0.0403 -0.0376
7 -3 6 0.0292 -0.0809
7 -3 7 -0.1505 -0.1426
7 -3 8 -0.1519 0.0712
7 -2 -6 0.0821 0.0506
7 -2 -5 0.0595 -0.0987
7 -2 -4 -0.0421 -0.0597
7 -2 -3 -0.0508 -0.0155
7 -2 -2 -0.0376 0.0199
7 -2 -1 -0.0131 -0.0117
7 -2 0 -0.1180 -0.0655
7 -2 1 -0.2117 0.1642
7 -2 2 0.1545 0.1821
7 -2 3 -0.0268 -0.1897
7 -2 4 -0.1840 0.1749
7 -2 5 0.1990 0.0608
7 -2 6 -0.0122 -0.1637
7 -2 7 -0.0730 -0.0448
7 -2 8 -0.0937 -0.0052
7 -2 9 -0.0005 0.0802
7 -1 -6 -0.0299 -0.0001
7 -1 -5 0.1425 0.0742
7 -1 -4 0.0911 -0.2086
7 -1 -3 -0.1992 -0.0492
7 -1 -2 -0.0184 0.1492
7 -1 -1 0.0532 -0.0300
7 -1 0 -0.1404 -0.0149
7 -1 1 -0.0901 0.1652
7 -1 2 0.0522 0.1250
7 -1 3 0.0650 -0.0121
7 -1 4 -0.1140 -0.0436
7 -1 5 -0.0610 0.1836
7 -1 6 0.1457 0.0195
7 -1 7 -0.0471 -0.0775
7 -1 8 -0.0555 0.0576
7 -1 9 0.0001 0.0876
7 -1 10 0.0959 0.0643
7 0 -6 0.1512 -0.0151
7 0 -5 -0.0138 -0.0289
7 0 -4 0.1485 0.0002
7 0 -3 -0.0897 -0.2332
7 0 -2 -0.2353 0.1813
7 0 -1 0.1358 0.1414
7 0 0 -0.0518 -0.0714
7 0 1 -0.1386 0.1563
7 0 2 0.0963 0.1833
7 0 3 0.1039 -0.0835
7 0 4 -0.1606 -0.0749
7 0 5 -0.1325 0.1240
7 0 6 -0.0118 0.1127
7 0 7 0.0163 0.0423
7 0 8 -0.0491 0.0113
7 0 9 -0.0605 0.0994
7 0 10 0.0327 0.1163
7 0 11 0.0769 0.0343
7 1 -6 0.0903 0.0858
7 1 -5 0.1197 -0.1114
7 1 -4 -0.0325 -0.0655
7 1 -3 -0.0018 -0.0976
7 1 -2 -0.2389 -0.0137
7 1 -1 -0.0017 0.2535
7 1 0 0.0591 -0.0938
7 1 1 -0.2495 0.1332
7 1 2 0.1665 0.2436
7 1 3 0.0910 -0.1750
7 1 4 -0.1566 -0.0643
7 1 5 -0.1238 -0.0215
7 1 6 -0.1904 0.0597
7 1 7 -0.0158 0.1485
7 1 8 0.0359 -0.0647
7 1 9 -0.1817 -0.0260
7 1 10 -0.0534 0.1659
7 1 11 0.0614 0.0052
7 2 -6 0.0524 -0.0010
7 2 -5 0.1293 -0.0742
7 2 -4 -0.0031 -0.1621
7 2 -3 -0.0716 -0.0533
7 2 -2 -0.0486 -0.0451
7 2 -1 -0.1362 0.0105
7 2 0 -0.0090 0.1112
7 2 1 -0.0588 -0.0983
7 2 2 -0.2263 0.2044
7 2 3 0.2922 0.1196
7 2 4 -0.0778 -0.3860
7 2 5 -0.2884 0.0805
7 2 6 0.0142 -0.0382
7 2 7 -0.2129 -0.0083
7 2 8 0.0836 0.1001
7 2 9 -0.0297 -0.2403
7 3 -6 0.1210 -0.0180
7 3 -5 0.0727 -0.0992
7 3 -4 0.0509 -0.0696
7 3 -3 0.0179 -0.1007
7 3 -2 -0.0433 -0.0161
7 3 -1 0.0606 -0.0202
7 3 0 -0.0926 -0.1378
7 3 1 -0.1329 0.0942
7 3 2 0.0174 -0.0594
7 3 3 -0.2239 0.0322
7 3 4 0.1627 0.1093
7 3 5 -0.0491 -0.3638
7 3 6 -0.3094 0.0526
7 3 7 0.0670 0.0436
7 3 8 -0.0443 -0.0885
7 3 9 0.0117 -0.0591
7 3 10 -0.1219 -0.1064
7 3 11 -0.0624 0.1155
7 4 -5 0.1688 -0.0380
7 4 -4 -0.0228 -0.0622
7 4 -3 0.0815 0.0940
7 4 -2 0.1068 -0.0502
7 4 -1 -0.0081 -0.0027
7 4 0 0.0697 0.0189
7 4 1 0.0105 -0.1394
7 4 2 -0.1648 -0.0507
7 4 3 -0.0600 0.0056
7 4 4 -0.1214 -0.0188
7 4 5 0.0600 0.0471
7 4 6 -0.0123 -0.2607
7 4 7 -0.2458 0.0210
7 4 8 0.1163 0.0698
7 4 9 -0.0077 -0.1908
7 4 10 -0.1530 -0.0093
7 4 11 -0.0326 0.1006
7 5 -5 0.0160 0.1309
7 5 -4 0.1200 0.0204
7 5 -3 -0.0182 0.0648
7 5 -2 0.0773 0.1228
7 5 -1 0.0491 0.0575
7 5 0 0.0372 0.0667
7 5 1 0.0765 0.0520
7 5 2 0.1047 -0.1675
7 5 3 -0.2744 -0.1753
7 5 4 -0.1126 0.2105
7 5 5 0.1271 -0.0703
7 5 6 -0.0830 -0.0876
7 5 7 0.0152 -0.0287
7 5 8 -0.0268 -0.0725
7 5 9 0.0048 -0.0525
7 5 10 -0.0948 -0.0971
7 5 11 -0.1282 0.0813
7 6 -3 0.0571 0.0616
7 6 -2 -0.0408 0.0737
7 6 -1 -0.0593 0.1232
7 6 0 -0.0149 0.2087
7 6 1 0.1556 0.0848
7 6 2 0.0333 -0.0911
7 6 3 -0.0339 -0.1034
7 6 4 -0.2151 -0.0643
7 6 5 -0.0389 0.2251
7 6 6 0.1797 -0.0762
7 6 7 -0.0959 -0.0506
7 6 8 0.1349 0.0575
7 6 9 0.0470 -0.2035
7 6 10 -0.1209 -0.0548
7 7 -2 -0.0545 0.0110
7 7 -1 -0.1311 0.0935
7 7 0 -0.0789 0.1523
7 7 1 0.0124 0.1805
7 7 2 0.1530 -0.0013
7 7 3 -0.0788 -0.1532
7 7 4 -0.1251 0.0510
7 7 5 -0.0425 0.0345
7 7 6 -0.0234 0.1183
7 7 7 0.1194 0.0463
7 7 8 0.0516 -0.0085
7 8 1 0.0050 0.1158
7 8 2 0.0114 0.0325
7 8 3 0.0266 0.0021
7 8 4 -0.0527 -0.0707
7 8 5 -0.1114 0.0737
7 8 6 0.0343 0.0812
8 -1 0 -0.0269 0.0448
8 -1 1 0.0045 -0.0047
8 -1 2 -0.0423 -0.0155
8 -1 3 -0.0977 0.0488
8 -1 4 0.0231 0.1554
8 -1 5 0.1231 -0.0417
8 0 -1 -0.0460 -0.1347
8 0 0 -0.1132 0.0299
8 0 1 0.0095 0.0548
8 0 2 -0.0072 -0.0512
8 0 3 -0.1487 0.0337
8 0 4 0.0306 0.2051
8 0 5 0.1767 -0.0471
8 0 6 -0.0594 -0.1254
8 1 -2 0.0716 0.0093
8 1 -1 0.0355 -0.1395
8 1 0 -0.1193 -0.0087
8 1 1 0.0618 0.0291
8 1 2 -0.0625 -0.1203
8 1 3 -0.1408 0.0970
8 1 4 0.0547 0.1426
8 1 5 0.1371 0.0253
8 1 6 0.0735 -0.1170
8 1 7 -0.0786 -0.0642
8 2 -2 0.0103 0.0277
8 2 -1 0.1210 0.0135
8 2 0 0.0626 -0.1344
8 2 1 -0.0642 -0.0240
8 2 2 0.0957 -0.0219
8 2 3 -0.1178 -0.1587
8 2 4 -0.1249 0.2380
8 2 5 0.2748 0.0740
8 2 6 0.0262 -0.1574
8 2 7 -0.0205 0.0163
8 3 -1 0.0573 0.0460
8 3 0 0.1290 0.0468
8 3 1 0.1777 -0.1270
8 3 2 -0.0741 -0.1344
8 3 3 0.0465 0.0679
8 3 4 0.0233 -0.1337
8 3 5 -0.0982 0.1443
8 3 6 0.2532 0.0464
8 4 0 0.1065 0.0008
8 4 1 0.0826 0.0257
8 4 2 0.1857 -0.0473
8 4 3 0.0010 -0.1492
8 4 4 0.0121 0.0813
8 5 2 0.0493 0.0073
8 5 3 0.1384 0.0561
8 5 4 0.1109 -0.1232
8 5 5 -0.0471 0.0155
0 0 0 0.0 0.0
;
_iucr_refine_fcf_details
;
data_Co-MOF-1_CCDC1
_computing_structure_refinement   'olex2.refine 1.3-dev (Bourhis et al., 2015)'
_shelx_refln_list_code            4
loop_
  _space_group_symop_id
  _space_group_symop_operation_xyz
  1  x,y,z

_space_group_crystal_system       triclinic
_space_group_IT_number            1
_space_group_name_H-M_alt         'P 1'
_space_group_name_Hall            ' P 1'
_symmetry_space_group_name_H-M    'P 1'
_symmetry_space_group_name_Hall   ' P 1'
_symmetry_Int_Tables_number       1
_cell_length_a                    6.2526(4)
_cell_length_b                    9.2824(6)
_cell_length_c                    13.0984(8)
_cell_angle_alpha                 82.245(1)
_cell_angle_beta                  80.476(1)
_cell_angle_gamma                 81.335(1)
_cell_volume                      736.45(8)
loop_
  _refln_index_h
  _refln_index_k
  _refln_index_l
  _refln_F_squared_calc
  _refln_F_squared_meas
  _refln_F_squared_sigma
  _refln_F_squared_weight
  _refln_observed_status
-8 -5 -5 22.757 25.186 4.965 68.711 o
-8 -5 -4 38.377 47.142 6.102 45.497 o
-8 -5 -3 39.015 50.372 6.222 43.764 o
-8 -5 -2 37.614 41.279 5.982 47.335 o
-8 -4 -6 15.808 17.768 4.128 99.423 o
-8 -4 -5 7.603 8.974 3.410 145.692 o
-8 -4 -4 25.742 32.425 5.564 54.729 o
-8 -4 -3 35.583 41.757 5.923 48.296 o
-8 -4 -2 26.593 32.843 5.444 57.161 o
-8 -4 -1 41.421 44.569 5.982 47.335 o
-8 -4 0 75.674 83.275 7.957 26.760 o
-8 -3 -7 23.117 26.203 4.726 75.846 o
-8 -3 -6 17.884 20.879 4.307 91.310 o
-8 -3 -5 5.041 5.444 2.931 197.148 o
-8 -3 -4 5.912 5.803 2.812 214.284 o
-8 -3 -3 5.645 6.222 2.931 197.148 o
-8 -3 -2 3.980 4.307 2.812 214.284 o
-8 -3 -1 11.586 11.426 3.589 131.487 o
-8 -3 0 28.876 31.468 5.265 61.125 o
-8 -3 1 38.249 45.347 6.042 46.403 o
-8 -2 -7 15.269 15.794 3.829 115.565 o
-8 -2 -6 15.646 18.605 3.948 108.667 o
-8 -2 -5 21.506 24.827 4.487 84.152 o
-8 -2 -4 3.013 4.068 2.632 244.500 o
-8 -2 -3 4.348 3.530 2.632 244.500 o
-8 -2 -2 3.447 4.068 2.752 223.702 o
-8 -2 -1 2.964 3.709 2.752 223.702 o
-8 -2 0 1.784 0.598 2.393 295.845 o
-8 -2 1 0.992 2.812 2.872 205.448 o
-8 -2 2 2.236 2.692 2.872 205.448 o
-8 -1 -7 35.713 38.048 5.265 61.125 o
-8 -1 -6 13.411 14.178 3.589 131.487 o
-8 -1 -5 7.857 8.615 3.111 175.057 o
-8 -1 -4 8.133 9.273 3.231 162.329 o
-8 -1 -3 14.715 15.375 3.889 112.036 o
-8 -1 -2 21.925 22.255 4.547 81.952 o
-8 -1 -1 43.848 49.714 6.162 44.618 o
-8 -1 0 40.534 42.116 6.222 43.764 o
-8 -1 1 32.520 30.750 5.504 55.925 o
-8 -1 2 12.879 15.794 4.367 88.826 o
-8 0 -6 55.878 58.927 6.401 41.344 o
-8 0 -5 12.917 12.802 3.589 131.487 o
-8 0 -4 8.942 10.529 3.410 145.692 o
-8 0 -3 8.248 7.598 3.231 162.329 o
-8 0 -2 15.204 17.588 4.128 99.423 o
-8 0 -1 18.296 19.622 4.367 88.826 o
-8 0 0 14.396 15.554 4.128 99.423 o
-8 0 1 16.340 20.400 4.606 79.837 o
-8 1 -5 24.169 33.023 5.265 61.125 o
-8 1 -4 11.592 11.845 3.589 131.487 o
-8 1 -3 23.155 22.614 4.547 81.952 o
-8 1 -2 18.912 19.263 4.307 91.310 o
-8 1 -1 24.146 24.707 4.906 70.397 o
-8 1 0 15.251 14.836 4.008 105.447 o
-7 -8 -5 61.730 65.149 7.059 33.995 o
-7 -8 -4 30.014 33.681 5.623 53.571 o
-7 -8 -3 33.825 39.005 5.863 49.287 o
-7 -8 -2 39.473 44.509 6.282 42.934 o
-7 -8 -1 39.706 41.997 6.282 42.934 o
-7 -7 -8 13.419 14.597 3.948 108.667 o
-7 -7 -7 22.308 26.143 5.085 65.516 o
-7 -7 -6 38.716 37.151 5.623 53.571 o
-7 -7 -5 26.432 26.323 5.145 64.001 o
-7 -7 -4 33.082 38.647 5.564 54.729 o
-7 -7 -3 54.850 63.175 6.700 37.735 o
-7 -7 -2 82.732 92.070 8.316 24.499 o
-7 -7 -1 49.995 58.508 6.700 37.735 o
-7 -7 0 44.578 51.569 6.341 42.128 o
-7 -7 1 73.766 83.455 8.016 26.362 o
-7 -7 2 46.333 50.791 6.700 37.735 o
-7 -6 -10 22.005 21.896 4.427 86.441 o
-7 -6 -9 46.732 48.697 6.042 46.403 o
-7 -6 -8 34.604 38.168 5.384 58.439 o
-7 -6 -7 50.963 57.371 6.401 41.344 o
-7 -6 -6 108.168 113.068 9.033 20.760 o
-7 -6 -5 60.359 57.013 6.341 42.128 o
-7 -6 -4 18.217 17.887 4.068 102.369 o
-7 -6 -3 14.491 12.743 3.530 135.982 o
-7 -6 -2 48.237 53.423 6.222 43.764 o
-7 -6 -1 30.658 34.578 5.205 62.538 o
-7 -6 0 25.752 25.665 4.846 72.146 o
-7 -6 1 31.953 32.544 5.265 61.125 o
-7 -6 2 42.261 45.945 6.102 45.497 o
-7 -6 3 16.969 22.614 4.726 75.846 o
-7 -5 -9 40.327 45.287 5.324 59.759 o
-7 -5 -8 65.203 70.772 6.521 39.841 o
-7 -5 -7 66.516 75.917 6.880 35.792 o
-7 -5 -6 129.430 134.844 9.572 18.490 o
-7 -5 -5 111.261 122.281 8.854 21.610 o
-7 -5 -4 42.651 45.825 5.623 53.571 o
-7 -5 -3 40.174 43.014 5.564 54.729 o
-7 -5 -2 38.157 44.509 5.683 52.449 o
-7 -5 -1 37.090 37.929 5.444 57.161 o
-7 -5 0 33.148 36.612 5.384 58.439 o
-7 -5 1 40.289 48.458 6.162 44.618 o
-7 -5 2 36.087 40.441 5.803 50.309 o
-7 -5 3 47.056 52.705 6.282 42.934 o
-7 -5 4 41.486 52.047 6.222 43.764 o
-7 -5 5 25.212 27.759 5.265 61.125 o
-7 -4 -9 14.013 15.913 3.530 135.982 o
-7 -4 -8 11.908 11.546 3.171 168.513 o
-7 -4 -7 42.580 47.381 5.205 62.538 o
-7 -4 -6 70.406 74.122 6.760 37.071 o
-7 -4 -5 188.234 204.539 12.264 11.264 o
-7 -4 -4 149.201 157.637 10.350 15.816 o
-7 -4 -3 117.752 120.247 9.033 20.760 o
-7 -4 -2 144.495 139.690 10.230 16.188 o
-7 -4 -1 135.117 132.870 9.692 18.037 o
-7 -4 0 106.082 102.240 8.316 24.499 o
-7 -4 1 85.494 84.592 7.658 28.891 o
-7 -4 2 38.034 38.288 5.504 55.925 o
-7 -4 3 31.695 34.997 5.265 61.125 o
-7 -4 4 18.406 23.451 4.726 75.846 o
-7 -4 5 19.738 22.374 4.606 79.837 o
-7 -3 -11 17.162 15.255 3.589 131.487 o
-7 -3 -10 10.604 6.999 2.872 205.448 o
-7 -3 -8 6.002 7.239 2.692 233.754 o
-7 -3 -7 23.982 26.263 4.128 99.423 o
-7 -3 -6 23.492 25.784 4.367 88.826 o
-7 -3 -5 73.010 74.601 6.461 40.582 o
-7 -3 -4 71.328 69.516 6.162 44.618 o
-7 -3 -3 37.797 43.432 5.145 64.001 o
-7 -3 -2 86.366 87.344 7.418 30.785 o
-7 -3 -1 123.018 126.050 9.273 19.703 o
-7 -3 0 139.592 136.459 9.811 17.599 o
-7 -3 1 150.209 153.569 10.469 15.456 o
-7 -3 2 81.492 78.310 7.418 30.785 o
-7 -3 3 50.375 57.850 6.341 42.128 o
-7 -3 4 50.912 51.808 6.162 44.618 o
-7 -3 5 23.546 21.836 4.547 81.952 o
-7 -3 6 27.699 25.964 5.025 67.085 o
-7 -2 -11 10.101 9.452 3.231 162.329 o
-7 -2 -10 16.185 17.110 3.589 131.487 o
-7 -2 -9 5.009 1.914 2.273 327.807 o
-7 -2 -7 10.582 7.418 2.632 244.500 o
-7 -2 -6 42.007 42.296 4.965 68.711 o
-7 -2 -5 60.914 58.748 5.923 48.296 o
-7 -2 -4 31.767 32.185 4.487 84.152 o
-7 -2 -3 3.048 3.769 2.273 327.807 o
-7 -2 -2 16.235 16.811 3.649 127.211 o
-7 -2 -1 71.221 73.345 6.820 36.423 o
-7 -2 0 68.517 69.037 6.700 37.735 o
-7 -2 1 68.456 77.532 7.059 33.995 o
-7 -2 2 45.571 48.218 5.803 50.309 o
-7 -2 3 22.863 27.759 5.085 65.516 o
-7 -2 4 57.266 57.790 6.641 38.418 o
-7 -2 5 31.990 34.100 5.384 58.439 o
-7 -2 6 27.392 25.605 5.085 65.516 o
-7 -1 -11 56.368 51.748 6.042 46.403 o
-7 -1 -10 56.700 56.295 5.923 48.296 o
-7 -1 -9 44.353 40.860 5.085 65.516 o
-7 -1 -8 49.398 42.894 4.786 73.961 o
-7 -1 -7 17.261 13.405 2.195 351.671 o
-7 -1 -6 45.560 46.124 5.025 67.085 o
-7 -1 -5 89.137 88.839 7.059 33.995 o
-7 -1 -4 45.502 47.321 5.384 58.439 o
-7 -1 -3 8.242 10.230 3.111 175.057 o
-7 -1 -2 4.797 5.265 2.692 233.754 o
-7 -1 -1 74.576 70.712 6.641 38.418 o
-7 -1 0 141.017 139.211 9.572 18.490 o
-7 -1 1 69.181 75.379 6.940 35.178 o
-7 -1 2 57.721 61.021 6.341 42.128 o
-7 -1 3 73.662 79.147 7.239 32.331 o
-7 -1 4 45.885 44.749 5.743 51.362 o
-7 -1 5 63.547 68.559 6.999 34.579 o
-7 -1 6 33.149 42.774 6.042 46.403 o
-7 0 -11 7.604 4.547 2.872 205.448 o
-7 0 -10 15.101 18.486 3.889 112.036 o
-7 0 -9 4.147 3.889 2.513 268.341 o
-7 0 -8 12.382 15.315 3.350 150.942 o
-7 0 -7 60.881 57.656 3.911 110.732 o
-7 0 -6 77.680 74.954 4.420 86.715 o
-7 0 -5 104.725 105.829 7.897 27.167 o
-7 0 -4 76.985 74.900 6.461 40.582 o
-7 0 -3 89.744 87.164 7.119 33.426 o
-7 0 -2 82.457 79.806 6.820 36.423 o
-7 0 -1 72.262 74.242 6.760 37.071 o
-7 0 0 121.198 118.871 8.914 21.321 o
-7 0 1 117.267 125.093 9.093 20.488 o
-7 0 2 31.823 36.792 5.265 61.125 o
-7 0 3 52.550 52.765 6.222 43.764 o
-7 0 4 58.397 61.140 6.700 37.735 o
-7 0 5 68.668 77.592 7.598 29.348 o
-7 0 6 59.098 63.474 6.999 34.579 o
-7 1 -10 5.774 3.589 2.812 214.284 o
-7 1 -9 5.293 3.589 2.513 268.341 o
-7 1 -8 0.589 0.299 2.094 386.410 o
-7 1 -7 11.623 13.042 3.111 175.057 o
-7 1 -6 41.503 43.317 3.419 144.888 o
-7 1 -5 45.977 43.615 3.398 146.690 o
-7 1 -4 4.727 6.641 2.632 244.500 o
-7 1 -3 13.274 12.444 3.290 156.480 o
-7 1 -2 31.796 31.587 4.606 79.837 o
-7 1 -1 60.705 62.217 6.401 41.344 o
-7 1 0 73.444 75.498 7.059 33.995 o
-7 1 1 64.795 59.286 6.401 41.344 o
-7 1 2 35.674 36.433 5.324 59.759 o
-7 1 3 36.798 33.442 5.384 58.439 o
-7 1 4 54.684 55.457 6.521 39.841 o
-7 1 5 36.620 39.005 6.102 45.497 o
-7 1 6 40.098 48.278 6.641 38.418 o
-7 2 -9 11.194 11.426 3.410 145.692 o
-7 2 -8 2.844 2.094 2.333 311.212 o
-7 2 -7 6.523 3.948 2.333 311.212 o
-7 2 -6 17.492 17.760 2.495 272.198 o
-7 2 -5 8.068 10.290 2.068 396.273 o
-7 2 -4 14.863 14.934 2.266 330.052 o
-7 2 -3 5.453 5.623 2.692 233.754 o
-7 2 -2 8.412 8.435 2.991 189.341 o
-7 2 -1 28.322 27.639 4.666 77.803 o
-7 2 0 78.032 81.540 7.299 31.803 o
-7 2 1 73.220 77.293 7.239 32.331 o
-7 2 2 46.609 48.039 5.923 48.296 o
-7 2 3 30.086 31.527 5.205 62.538 o
-7 2 4 64.377 69.755 7.179 32.872 o
-7 2 5 60.026 56.654 6.880 35.792 o
-7 2 6 59.078 60.841 7.179 32.872 o
-7 3 -8 33.347 31.527 5.025 67.085 o
-7 3 -7 19.706 16.033 3.649 127.211 o
-7 3 -6 33.372 31.527 4.547 81.952 o
-7 3 -5 12.625 14.502 2.364 303.041 o
-7 3 -4 4.643 4.059 1.710 579.525 o
-7 3 -3 11.820 11.345 2.164 361.929 o
-7 3 -2 17.666 17.050 3.889 112.036 o
-7 3 -1 11.995 11.307 3.470 140.711 o
-7 3 0 24.130 23.810 4.726 75.846 o
-7 3 1 21.301 21.896 4.487 84.152 o
-7 3 2 21.070 22.733 4.846 72.146 o
-7 3 3 9.553 9.512 3.530 135.982 o
-7 3 4 14.492 14.597 4.188 96.603 o
-7 3 5 20.257 22.733 5.025 67.085 o
-7 4 -6 44.242 45.227 5.564 54.729 o
-7 4 -5 42.802 40.681 5.025 67.085 o
-7 4 -4 18.589 18.731 2.698 232.658 o
-7 4 -3 19.093 17.556 2.631 244.649 o
-7 4 -2 25.230 23.903 3.015 186.348 o
-7 4 -1 38.342 35.655 5.743 51.362 o
-7 4 0 42.221 44.509 6.222 43.764 o
-7 4 1 27.660 20.759 4.666 77.803 o
-7 4 2 16.287 15.375 4.188 96.603 o
-7 4 3 32.941 34.219 6.222 43.764 o
-7 5 -3 11.943 12.873 2.564 257.728 o
-7 5 -2 14.302 15.130 2.615 247.791 o
-7 5 -1 15.286 15.793 2.629 245.115 o
-7 5 0 28.698 31.946 5.683 52.449 o
-6 -9 -8 53.837 58.149 6.760 37.071 o
-6 -9 -7 32.681 34.339 5.324 59.759 o
-6 -9 -6 28.962 32.843 5.145 64.001 o
-6 -9 -5 79.888 82.318 7.717 28.445 o
-6 -9 -4 91.872 90.275 8.256 24.856 o
-6 -9 -3 38.950 45.167 6.042 46.403 o
-6 -9 -2 52.120 60.243 6.760 37.071 o
-6 -9 -1 79.050 87.583 8.076 25.973 o
-6 -9 0 49.083 55.218 6.641 38.418 o
-6 -9 1 33.176 35.117 5.623 53.571 o
-6 -8 -10 55.434 58.568 6.341 42.128 o
-6 -8 -9 39.795 37.988 5.444 57.161 o
-6 -8 -8 38.598 35.536 5.025 67.085 o
-6 -8 -7 32.800 36.373 5.384 58.439 o
-6 -8 -6 33.812 40.023 5.504 55.925 o
-6 -8 -5 55.891 63.833 6.521 39.841 o
-6 -8 -4 58.137 64.132 6.521 39.841 o
-6 -8 -3 26.859 24.229 4.606 79.837 o
-6 -8 -2 6.185 7.478 2.991 189.341 o
-6 -8 -1 27.964 27.459 4.786 73.961 o
-6 -8 0 36.847 36.493 5.384 58.439 o
-6 -8 1 32.409 31.049 5.324 59.759 o
-6 -8 2 48.668 47.620 5.923 48.296 o
-6 -8 3 58.827 62.875 6.820 36.423 o
-6 -8 4 73.427 81.780 7.897 27.167 o
-6 -7 -11 32.915 36.672 5.085 65.516 o
-6 -7 -10 26.944 31.408 4.786 73.961 o
-6 -7 -9 12.942 9.751 3.051 181.989 o
-6 -7 -8 10.727 12.862 3.470 140.711 o
-6 -7 -7 11.356 10.170 3.231 162.329 o
-6 -7 -6 9.366 11.127 3.171 168.513 o
-6 -7 -5 46.708 49.415 5.743 51.362 o
-6 -7 -4 60.918 68.977 6.521 39.841 o
-6 -7 -3 83.400 92.369 7.717 28.445 o
-6 -7 -1 30.049 34.459 4.906 70.397 o
-6 -7 0 53.687 47.022 5.683 52.449 o
-6 -7 1 56.677 59.406 6.102 45.497 o
-6 -7 2 43.710 45.048 5.384 58.439 o
-6 -7 3 42.801 40.441 5.265 61.125 o
-6 -7 4 13.234 19.024 4.068 102.369 o
-6 -7 5 28.448 30.009 3.443 142.931 o
-6 -6 -12 29.735 29.493 4.606 79.837 o
-6 -6 -11 54.771 56.235 5.623 53.571 o
-6 -6 -10 53.005 55.007 3.857 113.900 o
-6 -6 -9 70.671 68.618 6.341 42.128 o
-6 -6 -8 51.119 53.483 5.743 51.362 o
-6 -6 -7 57.684 51.748 5.504 55.925 o
-6 -6 -6 54.979 53.543 5.564 54.729 o
-6 -6 -5 62.760 59.166 5.863 49.287 o
-6 -6 -4 67.718 65.089 6.102 45.497 o
-6 -6 -3 100.430 103.317 8.016 26.362 o
-6 -6 -2 30.784 31.228 4.606 79.837 o
-6 -6 -1 10.722 11.546 3.231 162.329 o
-6 -6 0 29.946 33.561 4.726 75.846 o
-6 -6 1 73.650 72.507 6.581 39.120 o
-6 -6 3 23.659 22.015 4.128 99.423 o
-6 -6 4 18.621 17.506 2.557 259.123 o
-6 -6 5 4.851 5.815 1.891 473.789 o
-6 -6 6 10.104 8.093 2.043 405.690 o
-6 -6 7 34.304 35.746 3.701 123.663 o
-6 -5 -13 46.177 44.150 5.324 59.759 o
-6 -5 -12 113.801 123.537 8.675 22.514 o
-6 -5 -11 73.514 77.712 6.521 39.841 o
-6 -5 -10 95.770 96.967 5.105 64.993 o
-6 -5 -9 112.311 113.149 5.487 56.267 o
-6 -5 -8 52.844 55.756 5.504 55.925 o
-6 -5 -7 59.493 58.867 5.623 53.571 o
-6 -5 -6 97.135 97.873 7.418 30.785 o
-6 -5 -5 59.027 57.730 5.564 54.729 o
-6 -5 -4 121.055 126.169 8.495 23.475 o
-6 -5 -3 66.471 61.918 5.743 51.362 o
-6 -5 -2 23.819 27.041 4.128 99.423 o
-6 -5 -1 4.563 6.162 2.572 256.005 o
-6 -5 0 19.979 23.152 4.128 99.423 o
-6 -5 1 37.426 43.552 5.145 64.001 o
-6 -5 2 52.470 53.782 5.683 52.449 o
-6 -5 3 13.465 12.144 3.231 162.329 o
-6 -5 4 11.467 16.325 2.461 279.621 o
-6 -5 5 24.490 28.590 3.159 169.746 o
-6 -5 6 24.528 24.222 3.074 179.260 o
-6 -5 7 14.948 16.538 2.619 247.052 o
-6 -5 8 25.173 27.369 3.353 150.663 o
-6 -4 -13 17.282 16.870 3.709 123.141 o
-6 -4 -12 65.116 64.670 6.222 43.764 o
-6 -4 -11 46.796 54.560 5.205 62.538 o
-6 -4 -10 67.590 71.413 4.599 80.099 o
-6 -4 -9 137.442 141.898 6.361 41.865 o
-6 -4 -8 97.283 95.001 7.179 32.872 o
-6 -4 -7 57.998 55.764 3.594 131.123 o
-6 -4 -6 84.681 83.455 6.820 36.423 o
-6 -4 -5 124.995 125.152 8.196 25.220 o
-6 -4 -4 165.673 166.611 10.469 15.456 o
-6 -4 -3 178.640 169.961 10.649 14.940 o
-6 -4 -2 82.190 83.694 6.641 38.418 o
-6 -4 -1 98.469 88.241 6.820 36.423 o
-6 -4 0 157.012 146.151 9.572 18.490 o
-6 -4 1 167.362 156.859 10.230 16.188 o
-6 -4 2 133.617 128.383 8.854 21.610 o
-6 -4 3 35.424 40.023 4.846 72.146 o
-6 -4 4 7.306 9.756 1.922 458.784 o
-6 -4 5 12.902 12.972 2.199 350.266 o
-6 -4 6 25.146 28.412 3.038 183.575 o
-6 -4 7 33.591 38.650 3.488 139.232 o
-6 -4 8 7.781 12.307 2.383 298.311 o
-6 -3 -14 5.321 4.427 2.931 197.148 o
-6 -3 -13 8.815 9.871 3.350 150.942 o
-6 -3 -12 25.997 26.323 4.367 88.826 o
-6 -3 -11 61.367 63.833 5.803 50.309 o
-6 -3 -10 44.139 44.629 4.666 77.803 o
-6 -3 -9 63.948 61.152 3.786 118.198 o
-6 -3 -8 102.246 109.913 5.201 62.625 o
-6 -3 -7 115.842 114.444 7.837 27.583 o
-6 -3 -6 124.176 117.726 5.596 54.104 o
-6 -3 -5 96.350 91.591 6.940 35.178 o
-6 -3 -4 144.741 142.621 8.974 21.038 o
-6 -3 -3 127.073 124.614 8.675 22.514 o
-6 -3 -2 17.746 18.067 3.470 140.711 o
-6 -3 0 23.858 24.408 3.769 119.262 o
-6 -3 1 166.031 157.757 10.170 16.379 o
-6 -3 2 151.524 150.518 9.692 18.037 o
-6 -3 3 36.160 36.705 2.945 195.287 o
-6 -3 4 27.326 30.632 2.827 211.966 o
-6 -3 5 85.446 83.878 4.668 77.760 o
-6 -3 6 32.918 33.239 3.134 172.448 o
-6 -3 7 58.022 58.392 4.080 101.779 o
-6 -3 8 53.298 57.054 4.117 99.974 o
-6 -3 9 18.586 19.068 2.707 231.129 o
-6 -2 -14 13.286 11.426 3.470 140.711 o
-6 -2 -13 17.053 13.819 3.589 131.487 o
-6 -2 -12 26.320 24.767 4.188 96.603 o
-6 -2 -11 57.018 50.551 5.504 55.925 o
-6 -2 -10 46.111 40.920 4.726 75.846 o
-6 -2 -9 43.763 42.862 3.618 129.417 o
-6 -2 -8 43.993 43.599 3.236 161.789 o
-6 -2 -7 81.686 78.881 4.201 95.980 o
-6 -2 -6 126.923 114.886 5.220 62.162 o
-6 -2 -5 256.826 247.766 9.311 19.539 o
-6 -2 -4 174.811 169.123 10.409 15.635 o
-6 -2 -3 138.386 127.306 8.734 22.206 o
-6 -2 -2 56.917 57.790 5.623 53.571 o
-6 -2 -1 64.001 60.961 5.863 49.287 o
-6 -2 0 14.753 19.503 3.769 119.262 o
-6 -2 1 18.427 18.845 3.709 123.141 o
-6 -2 2 56.765 59.465 5.683 52.449 o
-6 -2 3 24.560 23.940 2.454 281.412 o
-6 -2 4 11.268 11.758 1.923 458.175 o
-6 -2 5 26.172 24.841 2.656 240.134 o
-6 -2 6 51.678 53.999 3.692 124.270 o
-6 -2 7 10.835 9.152 1.940 450.103 o
-6 -2 8 51.666 56.133 3.952 108.460 o
-6 -2 9 39.353 42.492 3.714 122.847 o
-6 -1 -13 47.526 48.398 5.923 48.296 o
-6 -1 -12 74.071 68.319 6.820 36.423 o
-6 -1 -11 92.230 95.539 7.478 30.295 o
-6 -1 -10 145.967 148.544 9.093 20.488 o
-6 -1 -9 50.014 47.261 4.786 73.961 o
-6 -1 -8 76.006 72.211 4.040 103.811 o
-6 -1 -7 72.617 73.119 3.954 108.374 o
-6 -1 -6 100.265 102.936 4.628 79.080 o
-6 -1 -5 299.975 283.292 10.136 16.491 o
-6 -1 -4 306.133 296.199 10.338 15.851 o
-6 -1 -3 19.819 18.897 2.390 296.633 o
-6 -1 -2 98.606 93.386 6.940 35.178 o
-6 -1 -1 81.611 80.464 6.341 42.128 o
-6 -1 0 64.798 66.824 6.102 45.497 o
-6 -1 1 146.749 139.989 9.811 17.599 o
-6 -1 2 55.069 53.603 5.623 53.571 o
-6 -1 3 6.318 4.307 2.333 311.212 o
-6 -1 4 14.287 14.777 3.470 140.711 o
-6 -1 5 1.833 2.572 2.273 327.807 o
-6 -1 6 12.677 11.546 3.231 162.329 o
-6 -1 7 13.365 14.956 3.589 131.487 o
-6 -1 8 22.438 25.306 4.726 75.846 o
-6 -1 9 16.407 17.349 3.948 108.667 o
-6 0 -13 12.453 16.332 3.829 115.565 o
-6 0 -12 20.122 15.435 3.709 123.141 o
-6 0 -11 74.039 78.669 6.641 38.418 o
-6 0 -10 69.661 69.456 6.102 45.497 o
-6 0 -9 26.110 25.784 4.188 96.603 o
-6 0 -8 71.460 71.789 5.923 48.296 o
-6 0 -7 195.390 194.368 7.868 27.365 o
-6 0 -6 187.154 184.461 7.337 31.469 o
-6 0 -5 102.196 100.799 4.752 75.019 o
-6 0 -4 413.230 399.925 20.041 4.218 o
-6 0 -3 266.910 271.069 9.660 18.156 o
-6 0 -2 183.432 182.239 7.036 34.224 o
-6 0 -1 443.087 428.043 21.118 3.799 o
-6 0 0 462.590 439.469 21.656 3.612 o
-6 0 1 195.949 192.814 11.546 12.708 o
-6 0 2 324.642 316.530 17.229 5.707 o
-6 0 3 83.093 87.044 7.179 32.872 o
-6 0 5 9.020 7.897 2.991 189.341 o
-6 0 6 38.028 41.219 5.504 55.925 o
-6 0 7 9.979 10.649 3.350 150.942 o
-6 0 8 19.677 22.015 4.307 91.310 o
-6 0 9 10.100 10.529 3.530 135.982 o
-6 1 -13 1.822 0.598 2.453 281.590 o
-6 1 -12 0.374 0.060 2.213 345.765 o
-6 1 -11 23.707 25.126 4.307 91.310 o
-6 1 -10 63.086 58.807 5.743 51.362 o
-6 1 -9 27.894 26.741 4.008 105.447 o
-6 1 -8 19.447 18.366 3.290 156.480 o
-6 1 -7 66.104 66.521 3.827 115.685 o
-6 1 -6 137.955 135.176 5.859 49.355 o
-6 1 -5 117.592 113.466 5.214 62.318 o
-6 1 -4 55.422 53.700 3.329 152.827 o
-6 1 -3 19.001 17.947 3.410 145.692 o
-6 1 -2 15.425 14.933 1.950 445.346 o
-6 1 -1 54.514 51.294 3.189 166.572 o
-6 1 0 96.225 92.847 7.119 33.426 o
-6 1 1 118.315 123.238 8.316 24.499 o
-6 1 2 120.912 120.606 8.555 23.148 o
-6 1 3 218.269 210.342 12.683 10.532 o
-6 1 4 129.773 134.246 9.333 19.451 o
-6 1 5 55.510 50.851 5.743 51.362 o
-6 1 6 64.981 63.294 6.341 42.128 o
-6 1 7 55.314 54.500 6.042 46.403 o
-6 1 8 26.882 23.212 4.487 84.152 o
-6 1 9 14.208 16.392 4.188 96.603 o
-6 2 -12 7.421 4.906 2.931 197.148 o
-6 2 -11 14.747 14.418 3.589 131.487 o
-6 2 -10 27.009 27.998 4.726 75.846 o
-6 2 -9 11.816 10.110 2.931 197.148 o
-6 2 -8 2.402 2.094 2.034 409.475 o
-6 2 -7 38.557 34.399 4.367 88.826 o
-6 2 -6 77.204 77.593 4.230 94.699 o
-6 2 -5 163.460 162.356 6.804 36.590 o
-6 2 -4 115.270 101.630 4.960 68.873 o
-6 2 -3 84.047 89.144 4.512 83.233 o
-6 2 -2 36.063 34.316 2.773 220.313 o
-6 2 -1 39.225 35.596 4.666 77.803 o
-6 2 0 91.392 81.435 4.226 94.862 o
-6 2 1 52.883 49.475 5.564 54.729 o
-6 2 2 23.188 24.109 4.307 91.310 o
-6 2 3 35.072 34.339 4.786 73.961 o
-6 2 4 89.209 95.180 7.777 28.009 o
-6 2 5 96.446 103.137 8.136 25.592 o
-6 2 6 71.844 74.242 7.059 33.995 o
-6 2 7 64.549 68.439 6.940 35.178 o
-6 2 8 65.949 69.396 7.239 32.331 o
-6 2 9 17.868 20.939 4.547 81.952 o
-6 3 -11 25.925 20.400 4.188 96.603 o
-6 3 -10 39.854 38.766 5.205 62.538 o
-6 3 -9 46.234 48.877 5.265 61.125 o
-6 3 -8 13.296 12.324 3.111 175.057 o
-6 3 -7 29.724 27.998 4.068 102.369 o
-6 3 -6 64.487 67.376 3.996 106.091 o
-6 3 -5 71.349 67.113 3.911 110.732 o
-6 3 -4 72.540 73.440 4.159 97.946 o
-6 3 -3 95.401 99.572 4.930 69.706 o
-6 3 -2 121.288 117.574 5.493 56.144 o
-6 3 -1 67.178 69.535 4.051 103.253 o
-6 3 0 124.092 124.903 5.729 51.616 o
-6 3 1 100.402 101.163 7.957 26.760 o
-6 3 2 33.243 30.151 4.846 72.146 o
-6 3 3 35.731 32.185 5.085 65.516 o
-6 3 4 0.697 0.479 2.393 295.845 o
-6 3 5 8.082 10.828 3.589 131.487 o
-6 3 6 36.651 38.228 5.743 51.362 o
-6 3 7 22.919 25.844 4.965 68.711 o
-6 3 8 32.598 32.963 5.803 50.309 o
-6 4 -10 12.262 13.341 3.530 135.982 o
-6 4 -9 19.517 21.836 4.068 102.369 o
-6 4 -8 28.626 35.655 4.726 75.846 o
-6 4 -7 49.308 52.227 5.504 55.925 o
-6 4 -6 116.801 122.520 8.435 23.809 o
-6 4 -5 90.445 93.004 4.990 68.049 o
-6 4 -4 89.460 90.300 4.851 71.992 o
-6 4 -3 49.226 44.430 3.415 145.277 o
-6 4 -2 83.621 88.606 4.718 76.095 o
-6 4 -1 158.847 148.627 6.618 38.677 o
-6 4 0 164.850 168.774 7.197 32.705 o
-6 4 1 171.971 180.191 11.546 12.708 o
-6 4 2 145.933 154.526 10.589 15.109 o
-6 4 3 46.166 50.910 6.162 44.618 o
-6 4 4 65.228 65.867 7.059 33.995 o
-6 4 5 22.700 23.152 4.846 72.146 o
-6 4 6 13.158 13.819 4.248 93.901 o
-6 4 7 17.177 20.460 4.726 75.846 o
-6 4 8 9.423 9.692 3.829 115.565 o
-6 5 -9 7.990 3.709 2.872 205.448 o
-6 5 -8 14.605 12.683 3.410 145.692 o
-6 5 -7 9.497 11.426 3.171 168.513 o
-6 5 -6 26.644 29.793 4.427 86.441 o
-6 5 -5 50.112 48.458 5.205 62.538 o
-6 5 -4 25.549 26.962 3.032 184.320 o
-6 5 -3 15.884 19.091 2.555 259.608 o
-6 5 -2 8.194 8.313 1.910 464.358 o
-6 5 -1 19.974 23.070 2.777 219.653 o
-6 5 0 69.075 73.271 4.455 85.358 o
-6 5 1 76.966 84.532 7.538 29.816 o
-6 5 2 71.354 71.430 7.179 32.872 o
-6 5 3 60.012 54.500 6.581 39.120 o
-6 5 4 55.102 58.867 6.880 35.792 o
-6 5 5 121.954 130.537 10.230 16.188 o
-6 5 6 68.225 63.713 7.478 30.295 o
-6 6 -6 8.346 7.059 2.931 197.148 o
-6 6 -5 35.623 32.903 4.726 75.846 o
-6 6 -4 27.171 26.653 3.141 171.703 o
-6 6 -3 27.055 31.669 3.363 149.749 o
-6 6 -2 24.199 25.162 2.981 190.619 o
-6 6 -1 33.110 33.548 3.378 148.472 o
-6 6 0 47.263 54.043 4.071 102.203 o
-6 6 1 60.486 70.892 7.179 32.872 o
-6 6 2 48.358 49.116 6.521 39.841 o
-6 6 3 33.120 40.980 5.982 47.335 o
-6 6 4 32.155 38.048 6.102 45.497 o
-6 6 5 89.512 102.718 9.392 19.204 o
-6 7 -3 4.628 4.879 1.983 430.670 o
-6 7 -2 12.348 11.170 2.423 288.586 o
-6 7 -1 30.212 28.008 4.038 103.891 o
-6 7 0 20.748 20.295 2.912 199.716 o
-6 7 1 20.447 21.417 4.726 75.846 o
-5 -10 -8 27.550 27.459 5.025 67.085 o
-5 -10 -7 23.260 24.408 4.786 73.961 o
-5 -10 -6 33.263 38.527 5.504 55.925 o
-5 -10 -5 30.426 27.878 4.846 72.146 o
-5 -10 -4 63.385 64.072 6.641 38.418 o
-5 -10 -3 90.093 91.352 8.196 25.220 o
-5 -10 -2 46.105 47.620 6.042 46.403 o
-5 -10 -1 20.713 16.691 4.068 102.369 o
-5 -10 0 25.317 23.571 4.726 75.846 o
-5 -10 1 37.678 39.364 5.623 53.571 o
-5 -10 2 14.092 12.623 3.709 123.141 o
-5 -9 -11 42.763 46.215 3.917 110.404 o
-5 -9 -10 76.680 88.899 7.837 27.583 o
-5 -9 -9 110.629 125.870 9.333 19.451 o
-5 -9 -8 85.803 86.326 7.478 30.295 o
-5 -9 -7 61.854 59.166 6.222 43.764 o
-5 -9 -6 56.978 59.226 6.401 41.344 o
-5 -9 -5 62.491 64.670 6.401 41.344 o
-5 -9 -4 54.103 54.500 5.803 50.309 o
-5 -9 -3 87.642 85.010 7.538 29.816 o
-5 -9 -2 133.012 129.998 9.572 18.490 o
-5 -9 -1 74.285 77.413 7.179 32.872 o
-5 -9 0 61.090 72.387 7.059 33.995 o
-5 -9 1 113.200 119.708 9.333 19.451 o
-5 -9 2 92.486 94.642 8.196 25.220 o
-5 -9 3 65.928 61.021 6.760 37.071 o
-5 -9 4 42.413 41.458 5.803 50.309 o
-5 -9 5 11.739 9.865 2.383 298.311 o
-5 -8 -12 6.311 8.159 2.111 380.182 o
-5 -8 -11 23.502 24.312 4.277 92.592 o
-5 -8 -10 36.805 41.207 3.420 144.880 o
-5 -8 -9 16.560 20.770 2.616 247.544 o
-5 -8 -8 83.402 88.061 7.239 32.331 o
-5 -8 -7 102.806 102.838 7.897 27.167 o
-5 -8 -6 68.898 66.644 6.282 42.934 o
-5 -8 -5 122.130 119.948 8.794 21.905 o
-5 -8 -4 126.474 125.093 8.974 21.038 o
-5 -8 -3 74.934 71.550 6.581 39.120 o
-5 -8 -2 126.013 122.759 9.033 20.760 o
-5 -8 -1 58.396 62.756 6.162 44.618 o
-5 -8 0 54.682 63.653 6.222 43.764 o
-5 -8 1 59.285 62.457 6.222 43.764 o
-5 -8 2 158.501 156.441 10.768 14.610 o
-5 -8 3 196.634 195.267 12.384 11.047 o
-5 -8 4 137.062 142.888 6.951 35.064 o
-5 -8 5 105.656 123.181 6.387 41.526 o
-5 -8 6 116.843 129.675 6.662 38.174 o
-5 -7 -13 20.838 23.511 4.128 99.423 o
-5 -7 -12 41.815 37.689 4.786 73.961 o
-5 -7 -11 38.607 42.500 3.443 142.931 o
-5 -7 -10 26.587 30.790 2.879 204.390 o
-5 -7 -9 38.037 38.859 3.041 183.250 o
-5 -7 -8 20.611 19.627 2.213 345.771 o
-5 -7 -7 5.172 7.173 2.025 413.043 o
-5 -7 -6 4.219 5.265 2.453 281.590 o
-5 -7 -5 4.718 5.205 2.273 327.807 o
-5 -7 -4 42.972 44.988 4.965 68.711 o
-5 -7 -3 35.310 34.399 4.547 81.952 o
-5 -7 -2 152.067 146.091 9.931 17.178 o
-5 -7 -1 88.998 86.865 6.999 34.579 o
-5 -7 0 36.498 36.194 4.726 75.846 o
-5 -7 1 57.337 57.491 5.803 50.309 o
-5 -7 2 121.925 125.511 8.675 22.514 o
-5 -7 3 107.742 103.847 5.280 60.776 o
-5 -7 4 56.633 55.566 3.869 113.168 o
-5 -7 5 29.012 31.263 3.127 173.262 o
-5 -7 6 50.394 58.026 4.208 95.690 o
-5 -7 7 65.604 63.913 4.524 82.776 o
-5 -7 8 47.956 48.099 5.803 50.309 o
-5 -6 -14 24.247 22.853 4.248 93.901 o
-5 -6 -13 29.012 26.442 4.367 88.826 o
-5 -6 -12 35.196 39.065 4.846 72.146 o
-5 -6 -11 103.525 103.780 5.245 61.570 o
-5 -6 -10 91.838 89.250 4.733 75.633 o
-5 -6 -9 123.757 119.009 5.511 55.788 o
-5 -6 -8 127.260 128.328 5.783 50.651 o
-5 -6 -7 113.270 113.813 5.237 61.765 o
-5 -6 -6 51.882 55.452 3.276 157.862 o
-5 -6 -5 23.409 24.947 3.769 119.262 o
-5 -6 -4 107.562 110.077 7.538 29.816 o
-5 -6 -3 257.081 257.185 13.640 9.106 o
-5 -6 -2 48.008 46.184 4.846 72.146 o
-5 -6 -1 34.388 38.288 4.487 84.152 o
-5 -6 0 78.169 71.729 5.923 48.296 o
-5 -6 1 61.031 57.132 5.444 57.161 o
-5 -6 2 135.714 128.562 9.153 20.221 o
-5 -6 3 162.605 151.797 6.782 36.837 o
-5 -6 4 60.380 65.057 4.038 103.879 o
-5 -6 5 24.763 27.579 2.833 211.036 o
-5 -6 6 38.390 38.833 3.300 155.606 o
-5 -6 7 91.644 96.342 5.224 62.073 o
-5 -6 8 74.457 81.840 7.059 33.995 o
-5 -6 9 47.531 55.038 5.982 47.335 o
-5 -5 -14 23.343 19.144 3.889 112.036 o
-5 -5 -13 39.611 40.202 4.906 70.397 o
-5 -5 -12 19.804 19.084 3.530 135.982 o
-5 -5 -11 60.555 54.141 5.265 61.125 o
-5 -5 -10 91.662 93.136 4.653 78.260 o
-5 -5 -9 184.079 181.352 7.205 32.634 o
-5 -5 -8 125.447 118.317 5.251 61.435 o
-5 -5 -7 89.330 86.865 6.461 40.582 o
-5 -5 -6 160.477 154.815 6.354 41.965 o
-5 -5 -5 129.917 126.292 5.323 59.799 o
-5 -5 -3 238.558 239.596 12.982 10.052 o
-5 -5 -2 54.839 57.431 5.324 59.759 o
-5 -5 0 35.119 46.124 4.606 79.837 o
-5 -5 1 46.608 49.415 4.846 72.146 o
-5 -5 2 103.166 105.735 5.238 61.746 o
-5 -5 3 288.173 284.459 10.813 14.488 o
-5 -5 4 90.938 87.103 4.657 78.112 o
-5 -5 5 43.120 46.132 3.414 145.353 o
-5 -5 6 106.890 110.590 5.624 53.556 o
-5 -5 7 77.855 77.365 4.586 80.547 o
-5 -5 8 58.142 54.679 3.934 109.458 o
-5 -5 9 45.885 49.594 5.504 55.925 o
-5 -5 10 44.139 46.723 5.504 55.925 o
-5 -4 -15 43.067 45.287 5.683 52.449 o
-5 -4 -14 15.038 14.537 3.530 135.982 o
-5 -4 -13 69.335 64.909 6.401 41.344 o
-5 -4 -12 18.668 21.297 3.709 123.141 o
-5 -4 -11 41.697 41.937 4.726 75.846 o
-5 -4 -10 40.088 44.509 3.214 163.988 o
-5 -4 -9 100.408 92.919 4.504 83.517 o
-5 -4 -8 19.674 20.918 2.178 357.045 o
-5 -4 -7 18.080 20.722 2.146 367.778 o
-5 -4 -6 77.790 79.558 3.739 121.160 o
-5 -4 -5 201.455 183.683 6.899 35.594 o
-5 -4 -4 287.276 278.496 9.587 18.432 o
-5 -4 -3 313.128 295.353 15.554 7.002 o
-5 -4 -2 132.717 129.639 8.375 24.151 o
-5 -4 -1 49.746 47.979 4.786 73.961 o
-5 -4 0 207.628 195.805 11.307 13.251 o
-5 -4 1 136.697 131.494 8.435 23.809 o
-5 -4 2 110.629 109.422 4.965 68.713 o
-5 -4 3 222.967 220.287 8.530 23.285 o
-5 -4 4 169.957 164.388 6.881 35.777 o
-5 -4 5 51.843 50.989 3.358 150.234 o
-5 -4 6 74.484 76.856 4.347 89.641 o
-5 -4 7 81.386 90.092 4.879 71.162 o
-5 -4 8 53.812 54.051 3.806 116.921 o
-5 -4 9 35.896 36.907 3.339 151.983 o
-5 -4 10 53.993 58.568 5.923 48.296 o
-5 -3 -15 31.643 29.912 4.846 72.146 o
-5 -3 -14 55.441 59.226 6.102 45.497 o
-5 -3 -13 55.049 55.098 5.743 51.362 o
-5 -3 -12 125.376 123.059 8.375 24.151 o
-5 -3 -11 47.794 41.279 4.666 77.803 o
-5 -3 -10 42.766 44.569 4.726 75.846 o
-5 -3 -9 100.607 98.888 4.778 74.211 o
-5 -3 -8 11.363 12.503 2.513 268.341 o
-5 -3 -7 8.030 9.118 1.523 730.483 o
-5 -3 -6 24.600 23.212 3.231 162.329 o
-5 -3 -5 60.454 62.274 3.185 167.000 o
-5 -3 -4 265.925 278.795 9.102 20.450 o
-5 -3 -3 240.550 225.181 7.904 27.115 o
-5 -3 -2 64.614 68.618 5.324 59.759 o
-5 -3 -1 15.225 14.537 2.812 214.284 o
-5 -3 0 143.519 124.255 8.375 24.151 o
-5 -3 1 252.003 246.656 13.281 9.605 o
-5 -3 2 93.855 84.964 4.225 94.915 o
-5 -3 3 151.589 145.482 9.392 19.204 o
-5 -3 4 139.973 140.228 6.070 45.980 o
-5 -3 5 91.541 94.311 4.600 80.076 o
-5 -3 6 131.896 123.030 5.718 51.818 o
-5 -3 7 193.929 195.313 8.009 26.408 o
-5 -3 8 129.070 125.580 5.898 48.695 o
-5 -3 9 111.051 109.547 5.499 56.028 o
-5 -3 10 134.483 132.511 8.974 21.038 o
-5 -3 11 48.116 47.919 5.324 59.759 o
-5 -2 -15 10.705 7.957 3.171 168.513 o
-5 -2 -14 22.042 25.545 4.487 84.152 o
-5 -2 -13 33.250 33.023 4.846 72.146 o
-5 -2 -12 68.109 66.943 6.042 46.403 o
-5 -2 -11 95.626 87.643 6.820 36.423 o
-5 -2 -10 217.081 213.513 12.204 11.374 o
-5 -2 -9 322.057 309.178 11.271 13.337 o
-5 -2 -8 183.675 180.695 7.128 33.345 o
-5 -2 -7 31.757 29.222 2.454 281.423 o
-5 -2 -6 155.968 157.615 6.577 39.163 o
-5 -2 -5 94.563 88.241 6.341 42.128 o
-5 -2 -4 14.483 14.896 2.752 223.702 o
-5 -2 -2 3.038 4.803 1.085 1440.260 o
-5 -2 0 12.791 16.631 3.111 175.057 o
-5 -2 1 168.526 150.099 9.153 20.221 o
-5 -2 2 187.241 185.504 7.112 33.497 o
-5 -2 3 101.895 98.949 4.616 79.493 o
-5 -2 4 217.782 209.811 8.228 25.023 o
-5 -2 5 66.204 69.377 3.799 117.394 o
-5 -2 6 12.092 13.735 1.955 443.397 o
-5 -2 7 132.050 128.402 5.887 48.876 o
-5 -2 8 77.355 75.505 4.250 93.793 o
-5 -2 9 89.114 90.860 4.917 70.066 o
-5 -2 10 59.804 59.732 4.008 105.458 o
-5 -2 11 55.935 57.371 5.623 53.571 o
-5 -1 -15 44.733 44.689 5.863 49.287 o
-5 -1 -14 40.031 40.920 5.444 57.161 o
-5 -1 -13 46.382 48.039 5.623 53.571 o
-5 -1 -12 61.675 63.175 6.042 46.403 o
-5 -1 -11 90.517 90.275 6.760 37.071 o
-5 -1 -10 96.023 90.454 6.521 39.841 o
-5 -1 -9 242.598 245.878 12.922 10.146 o
-5 -1 -8 221.647 218.374 8.036 26.233 o
-5 -1 -7 88.753 85.858 4.038 103.879 o
-5 -1 -6 126.670 125.512 5.309 60.110 o
-5 -1 -5 261.718 255.980 9.175 20.125 o
-5 -1 -4 207.405 200.690 7.771 28.052 o
-5 -1 -3 90.672 89.472 4.207 95.699 o
-5 -1 -2 44.250 40.841 2.528 265.116 o
-5 -1 -1 19.444 17.008 1.702 584.531 o
-5 -1 0 2.533 2.432 0.885 2163.850 o
-5 -1 2 35.181 41.339 3.290 156.480 o
-5 -1 3 13.660 11.754 1.639 630.911 o
-5 -1 4 27.990 30.137 2.466 278.591 o
-5 -1 5 230.603 229.645 8.635 22.723 o
-5 -1 6 19.957 17.821 2.126 374.643 o
-5 -1 7 53.297 56.180 3.543 134.964 o
-5 -1 8 94.747 96.169 4.880 71.129 o
-5 -1 9 49.441 52.746 3.628 128.691 o
-5 -1 10 26.766 30.842 3.007 187.399 o
-5 -1 11 7.303 7.658 2.572 256.005 o
-5 0 -15 50.633 53.603 6.222 43.764 o
-5 0 -14 40.593 41.398 5.564 54.729 o
-5 0 -13 46.990 46.783 5.564 54.729 o
-5 0 -12 66.111 72.447 6.461 40.582 o
-5 0 -11 139.599 131.314 8.794 21.905 o
-5 0 -10 49.319 51.688 4.906 70.397 o
-5 0 -9 40.296 38.946 4.547 81.952 o
-5 0 -8 135.241 130.481 5.468 56.656 o
-5 0 -7 140.436 142.396 5.499 56.028 o
-5 0 -6 30.133 34.312 2.538 262.974 o
-5 0 -5 463.653 454.792 15.291 7.245 o
-5 0 -4 693.792 695.214 21.654 3.613 o
-5 0 -3 336.007 324.427 16.811 5.995 o
-5 0 -2 547.632 544.444 17.543 5.505 o
-5 0 -1 175.026 167.371 6.354 41.967 o
-5 0 0 55.401 52.829 2.909 200.198 o
-5 0 1 237.330 229.260 8.185 25.285 o
-5 0 2 237.047 225.538 12.025 11.716 o
-5 0 3 67.085 67.985 3.948 108.667 o
-5 0 4 19.837 21.736 2.058 399.827 o
-5 0 5 52.970 51.614 3.119 174.183 o
-5 0 6 149.796 147.649 6.055 46.210 o
-5 0 7 12.345 13.380 1.897 470.902 o
-5 0 8 70.678 74.659 4.210 95.580 o
-5 0 9 94.296 96.398 4.948 69.189 o
-5 0 10 37.239 37.967 3.237 161.708 o
-5 0 11 41.880 45.839 3.931 109.610 o
-5 1 -14 9.069 8.196 3.231 162.329 o
-5 1 -13 6.016 3.470 2.572 256.005 o
-5 1 -12 75.698 75.139 6.581 39.120 o
-5 1 -11 103.254 102.300 7.837 27.583 o
-5 1 -10 165.987 160.568 9.991 16.973 o
-5 1 -9 87.805 82.258 6.401 41.344 o
-5 1 -8 49.948 51.090 4.786 73.961 o
-5 1 -7 119.238 123.564 5.263 61.151 o
-5 1 -6 71.279 71.258 3.574 132.601 o
-5 1 -5 15.836 16.034 1.922 458.784 o
-5 1 -4 205.003 215.843 7.947 26.822 o
-5 1 -3 168.105 162.284 6.015 46.830 o
-5 1 -2 26.220 14.896 2.034 409.475 o
-5 1 -1 127.089 126.614 5.306 60.171 o
-5 1 0 97.365 103.937 4.584 80.627 o
-5 1 1 162.110 155.629 6.268 43.117 o
-5 1 2 349.091 331.606 17.768 5.366 o
-5 1 3 124.850 122.161 8.375 24.151 o
-5 1 4 206.610 202.685 12.204 11.374 o
-5 1 5 82.977 73.823 6.461 40.582 o
-5 1 6 93.153 90.993 6.999 34.579 o
-5 1 7 192.234 194.130 11.486 12.841 o
-5 1 8 112.667 121.324 8.734 22.206 o
-5 1 9 118.065 124.734 8.794 21.905 o
-5 1 10 73.459 75.079 6.700 37.735 o
-5 1 11 37.799 38.467 5.265 61.125 o
-5 2 -14 27.653 21.956 4.367 88.826 o
-5 2 -13 16.993 15.136 3.769 119.262 o
-5 2 -12 49.297 43.373 5.384 58.439 o
-5 2 -11 93.338 98.770 7.598 29.348 o
-5 2 -10 122.180 118.153 8.136 25.592 o
-5 2 -9 65.391 63.414 5.444 57.161 o
-5 2 -8 80.815 78.549 6.042 46.403 o
-5 2 -7 84.092 79.107 3.989 106.448 o
-5 2 -6 111.822 110.608 4.991 68.006 o
-5 2 -5 64.830 59.137 3.299 155.683 o
-5 2 -4 105.052 99.953 4.628 79.080 o
-5 2 -3 83.858 88.525 4.105 100.543 o
-5 2 -2 1.630 3.546 1.140 1304.280 o
-5 2 -1 10.772 13.204 1.710 579.525 o
-5 2 0 69.353 69.516 5.564 54.729 o
-5 2 1 62.740 61.798 5.444 57.161 o
-5 2 2 112.627 119.050 8.196 25.220 o
-5 2 3 75.620 81.002 6.401 41.344 o
-5 2 4 11.009 12.025 3.111 175.057 o
-5 2 5 50.839 53.244 5.623 53.571 o
-5 2 6 37.249 36.014 4.846 72.146 o
-5 2 7 37.312 36.852 4.906 70.397 o
-5 2 8 17.901 19.323 3.948 108.667 o
-5 2 9 42.645 46.005 5.444 57.161 o
-5 2 10 31.138 27.759 4.666 77.803 o
-5 2 11 14.707 15.195 3.889 112.036 o
-5 3 -13 67.968 70.114 6.999 34.579 o
-5 3 -12 58.267 59.465 6.222 43.764 o
-5 3 -11 80.350 86.207 7.119 33.426 o
-5 3 -10 108.289 111.931 7.957 26.760 o
-5 3 -9 106.825 100.445 7.179 32.872 o
-5 3 -8 78.426 77.472 6.222 43.764 o
-5 3 -7 166.700 168.645 9.692 18.037 o
-5 3 -6 186.214 180.181 7.083 33.766 o
-5 3 -5 131.986 129.586 5.626 53.520 o
-5 3 -4 211.616 196.400 8.465 23.641 o
-5 3 -3 185.488 194.877 7.521 29.950 o
-5 3 -2 38.032 45.840 2.944 195.402 o
-5 3 -1 45.269 43.436 2.888 203.057 o
-5 3 0 9.366 11.726 2.812 214.284 o
-5 3 1 57.595 59.346 5.444 57.161 o
-5 3 2 58.828 62.397 5.743 51.362 o
-5 3 3 77.030 79.865 6.581 39.120 o
-5 3 4 4.248 5.085 2.453 281.590 o
-5 3 5 0.944 0.538 2.213 345.765 o
-5 3 6 63.204 54.679 5.923 48.296 o
-5 3 7 110.890 115.341 8.734 22.206 o
-5 3 8 17.919 21.656 4.427 86.441 o
-5 3 9 24.071 25.485 5.025 67.085 o
-5 3 10 16.723 18.007 4.188 96.603 o
-5 3 11 7.193 6.282 3.290 156.480 o
-5 4 -12 72.048 76.515 7.179 32.872 o
-5 4 -11 48.321 49.355 5.623 53.571 o
-5 4 -10 61.185 65.388 6.162 44.618 o
-5 4 -9 52.975 50.791 5.324 59.759 o
-5 4 -8 50.905 49.714 5.145 64.001 o
-5 4 -7 154.098 165.653 9.811 17.599 o
-5 4 -6 180.623 173.557 7.148 33.161 o
-5 4 -5 170.005 171.727 6.959 34.986 o
-5 4 -4 168.506 172.924 7.041 34.173 o
-5 4 -3 390.321 375.063 13.129 9.829 o
-5 4 -2 256.478 270.245 9.804 17.624 o
-5 4 -1 79.293 77.725 4.165 97.664 o
-5 4 0 180.286 166.312 10.529 15.281 o
-5 4 1 107.214 102.898 7.538 29.816 o
-5 4 2 50.513 48.039 5.205 62.538 o
-5 4 3 95.149 95.180 7.598 29.348 o
-5 4 4 13.290 15.136 3.530 135.982 o
-5 4 5 0.918 -0.060 2.154 365.241 o
-5 4 6 54.790 49.535 5.803 50.309 o
-5 4 7 68.557 70.413 6.940 35.178 o
-5 4 8 49.931 52.107 6.222 43.764 o
-5 4 9 15.773 15.195 4.068 102.369 o
-5 4 10 12.581 11.367 3.769 119.262 o
-5 5 -11 21.404 24.648 4.487 84.152 o
-5 5 -10 54.469 46.603 5.743 51.362 o
-5 5 -9 43.321 44.509 5.205 62.538 o
-5 5 -8 26.194 25.366 4.128 99.423 o
-5 5 -7 53.057 53.004 5.265 61.125 o
-5 5 -6 113.224 126.828 8.196 25.220 o
-5 5 -5 63.520 61.220 3.827 115.685 o
-5 5 -4 75.566 74.334 4.143 98.697 o
-5 5 -3 59.600 59.228 3.674 125.524 o
-5 5 -2 77.266 77.641 4.281 92.437 o
-5 5 -1 33.566 38.946 4.666 77.803 o
-5 5 0 83.021 81.241 6.940 35.178 o
-5 5 1 192.173 182.763 11.666 12.448 o
-5 5 2 117.552 113.547 8.615 22.828 o
-5 5 3 102.040 94.403 8.016 26.362 o
-5 5 4 98.067 103.257 8.256 24.856 o
-5 5 5 9.201 8.076 3.171 168.513 o
-5 5 6 70.460 59.645 6.700 37.735 o
-5 5 7 86.252 97.155 8.375 24.151 o
-5 5 8 33.054 33.023 5.504 55.925 o
-5 5 9 29.480 27.280 5.384 58.439 o
-5 6 -10 11.177 11.666 3.530 135.982 o
-5 6 -9 16.332 15.136 3.589 131.487 o
-5 6 -8 19.377 17.469 3.649 127.211 o
-5 6 -7 8.528 8.555 2.931 197.148 o
-5 6 -6 47.002 50.133 5.265 61.125 o
-5 6 -5 62.820 64.251 5.623 53.571 o
-5 6 -4 61.641 58.530 3.847 114.488 o
-5 6 -3 61.824 56.911 3.899 111.434 o
-5 6 -2 53.698 62.292 4.012 105.256 o
-5 6 -1 49.983 50.970 5.384 58.439 o
-5 6 0 54.067 55.278 5.743 51.362 o
-5 6 1 108.473 107.325 8.256 24.856 o
-5 6 2 73.998 71.610 6.940 35.178 o
-5 6 3 27.608 33.920 5.205 62.538 o
-5 6 4 24.584 31.468 5.085 65.516 o
-5 6 5 28.434 29.793 5.085 65.516 o
-5 6 6 28.483 28.297 5.444 57.161 o
-5 6 7 51.652 49.535 6.521 39.841 o
-5 6 8 29.861 27.579 5.384 58.439 o
-5 7 -8 29.083 32.544 5.205 62.538 o
-5 7 -7 20.954 17.648 3.889 112.036 o
-5 7 -6 56.587 60.363 6.042 46.403 o
-5 7 -5 65.434 73.883 6.401 41.344 o
-5 7 -4 28.655 26.906 3.099 176.439 o
-5 7 -3 63.520 68.125 4.397 87.621 o
-5 7 -2 66.507 76.096 4.596 80.187 o
-5 7 -1 60.103 62.157 6.282 42.934 o
-5 7 0 46.995 51.868 5.923 48.296 o
-5 7 1 48.740 47.501 5.863 49.287 o
-5 7 2 70.864 72.148 7.239 32.331 o
-5 7 3 42.112 42.475 5.743 51.362 o
-5 7 4 5.233 3.410 2.872 205.448 o
-5 7 5 19.971 21.058 4.666 77.803 o
-5 7 6 17.875 16.930 4.427 86.441 o
-5 7 7 38.047 36.134 6.102 45.497 o
-5 8 -5 72.025 73.225 6.700 37.735 o
-5 8 -4 37.445 41.339 5.025 67.085 o
-5 8 -3 9.622 10.535 2.255 333.130 o
-5 8 -2 21.391 21.823 2.915 199.348 o
-5 8 -1 32.193 29.673 5.265 61.125 o
-5 8 0 24.528 22.733 4.666 77.803 o
-5 8 1 40.254 39.005 5.743 51.362 o
-5 8 2 27.547 26.741 5.085 65.516 o
-5 8 3 43.260 46.603 6.282 42.934 o
-5 8 4 27.880 24.169 4.965 68.711 o
-4 -11 -8 29.413 31.169 5.564 54.729 o
-4 -11 -7 13.511 13.879 3.948 108.667 o
-4 -11 -6 8.224 6.760 3.171 168.513 o
-4 -11 -5 23.070 21.656 4.666 77.803 o
-4 -11 -4 2.987 2.632 2.752 223.702 o
-4 -11 -3 4.832 5.982 3.111 175.057 o
-4 -11 -2 12.077 12.264 3.709 123.141 o
-4 -11 -1 33.568 29.374 5.085 65.516 o
-4 -11 0 41.893 46.902 6.102 45.497 o
-4 -11 1 48.372 56.893 6.461 40.582 o
-4 -11 2 64.767 71.071 7.239 32.331 o
-4 -10 -10 61.690 63.213 4.438 86.032 o
-4 -10 -9 66.647 72.743 4.676 77.490 o
-4 -10 -8 38.576 39.383 3.493 138.881 o
-4 -10 -7 69.275 71.490 7.239 32.331 o
-4 -10 -6 78.036 80.404 7.538 29.816 o
-4 -10 -5 62.015 58.389 6.341 42.128 o
-4 -10 -4 87.577 86.506 7.777 28.009 o
-4 -10 -3 48.813 49.594 5.743 51.362 o
-4 -10 -2 27.239 23.451 4.367 88.826 o
-4 -10 -1 33.789 31.109 4.666 77.803 o
-4 -10 0 14.777 13.939 3.410 145.692 o
-4 -10 1 10.655 16.093 3.769 119.262 o
-4 -10 2 12.910 11.965 3.350 150.942 o
-4 -10 3 26.415 27.160 4.606 79.837 o
-4 -10 4 39.276 40.381 5.265 61.125 o
-4 -10 5 31.063 31.238 3.426 144.293 o
-4 -9 -12 22.716 25.834 3.172 168.393 o
-4 -9 -11 29.829 28.144 3.117 174.405 o
-4 -9 -10 65.761 66.847 4.318 90.867 o
-4 -9 -9 75.630 85.010 4.853 71.944 o
-4 -9 -8 79.529 87.354 4.826 72.750 o
-4 -9 -7 115.210 113.064 5.499 56.020 o
-4 -9 -6 89.810 97.514 7.897 27.167 o
-4 -9 -5 61.940 62.576 6.162 44.618 o
-4 -9 -4 124.700 117.315 8.675 22.514 o
-4 -9 -3 143.167 144.117 9.751 17.816 o
-4 -9 -2 96.376 96.676 7.598 29.348 o
-4 -9 -1 96.731 89.437 7.358 31.288 o
-4 -9 0 54.041 48.996 5.504 55.925 o
-4 -9 1 40.955 35.954 4.666 77.803 o
-4 -9 2 12.752 9.452 2.931 197.148 o
-4 -9 3 33.158 32.784 4.427 86.441 o
-4 -9 4 71.176 69.103 4.442 85.869 o
-4 -9 5 36.648 33.770 3.292 156.298 o
-4 -9 6 13.515 15.255 3.589 131.487 o
-4 -9 7 48.616 53.423 6.042 46.403 o
-4 -8 -13 4.646 4.666 2.453 281.590 o
-4 -8 -12 12.408 15.490 2.410 291.654 o
-4 -8 -11 34.028 38.168 3.372 149.037 o
-4 -8 -10 53.414 54.777 3.765 119.534 o
-4 -8 -9 78.807 81.409 4.540 82.195 o
-4 -8 -8 106.633 108.832 5.178 63.183 o
-4 -8 -7 147.082 142.372 6.201 44.059 o
-4 -8 -6 160.962 149.262 9.931 17.178 o
-4 -8 -5 204.448 201.617 8.041 26.203 o
-4 -8 -4 139.423 130.596 9.033 20.760 o
-4 -8 -3 196.353 187.370 11.307 13.251 o
-4 -8 -2 319.781 323.649 17.170 5.747 o
-4 -8 -1 370.058 376.415 19.383 4.509 o
-4 -8 0 56.644 65.747 6.102 45.497 o
-4 -8 1 114.593 121.563 8.675 22.514 o
-4 -8 2 188.813 192.574 11.426 12.975 o
-4 -8 3 64.137 65.930 4.101 100.745 o
-4 -8 4 75.046 75.251 4.526 82.711 o
-4 -8 5 126.469 133.060 6.384 41.570 o
-4 -8 6 14.115 15.818 2.430 286.923 o
-4 -8 7 23.773 23.331 4.128 99.423 o
-4 -8 8 80.452 81.600 7.179 32.872 o
-4 -7 -14 55.365 61.260 6.102 45.497 o
-4 -7 -13 29.857 27.759 4.248 93.901 o
-4 -7 -12 27.684 28.120 2.982 190.503 o
-4 -7 -11 31.859 37.896 3.189 166.629 o
-4 -7 -10 29.367 29.625 2.788 217.933 o
-4 -7 -9 18.299 18.745 2.322 314.205 o
-4 -7 -8 68.549 66.737 3.705 123.441 o
-4 -7 -7 7.645 8.805 1.558 697.622 o
-4 -7 -6 0.841 0.650 0.598 4733.530 o
-4 -7 -5 27.432 24.035 2.097 385.212 o
-4 -7 -4 142.476 141.422 6.033 46.544 o
-4 -7 -3 98.153 91.711 7.179 32.872 o
-4 -7 -2 168.642 157.757 9.632 18.261 o
-4 -7 -1 225.190 226.794 13.401 9.434 o
-4 -7 0 206.291 208.488 12.503 10.837 o
-4 -7 1 131.221 132.690 8.734 22.206 o
-4 -7 2 133.200 138.079 6.154 44.733 o
-4 -7 3 219.645 214.025 8.478 23.571 o
-4 -7 4 160.859 161.692 6.954 35.033 o
-4 -7 5 48.764 47.803 3.426 144.359 o
-4 -7 6 40.316 40.678 3.212 164.244 o
-4 -7 7 7.576 8.307 1.898 470.288 o
-4 -7 8 13.974 13.700 3.290 156.480 o
-4 -7 9 18.442 13.580 3.350 150.942 o
-4 -7 10 15.742 14.717 3.649 127.211 o
-4 -6 -15 83.599 94.104 7.598 29.348 o
-4 -6 -14 50.251 55.337 5.683 52.449 o
-4 -6 -13 10.859 13.221 3.111 175.057 o
-4 -6 -12 86.659 90.993 6.700 37.735 o
-4 -6 -11 65.269 65.357 3.955 108.300 o
-4 -6 -10 74.761 74.772 4.182 96.859 o
-4 -6 -9 47.489 48.173 3.231 162.287 o
-4 -6 -8 271.254 260.543 9.615 18.324 o
-4 -6 -7 286.948 276.830 9.908 17.256 o
-4 -6 -6 92.598 83.575 6.401 41.344 o
-4 -6 -5 126.112 130.284 6.999 34.579 o
-4 -6 -4 463.624 465.255 15.180 7.352 o
-4 -6 -3 156.795 156.286 5.846 49.569 o
-4 -6 -2 399.891 386.405 19.622 4.400 o
-4 -6 -1 94.154 89.497 6.461 40.582 o
-4 -6 1 27.851 28.117 3.649 127.211 o
-4 -6 2 106.348 102.805 4.898 70.607 o
-4 -6 3 21.442 22.346 2.280 325.998 o
-4 -6 4 54.499 52.018 3.404 146.243 o
-4 -6 5 40.708 43.554 3.194 166.103 o
-4 -6 6 40.493 40.676 3.130 172.977 o
-4 -6 7 30.625 32.171 2.873 205.269 o
-4 -6 8 52.262 57.611 5.564 54.729 o
-4 -6 9 23.925 24.707 4.128 99.423 o
-4 -6 10 53.549 52.765 5.743 51.362 o
-4 -6 11 27.302 32.724 4.846 72.146 o
-4 -5 -15 26.745 24.169 4.248 93.901 o
-4 -5 -14 29.670 20.460 3.769 119.262 o
-4 -5 -13 24.501 24.289 3.948 108.667 o
-4 -5 -12 88.362 86.267 6.641 38.418 o
-4 -5 -11 122.630 122.599 5.477 56.474 o
-4 -5 -10 167.968 168.507 6.789 36.752 o
-4 -5 -9 124.159 117.797 5.203 62.588 o
-4 -5 -8 224.028 209.150 7.907 27.094 o
-4 -5 -7 150.055 142.647 5.807 50.235 o
-4 -5 -6 230.284 234.085 8.549 23.182 o
-4 -5 -5 151.558 152.619 6.209 43.950 o
-4 -5 -4 166.624 161.216 6.448 40.747 o
-4 -5 -3 485.341 475.282 15.265 7.270 o
-4 -5 -2 723.683 699.760 22.647 3.303 o
-4 -5 -1 377.447 350.690 18.306 5.055 o
-4 -5 0 136.859 135.921 8.734 22.206 o
-4 -5 1 177.793 178.695 7.267 32.082 o
-4 -5 2 425.183 415.241 14.314 8.269 o
-4 -5 3 254.245 251.056 9.177 20.116 o
-4 -5 4 133.126 124.996 5.644 53.175 o
-4 -5 5 56.360 55.250 3.404 146.243 o
-4 -5 6 51.834 53.005 3.363 149.807 o
-4 -5 7 43.303 46.661 3.236 161.789 o
-4 -5 8 34.196 34.459 4.248 93.901 o
-4 -5 9 41.738 41.697 4.726 75.846 o
-4 -5 10 12.265 18.306 3.589 131.487 o
-4 -5 11 32.194 34.997 4.666 77.803 o
-4 -4 -16 19.562 21.597 4.188 96.603 o
-4 -4 -15 29.830 31.288 4.846 72.146 o
-4 -4 -14 8.587 9.692 2.991 189.341 o
-4 -4 -13 16.831 17.588 3.350 150.942 o
-4 -4 -12 11.869 10.290 2.752 223.702 o
-4 -4 -11 40.909 44.390 4.547 81.952 o
-4 -4 -10 49.696 54.009 3.165 169.113 o
-4 -4 -9 122.898 123.457 5.201 62.625 o
-4 -4 -8 169.365 169.826 6.704 37.694 o
-4 -4 -7 133.787 136.243 5.582 54.371 o
-4 -4 -6 103.279 103.928 4.517 83.036 o
-4 -4 -5 216.476 217.822 7.833 27.614 o
-4 -4 -4 388.830 408.508 13.778 8.924 o
-4 -4 -3 454.148 453.895 14.761 7.776 o
-4 -4 -2 612.920 594.182 18.797 4.795 o
-4 -4 -1 375.260 371.093 12.314 11.171 o
-4 -4 0 278.740 285.841 14.896 7.635 o
-4 -4 1 417.017 405.768 13.803 8.891 o
-4 -4 2 424.938 414.522 14.209 8.391 o
-4 -4 3 567.754 538.438 17.723 5.393 o
-4 -4 4 365.517 349.395 11.990 11.784 o
-4 -4 5 133.397 130.472 5.687 52.387 o
-4 -4 6 53.029 51.950 3.256 159.755 o
-4 -4 7 77.718 76.457 4.040 103.811 o
-4 -4 8 20.004 22.631 2.430 286.923 o
-4 -4 9 24.039 23.426 3.096 176.712 o
-4 -4 10 26.370 29.194 4.188 96.603 o
-4 -4 11 2.831 3.350 2.154 365.241 o
-4 -4 12 5.846 3.829 2.453 281.590 o
-4 -3 -16 39.903 44.150 5.743 51.362 o
-4 -3 -15 62.810 67.542 6.461 40.582 o
-4 -3 -14 20.010 19.622 3.829 115.565 o
-4 -3 -13 30.271 29.493 4.367 88.826 o
-4 -3 -12 3.596 3.649 2.213 345.765 o
-4 -3 -11 12.834 11.965 2.812 214.284 o
-4 -3 -10 47.227 51.066 2.960 193.368 o
-4 -3 -9 65.814 69.575 3.432 143.838 o
-4 -3 -8 34.466 34.013 2.364 303.041 o
-4 -3 -7 62.233 54.120 3.023 185.428 o
-4 -3 -4 127.038 133.077 5.178 63.187 o
-4 -3 -3 478.241 467.626 15.299 7.238 o
-4 -3 -2 341.720 321.805 10.884 14.300 o
-4 -3 -1 182.412 183.000 6.830 36.319 o
-4 -3 0 223.724 226.076 11.546 12.708 o
-4 -3 1 170.493 161.526 6.377 41.657 o
-4 -3 2 483.294 491.490 16.325 6.357 o
-4 -3 3 664.013 667.057 21.444 3.684 o
-4 -3 4 151.397 149.233 5.934 48.106 o
-4 -3 5 112.665 107.022 4.814 73.115 o
-4 -3 6 371.496 362.919 12.645 10.595 o
-4 -3 7 102.345 95.526 4.648 78.415 o
-4 -3 8 165.099 157.640 6.493 40.180 o
-4 -3 9 93.844 89.796 6.641 38.418 o
-4 -3 10 149.381 158.534 9.512 18.724 o
-4 -3 11 66.065 69.456 6.162 44.618 o
-4 -3 12 5.170 6.042 2.632 244.500 o
-4 -3 13 14.033 15.016 3.589 131.487 o
-4 -2 -16 53.047 50.432 6.042 46.403 o
-4 -2 -15 62.588 65.926 6.401 41.344 o
-4 -2 -14 58.645 60.243 5.982 47.335 o
-4 -2 -13 33.553 36.792 4.726 75.846 o
-4 -2 -12 12.542 12.144 2.872 205.448 o
-4 -2 -11 48.714 56.534 5.145 64.001 o
-4 -2 -10 187.406 177.917 10.409 15.635 o
-4 -2 -9 68.073 67.226 3.441 143.077 o
-4 -2 -8 68.176 76.019 3.644 127.559 o
-4 -2 -7 51.224 53.503 3.045 182.726 o
-4 -2 -6 210.438 212.977 7.486 30.230 o
-4 -2 -5 142.749 156.403 5.687 52.387 o
-4 -2 -4 115.784 116.303 4.451 85.523 o
-4 -2 -3 351.235 353.396 11.475 12.865 o
-4 -2 -2 642.149 644.670 19.869 4.292 o
-4 -2 -1 132.142 137.190 6.162 44.618 o
-4 -2 0 249.423 257.810 11.905 11.953 o
-4 -2 1 79.262 68.533 3.287 156.826 o
-4 -2 2 180.559 176.804 7.957 26.760 o
-4 -2 3 401.664 395.437 13.403 9.431 o
-4 -2 4 632.730 617.002 19.835 4.306 o
-4 -2 5 3.706 3.642 1.164 1249.930 o
-4 -2 6 57.125 48.890 3.032 184.320 o
-4 -2 7 200.486 197.827 7.566 29.591 o
-4 -2 8 135.516 138.082 5.920 48.331 o
-4 -2 9 62.333 61.817 3.657 126.641 o
-4 -2 10 60.806 56.110 10.589 15.109 o
-4 -2 11 65.815 68.319 5.743 51.362 o
-4 -2 12 35.408 39.305 4.846 72.146 o
-4 -2 13 7.539 9.213 2.991 189.341 o
-4 -1 -16 51.142 57.132 6.521 39.841 o
-4 -1 -15 60.544 61.021 6.282 42.934 o
-4 -1 -14 86.610 80.942 6.880 35.792 o
-4 -1 -13 37.140 31.946 4.726 75.846 o
-4 -1 -12 28.317 29.134 4.128 99.423 o
-4 -1 -11 120.207 116.239 7.658 28.891 o
-4 -1 -10 194.928 195.326 10.888 14.290 o
-4 -1 -9 136.334 132.279 5.298 60.357 o
-4 -1 -8 49.390 45.937 2.734 226.634 o
-4 -1 -7 0.439 0.239 0.861 2282.760 o
-4 -1 -6 72.492 72.017 3.508 137.662 o
-4 -1 -5 103.189 103.686 4.251 93.738 o
-4 -1 -4 121.180 130.288 5.114 64.781 o
-4 -1 -3 124.207 131.697 5.129 64.395 o
-4 -1 -2 429.681 425.204 13.970 8.680 o
-4 -1 -1 278.452 293.036 9.272 19.707 o
-4 -1 0 256.812 256.590 8.950 21.150 o
-4 -1 1 276.906 284.645 7.847 27.512 o
-4 -1 2 314.719 328.617 8.939 21.202 o
-4 -1 3 355.241 359.357 9.659 18.160 o
-4 -1 4 428.269 413.359 13.840 8.844 o
-4 -1 5 264.147 258.313 9.246 19.818 o
-4 -1 6 252.044 243.466 9.254 19.784 o
-4 -1 7 49.415 50.261 3.126 173.384 o
-4 -1 8 189.987 189.378 7.413 30.828 o
-4 -1 9 54.815 59.541 3.602 130.585 o
-4 -1 10 36.399 36.841 2.980 190.733 o
-4 -1 11 11.338 10.409 2.692 233.754 o
-4 -1 12 3.761 2.572 1.974 434.667 o
-4 -1 13 20.480 19.742 3.709 123.141 o
-4 0 -16 21.228 17.170 3.948 108.667 o
-4 0 -15 58.722 55.756 6.162 44.618 o
-4 0 -14 55.521 60.841 5.982 47.335 o
-4 0 -13 12.365 15.375 3.410 145.692 o
-4 0 -12 28.678 23.870 3.829 115.565 o
-4 0 -11 92.158 95.121 6.641 38.418 o
-4 0 -10 94.529 96.556 6.820 36.423 o
-4 0 -9 250.096 262.330 13.101 9.870 o
-4 0 -8 59.267 57.371 4.487 84.152 o
-4 0 -7 25.017 22.309 1.908 465.489 o
-4 0 -6 73.203 65.167 3.192 166.278 o
-4 0 -5 253.116 271.542 8.989 20.965 o
-4 0 -4 97.035 101.021 4.459 85.200 o
-4 0 -3 210.439 202.996 7.163 33.021 o
-4 0 -2 365.176 371.924 17.558 5.495 o
-4 0 -1 477.410 504.113 15.875 6.722 o
-4 0 0 101.345 93.081 3.694 124.142 o
-4 0 1 521.735 492.905 12.705 10.495 o
-4 0 2 721.945 734.891 22.617 3.312 o
-4 0 3 622.476 639.542 20.120 4.185 o
-4 0 4 386.089 381.266 12.731 10.453 o
-4 0 5 479.455 492.340 15.673 6.896 o
-4 0 6 1.835 1.978 1.029 1599.310 o
-4 0 7 78.404 72.394 5.265 61.125 o
-4 0 8 163.846 167.064 6.712 37.608 o
-4 0 9 23.295 23.743 2.419 289.541 o
-4 0 10 24.086 21.773 2.479 275.743 o
-4 0 11 41.535 40.583 3.172 168.393 o
-4 0 12 1.872 3.769 2.154 365.241 o
-4 0 13 10.214 11.486 3.051 181.989 o
-4 1 -15 30.298 33.203 5.205 62.538 o
-4 1 -14 33.563 26.921 4.606 79.837 o
-4 1 -13 4.369 3.889 2.513 268.341 o
-4 1 -12 2.465 3.948 2.213 345.765 o
-4 1 -11 156.277 152.612 9.751 17.816 o
-4 1 -10 38.134 41.339 4.427 86.441 o
-4 1 -9 39.984 41.398 4.248 93.901 o
-4 1 -8 180.595 185.399 6.886 35.733 o
-4 1 -7 59.076 62.257 3.056 181.375 o
-4 1 -6 44.016 44.342 2.576 255.244 o
-4 1 -5 534.605 523.140 16.815 5.992 o
-4 1 -4 146.870 146.771 5.309 60.110 o
-4 1 -3 58.906 63.370 7.059 33.995 o
-4 1 -2 85.283 85.940 3.680 125.127 o
-4 1 -1 259.988 276.029 13.221 9.692 o
-4 1 0 21.733 20.759 3.171 168.513 o
-4 1 2 407.612 395.232 13.098 9.875 o
-4 1 3 621.980 642.592 20.406 4.068 o
-4 1 4 503.513 507.169 16.555 6.181 o
-4 1 5 577.969 581.587 19.289 4.553 o
-4 1 6 167.364 162.607 6.226 43.710 o
-4 1 7 374.732 381.422 12.985 10.047 o
-4 1 8 731.878 708.131 23.043 3.191 o
-4 1 9 396.697 392.860 13.543 9.236 o
-4 1 10 89.437 87.382 4.505 83.473 o
-4 1 11 72.286 73.894 4.214 95.384 o
-4 1 12 49.074 43.911 4.547 81.952 o
-4 1 13 18.273 21.776 3.829 115.565 o
-4 2 -15 101.506 109.359 8.734 22.206 o
-4 2 -14 69.775 70.832 6.940 35.178 o
-4 2 -13 36.423 35.057 5.085 65.516 o
-4 2 -11 74.990 73.823 6.102 45.497 o
-4 2 -10 87.318 87.762 6.641 38.418 o
-4 2 -9 64.015 62.337 5.085 65.516 o
-4 2 -8 4.463 5.863 1.974 434.667 o
-4 2 -6 31.335 34.163 2.249 335.033 o
-4 2 -5 150.083 141.814 5.943 47.960 o
-4 2 -4 87.462 87.742 3.931 109.610 o
-4 2 -3 10.567 17.229 2.872 205.448 o
-4 2 -2 114.364 105.407 4.784 74.009 o
-4 2 -1 138.441 143.787 5.621 53.625 o
-4 2 0 8.980 6.940 2.094 386.410 o
-4 2 1 55.739 57.970 5.145 64.001 o
-4 2 2 130.785 129.479 4.825 72.764 o
-4 2 3 110.534 106.873 4.170 97.428 o
-4 2 4 164.514 157.647 5.907 48.552 o
-4 2 5 111.590 117.570 4.785 73.986 o
-4 2 7 47.028 46.309 2.797 216.557 o
-4 2 8 257.324 260.077 9.538 18.623 o
-4 2 9 139.463 141.115 6.071 45.964 o
-4 2 10 68.311 67.370 3.909 110.849 o
-4 2 11 51.142 50.883 3.843 114.696 o
-4 2 12 56.639 56.355 6.999 34.579 o
-4 3 -14 100.775 104.812 8.316 24.499 o
-4 3 -13 73.139 79.207 6.999 34.579 o
-4 3 -12 84.631 83.694 7.119 33.426 o
-4 3 -11 75.980 75.319 6.401 41.344 o
-4 3 -10 158.282 142.143 9.093 20.488 o
-4 3 -9 101.380 100.804 6.940 35.178 o
-4 3 -8 72.411 68.918 5.444 57.161 o
-4 3 -7 9.048 7.286 1.618 646.831 o
-4 3 -6 22.369 21.268 2.025 413.043 o
-4 3 -5 99.009 101.229 4.526 82.711 o
-4 3 -4 172.795 174.604 6.704 37.694 o
-4 3 -3 102.478 103.210 4.493 83.916 o
-4 3 -2 82.648 83.804 4.002 105.774 o
-4 3 -1 139.736 143.100 8.914 21.321 o
-4 3 0 41.612 48.039 4.547 81.952 o
-4 3 1 48.425 48.458 4.666 77.803 o
-4 3 2 210.852 189.045 11.606 12.577 o
-4 3 3 131.364 141.425 8.615 22.828 o
-4 3 4 91.032 97.573 6.940 35.178 o
-4 3 5 39.701 44.509 4.906 70.397 o
-4 3 6 29.741 30.451 4.068 102.369 o
-4 3 7 93.878 89.976 6.760 37.071 o
-4 3 8 88.389 92.668 7.299 31.803 o
-4 3 9 93.944 92.548 7.358 31.288 o
-4 3 10 40.609 40.860 5.085 65.516 o
-4 3 11 19.855 19.443 4.008 105.447 o
-4 3 12 23.235 17.947 3.948 108.667 o
-4 4 -14 30.854 37.689 5.623 53.571 o
-4 4 -13 68.228 72.567 6.700 37.735 o
-4 4 -12 117.570 114.145 8.375 24.151 o
-4 4 -11 99.834 108.581 7.897 27.167 o
-4 4 -10 123.494 124.554 8.375 24.151 o
-4 4 -9 128.629 133.707 8.495 23.475 o
-4 4 -8 84.853 85.130 6.341 42.128 o
-4 4 -7 87.278 83.156 6.102 45.497 o
-4 4 -6 54.635 53.312 3.165 169.113 o
-4 4 -5 65.127 65.666 3.596 131.032 o
-4 4 -4 176.177 173.832 6.726 37.452 o
-4 4 -3 218.805 217.126 7.928 26.957 o
-4 4 -2 36.021 37.749 4.008 105.447 o
-4 4 -1 140.826 142.023 8.734 22.206 o
-4 4 0 109.525 104.992 6.999 34.579 o
-4 4 1 164.616 156.500 9.153 20.221 o
-4 4 2 240.899 246.656 13.221 9.692 o
-4 4 3 256.566 247.972 13.640 9.106 o
-4 4 4 85.480 83.275 6.641 38.418 o
-4 4 5 35.406 38.826 4.666 77.803 o
-4 4 6 17.993 15.375 3.350 150.942 o
-4 4 7 131.946 140.946 9.153 20.221 o
-4 4 8 27.922 25.545 4.606 79.837 o
-4 4 9 120.254 121.384 9.093 20.488 o
-4 4 10 56.104 57.790 6.042 46.403 o
-4 4 11 10.919 13.879 3.769 119.262 o
-4 4 12 13.140 11.666 3.709 123.141 o
-4 5 -13 3.684 3.111 2.752 223.702 o
-4 5 -12 3.420 4.427 2.752 223.702 o
-4 5 -11 38.769 42.356 5.205 62.538 o
-4 5 -10 77.333 78.789 6.641 38.418 o
-4 5 -9 137.330 133.647 8.854 21.610 o
-4 5 -8 70.912 74.960 6.042 46.403 o
-4 5 -7 82.069 87.762 6.461 40.582 o
-4 5 -6 171.931 170.439 9.931 17.178 o
-4 5 -5 146.089 142.016 6.049 46.303 o
-4 5 -4 135.899 129.384 5.710 51.954 o
-4 5 -3 93.123 87.799 4.876 71.264 o
-4 5 -1 48.127 47.321 4.906 70.397 o
-4 5 0 48.214 48.517 4.846 72.146 o
-4 5 1 69.670 72.686 5.923 48.296 o
-4 5 2 97.969 87.822 6.999 34.579 o
-4 5 3 262.938 253.535 14.298 8.287 o
-4 5 4 179.800 168.764 10.589 15.109 o
-4 5 5 190.583 188.506 11.606 12.577 o
-4 5 6 122.505 124.016 8.734 22.206 o
-4 5 7 151.395 142.322 9.931 17.178 o
-4 5 8 159.658 156.500 10.529 15.281 o
-4 5 9 92.228 105.171 8.316 24.499 o
-4 5 10 58.388 57.850 6.401 41.344 o
-4 5 11 39.018 40.561 5.982 47.335 o
-4 5 12 17.018 19.862 4.487 84.152 o
-4 6 -11 6.834 5.324 2.812 214.284 o
-4 6 -10 42.921 42.176 5.085 65.516 o
-4 6 -9 38.361 39.663 4.786 73.961 o
-4 6 -8 22.414 21.118 3.530 135.982 o
-4 6 -7 10.157 11.546 2.872 205.448 o
-4 6 -6 7.287 8.914 2.453 281.590 o
-4 6 -5 33.164 32.368 2.769 221.012 o
-4 6 -4 120.067 118.685 5.537 55.253 o
-4 6 -3 133.292 135.440 6.090 45.682 o
-4 6 -2 33.276 32.185 4.068 102.369 o
-4 6 0 48.837 44.509 5.085 65.516 o
-4 6 1 66.616 61.858 5.803 50.309 o
-4 6 2 8.937 9.512 2.872 205.448 o
-4 6 3 12.434 14.836 3.530 135.982 o
-4 6 4 111.695 126.708 8.555 23.148 o
-4 6 5 10.214 12.743 3.231 162.329 o
-4 6 6 37.899 31.288 4.786 73.961 o
-4 6 7 67.982 72.926 6.820 36.423 o
-4 6 8 37.613 39.484 5.444 57.161 o
-4 6 9 59.555 60.961 6.700 37.735 o
-4 6 10 56.294 63.414 6.820 36.423 o
-4 6 11 17.613 17.469 4.427 86.441 o
-4 7 -10 70.677 70.832 6.820 36.423 o
-4 7 -9 56.843 55.337 6.042 46.403 o
-4 7 -8 51.451 48.338 5.324 59.759 o
-4 7 -7 35.443 35.775 4.606 79.837 o
-4 7 -6 58.368 57.431 5.564 54.729 o
-4 7 -5 76.713 77.712 6.102 45.497 o
-4 7 -4 86.431 88.262 4.717 76.154 o
-4 7 -3 99.737 99.486 5.054 66.326 o
-4 7 -2 160.525 147.646 9.512 18.724 o
-4 7 -1 26.975 25.844 4.128 99.423 o
-4 7 0 67.509 78.549 6.880 35.792 o
-4 7 1 123.792 124.973 8.974 21.038 o
-4 7 2 80.214 79.267 7.119 33.426 o
-4 7 3 28.999 28.656 4.726 75.846 o
-4 7 4 20.346 21.776 4.248 93.901 o
-4 7 5 15.300 17.529 3.829 115.565 o
-4 7 6 13.616 14.238 3.829 115.565 o
-4 7 7 30.807 31.647 5.145 64.001 o
-4 7 8 57.332 61.140 6.760 37.071 o
-4 7 9 37.077 41.937 6.102 45.497 o
-4 7 10 27.544 27.579 5.265 61.125 o
-4 8 -8 51.316 55.816 5.982 47.335 o
-4 8 -7 29.841 28.058 4.547 81.952 o
-4 8 -6 61.458 65.448 6.042 46.403 o
-4 8 -5 64.946 62.816 5.863 49.287 o
-4 8 -4 63.180 58.171 4.354 89.352 o
-4 8 -3 20.458 25.083 4.936 69.547 o
-4 8 -1 61.129 60.004 5.923 48.296 o
-4 8 0 30.780 27.998 4.606 79.837 o
-4 8 1 84.748 84.113 7.598 29.348 o
-4 8 2 92.979 96.257 8.256 24.856 o
-4 8 3 45.272 46.842 5.982 47.335 o
-4 8 4 95.249 100.924 8.854 21.610 o
-4 8 5 58.100 62.337 6.940 35.178 o
-4 8 6 20.972 20.699 4.547 81.952 o
-4 8 7 21.318 19.443 4.547 81.952 o
-4 8 8 32.526 31.826 5.683 52.449 o
-4 9 -5 91.869 99.368 7.658 28.891 o
-4 9 -4 58.211 58.748 5.803 50.309 o
-4 9 -3 48.491 47.872 3.886 112.208 o
-4 9 -2 42.753 39.663 5.504 55.925 o
-4 9 -1 44.894 48.936 5.743 51.362 o
-4 9 0 52.973 53.124 6.222 43.764 o
-4 9 1 103.994 110.137 8.794 21.905 o
-4 9 2 73.840 90.514 8.016 26.362 o
-4 9 3 67.155 65.687 6.999 34.579 o
-4 9 4 57.468 61.679 6.999 34.579 o
-4 9 5 53.802 57.730 6.940 35.178 o
-4 9 6 23.156 22.793 5.145 64.001 o
-3 -12 -4 43.260 44.390 6.042 46.403 o
-3 -12 -3 43.190 44.150 5.923 48.296 o
-3 -12 -2 56.215 60.183 6.880 35.792 o
-3 -12 -1 48.091 52.346 6.461 40.582 o
-3 -11 -9 34.009 40.216 3.719 122.455 o
-3 -11 -8 21.165 21.006 2.831 211.363 o
-3 -11 -7 29.541 30.593 3.205 164.939 o
-3 -11 -6 50.146 51.854 3.823 115.895 o
-3 -11 -5 22.157 16.930 4.008 105.447 o
-3 -11 -4 8.367 8.435 3.111 175.057 o
-3 -11 -3 29.682 25.724 4.666 77.803 o
-3 -11 -2 25.803 24.289 4.547 81.952 o
-3 -11 -1 50.278 53.722 5.982 47.335 o
-3 -11 0 52.365 52.406 5.982 47.335 o
-3 -11 1 41.014 43.133 5.564 54.729 o
-3 -11 2 51.678 55.397 6.162 44.618 o
-3 -11 3 64.918 72.806 6.880 35.792 o
-3 -11 4 56.249 63.892 6.581 39.120 o
-3 -10 -11 59.639 65.767 4.633 78.942 o
-3 -10 -10 47.041 47.835 3.942 109.046 o
-3 -10 -9 76.527 75.125 4.787 73.931 o
-3 -10 -8 58.333 58.680 4.109 100.342 o
-3 -10 -7 61.974 66.415 4.147 98.506 o
-3 -10 -6 69.687 69.587 4.173 97.270 o
-3 -10 -5 103.705 109.959 5.429 57.471 o
-3 -10 -4 55.083 57.252 5.863 49.287 o
-3 -10 -3 57.490 56.355 5.923 48.296 o
-3 -10 -2 78.019 79.686 6.999 34.579 o
-3 -10 -1 150.684 156.381 10.170 16.379 o
-3 -10 0 105.272 107.923 8.196 25.220 o
-3 -10 1 14.033 11.486 3.171 168.513 o
-3 -10 2 10.190 11.426 3.231 162.329 o
-3 -10 3 22.030 21.058 4.068 102.369 o
-3 -10 4 16.075 13.101 3.410 145.692 o
-3 -10 5 15.460 13.405 2.452 281.674 o
-3 -10 6 18.690 17.768 3.709 123.141 o
-3 -9 -13 49.564 55.098 5.863 49.287 o
-3 -9 -12 14.502 16.555 2.557 259.123 o
-3 -9 -11 23.406 21.472 2.777 219.743 o
-3 -9 -10 54.059 60.315 4.037 103.936 o
-3 -9 -9 67.544 74.346 4.514 83.127 o
-3 -9 -8 70.293 69.977 4.182 96.857 o
-3 -9 -7 78.323 77.246 4.436 86.101 o
-3 -9 -6 91.762 90.012 4.681 77.300 o
-3 -9 -5 50.871 53.878 3.464 141.171 o
-3 -9 -4 120.647 111.632 8.016 26.362 o
-3 -9 -3 99.367 93.434 4.585 80.575 o
-3 -9 -2 80.783 82.258 6.700 37.735 o
-3 -9 -1 256.556 241.331 13.281 9.605 o
-3 -9 0 181.512 180.550 10.828 14.449 o
-3 -9 1 27.529 26.383 3.948 108.667 o
-3 -9 2 52.349 45.467 5.085 65.516 o
-3 -9 3 62.869 62.576 5.683 52.449 o
-3 -9 4 72.374 70.317 4.292 91.953 o
-3 -9 5 52.871 48.638 3.596 131.032 o
-3 -9 6 46.146 48.099 5.145 64.001 o
-3 -9 7 11.409 9.931 3.051 181.989 o
-3 -9 8 32.671 31.109 5.025 67.085 o
-3 -8 -14 32.931 36.553 5.025 67.085 o
-3 -8 -13 31.451 32.784 4.606 79.837 o
-3 -8 -12 11.105 13.411 2.260 331.537 o
-3 -8 -11 49.439 51.718 3.693 124.246 o
-3 -8 -10 135.888 139.449 6.311 42.530 o
-3 -8 -9 107.518 111.650 5.397 58.165 o
-3 -8 -8 85.601 84.687 4.429 86.358 o
-3 -8 -7 165.175 165.456 6.839 36.221 o
-3 -8 -6 242.792 244.832 9.193 20.047 o
-3 -8 -5 71.444 67.950 3.692 124.270 o
-3 -8 -4 33.626 31.408 4.128 99.423 o
-3 -8 -3 112.542 114.357 4.985 68.165 o
-3 -8 -2 165.290 166.603 6.434 40.922 o
-3 -8 -1 314.687 315.158 11.316 13.230 o
-3 -8 0 169.378 173.490 10.170 16.379 o
-3 -8 1 129.011 125.930 7.837 27.583 o
-3 -8 2 120.152 121.742 7.777 28.009 o
-3 -8 3 208.101 199.323 8.036 26.233 o
-3 -8 4 190.766 185.278 7.572 29.549 o
-3 -8 5 133.962 131.268 5.941 48.004 o
-3 -8 6 71.734 72.651 4.309 91.231 o
-3 -8 7 45.752 43.791 4.965 68.711 o
-3 -8 8 50.412 54.799 5.683 52.449 o
-3 -8 9 71.620 75.558 6.940 35.178 o
-3 -8 10 28.320 24.887 4.487 84.152 o
-3 -7 -15 40.017 43.552 5.504 55.925 o
-3 -7 -14 86.245 88.241 7.358 31.288 o
-3 -7 -13 34.614 30.690 4.487 84.152 o
-3 -7 -12 18.707 16.219 2.305 318.810 o
-3 -7 -11 27.787 30.071 2.834 210.895 o
-3 -7 -10 67.203 67.838 3.976 107.178 o
-3 -7 -9 55.217 58.657 3.541 135.086 o
-3 -7 -8 32.042 34.949 2.716 229.580 o
-3 -7 -7 171.220 167.367 6.627 38.576 o
-3 -7 -6 21.021 19.294 2.025 413.013 o
-3 -7 -5 90.908 87.725 4.232 94.570 o
-3 -7 -4 171.221 181.746 10.589 15.109 o
-3 -7 -3 6.349 6.146 1.195 1187.030 o
-3 -7 -2 37.303 39.513 2.422 288.764 o
-3 -7 -1 364.078 344.358 11.740 12.292 o
-3 -7 0 43.516 50.025 3.104 175.845 o
-3 -7 1 34.175 39.245 4.367 88.826 o
-3 -7 2 61.842 60.072 3.547 134.685 o
-3 -7 3 208.105 208.490 8.052 26.131 o
-3 -7 4 273.183 270.525 9.941 17.144 o
-3 -7 5 325.223 331.888 11.717 12.339 o
-3 -7 6 64.388 63.703 3.806 116.921 o
-3 -7 7 108.458 108.172 5.529 55.408 o
-3 -7 8 64.122 66.046 5.982 47.335 o
-3 -7 9 84.397 91.292 7.299 31.803 o
-3 -7 10 63.983 61.739 6.102 45.497 o
-3 -7 11 19.791 17.588 3.829 115.565 o
-3 -6 -16 32.898 32.664 5.025 67.085 o
-3 -6 -15 70.789 71.610 6.521 39.841 o
-3 -6 -14 108.604 110.017 8.136 25.592 o
-3 -6 -13 83.930 87.702 6.820 36.423 o
-3 -6 -12 31.725 28.116 2.698 232.658 o
-3 -6 -11 82.757 85.246 4.441 85.892 o
-3 -6 -10 59.029 62.213 3.697 123.955 o
-3 -6 -9 189.451 192.090 7.589 29.416 o
-3 -6 -8 131.353 123.330 5.299 60.340 o
-3 -6 -7 137.318 128.735 5.557 54.864 o
-3 -6 -6 270.922 267.951 9.847 17.473 o
-3 -6 -5 203.024 205.729 7.361 31.263 o
-3 -6 -4 169.582 163.201 9.093 20.488 o
-3 -6 -3 523.770 540.693 17.576 5.484 o
-3 -6 -2 369.481 358.278 11.424 12.980 o
-3 -6 -1 289.986 291.833 9.565 18.516 o
-3 -6 0 72.219 71.611 2.966 192.612 o
-3 -6 1 73.471 73.807 3.716 122.677 o
-3 -6 2 43.852 41.992 2.765 221.631 o
-3 -6 3 23.084 20.003 2.072 394.789 o
-3 -6 4 22.195 24.851 2.283 324.993 o
-3 -6 5 58.389 58.315 3.383 147.992 o
-3 -6 6 4.710 4.606 1.352 927.230 o
-3 -6 7 40.598 38.536 2.850 208.639 o
-3 -6 8 78.225 69.336 5.863 49.287 o
-3 -6 9 88.121 88.361 6.820 36.423 o
-3 -6 10 77.169 85.848 6.940 35.178 o
-3 -6 11 97.490 97.514 7.777 28.009 o
-3 -6 12 31.896 34.219 5.025 67.085 o
-3 -5 -16 9.919 11.187 3.290 156.480 o
-3 -5 -15 26.079 26.801 4.487 84.152 o
-3 -5 -14 74.818 75.857 6.461 40.582 o
-3 -5 -13 152.055 144.835 9.333 19.451 o
-3 -5 -12 82.709 79.267 6.162 44.618 o
-3 -5 -11 194.482 187.029 7.591 29.399 o
-3 -5 -10 341.361 334.170 11.823 12.119 o
-3 -5 -9 331.287 334.055 11.675 12.428 o
-3 -5 -8 387.356 376.964 12.880 10.211 o
-3 -5 -7 457.619 439.794 14.655 7.888 o
-3 -5 -6 194.430 189.137 7.143 33.203 o
-3 -5 -5 257.205 253.812 9.462 18.923 o
-3 -5 -4 208.867 208.727 10.828 14.449 o
-3 -5 -3 211.798 203.716 7.197 32.710 o
-3 -5 -2 397.039 397.230 15.554 7.002 o
-3 -5 -1 636.582 622.667 19.921 4.269 o
-3 -5 0 304.436 297.823 9.956 17.092 o
-3 -5 1 192.647 196.076 5.589 54.236 o
-3 -5 2 202.969 192.675 7.317 31.644 o
-3 -5 3 238.824 230.445 8.502 23.434 o
-3 -5 4 313.543 303.755 10.745 14.675 o
-3 -5 5 31.091 31.397 2.390 296.633 o
-3 -5 6 117.049 111.693 4.780 74.158 o
-3 -5 7 32.307 33.096 3.081 178.472 o
-3 -5 8 2.390 2.543 1.142 1298.640 o
-3 -5 9 62.583 61.320 5.265 61.125 o
-3 -5 10 38.387 42.116 4.726 75.846 o
-3 -5 11 43.203 50.611 5.265 61.125 o
-3 -5 12 53.964 59.764 6.042 46.403 o
-3 -5 13 15.924 16.631 3.829 115.565 o
-3 -4 -16 10.696 15.614 3.530 135.982 o
-3 -4 -15 31.725 34.040 4.726 75.846 o
-3 -4 -14 21.767 22.374 3.829 115.565 o
-3 -4 -13 45.697 47.321 4.906 70.397 o
-3 -4 -12 99.629 104.513 7.119 33.426 o
-3 -4 -11 6.305 7.096 1.452 803.774 o
-3 -4 -10 127.170 134.041 5.557 54.864 o
-3 -4 -9 391.450 388.393 13.177 9.757 o
-3 -4 -8 348.590 339.040 11.633 12.518 o
-3 -4 -7 334.865 325.033 11.358 13.132 o
-3 -4 -6 339.077 344.282 11.948 11.868 o
-3 -4 -5 336.538 320.026 11.224 13.448 o
-3 -4 -4 794.994 810.679 36.194 1.293 o
-3 -4 -3 275.999 278.557 9.500 18.771 o
-3 -4 -2 379.082 385.092 12.669 10.554 o
-3 -4 -1 340.572 328.967 10.757 14.641 o
-3 -4 0 502.562 540.286 16.678 6.091 o
-3 -4 1 205.419 209.490 7.482 30.265 o
-3 -4 2 123.208 115.342 4.778 74.211 o
-3 -4 3 322.777 337.010 11.291 13.289 o
-3 -4 4 388.228 394.528 13.092 9.884 o
-3 -4 5 556.945 541.658 17.894 5.291 o
-3 -4 6 58.860 66.412 3.510 137.483 o
-3 -4 7 2.903 2.953 1.035 1581.770 o
-3 -4 8 42.897 37.557 2.698 232.658 o
-3 -4 9 71.263 76.814 5.863 49.287 o
-3 -4 10 23.435 22.853 3.649 127.211 o
-3 -4 11 9.365 9.273 2.632 244.500 o
-3 -4 12 16.986 14.178 3.290 156.480 o
-3 -4 13 31.630 36.971 4.965 68.711 o
-3 -3 -17 2.716 2.872 2.692 233.754 o
-3 -3 -16 4.018 5.025 2.812 214.284 o
-3 -3 -15 26.617 29.613 4.487 84.152 o
-3 -3 -14 68.466 69.217 6.162 44.618 o
-3 -3 -13 34.444 29.972 4.188 96.603 o
-3 -3 -12 111.529 104.214 7.418 30.785 o
-3 -3 -11 1.249 2.154 1.735 562.845 o
-3 -3 -10 35.834 36.567 2.515 267.777 o
-3 -3 -9 229.518 226.074 8.241 24.946 o
-3 -3 -8 334.383 336.460 11.313 13.237 o
-3 -3 -7 70.228 71.452 3.341 151.764 o
-3 -3 -6 77.335 67.740 3.383 147.992 o
-3 -3 -5 160.178 166.099 6.005 46.978 o
-3 -3 -4 485.298 470.578 22.015 3.495 o
-3 -3 -3 789.214 760.791 24.107 2.915 o
-3 -3 -2 529.455 533.055 17.354 5.625 o
-3 -3 -1 223.415 217.151 7.646 28.976 o
-3 -3 0 115.179 108.072 3.438 143.308 o
-3 -3 1 333.868 351.875 11.714 12.346 o
-3 -3 2 3.295 1.953 0.761 2922.400 o
-3 -3 3 107.743 106.006 4.335 90.167 o
-3 -3 4 221.966 238.795 8.501 23.440 o
-3 -3 5 389.062 393.989 12.902 10.177 o
-3 -3 6 426.697 390.611 13.071 9.915 o
-3 -3 7 138.194 138.852 8.495 23.475 o
-3 -3 8 1.028 1.200 0.988 1735.370 o
-3 -3 9 370.815 355.274 12.411 10.998 o
-3 -3 10 100.636 103.915 7.179 32.872 o
-3 -3 11 64.097 65.029 5.683 52.449 o
-3 -3 12 26.015 21.716 3.769 119.262 o
-3 -3 13 13.529 13.101 3.290 156.480 o
-3 -3 14 10.552 10.649 3.231 162.329 o
-3 -2 -17 22.050 14.238 3.709 123.141 o
-3 -2 -16 40.834 35.775 5.145 64.001 o
-3 -2 -15 44.085 39.005 4.965 68.711 o
-3 -2 -14 50.384 52.825 5.444 57.161 o
-3 -2 -13 99.460 105.769 7.358 31.288 o
-3 -2 -12 28.417 23.870 3.948 108.667 o
-3 -2 -11 16.574 19.263 3.231 162.329 o
-3 -2 -10 95.392 87.942 6.282 42.934 o
-3 -2 -9 456.930 447.452 14.901 7.629 o
-3 -2 -8 338.559 344.863 11.734 12.304 o
-3 -2 -7 515.833 512.853 16.645 6.115 o
-3 -2 -6 176.179 184.330 6.810 36.527 o
-3 -2 -5 92.335 76.979 3.130 172.883 o
-3 -2 -4 1139.380 1207.440 37.204 1.224 o
-3 -2 -3 1362.650 1409.040 41.877 0.966 o
-3 -2 -2 456.026 477.395 14.164 8.444 o
-3 -2 -1 836.976 851.240 26.052 2.496 o
-3 -2 0 492.663 478.615 12.238 11.311 o
-3 -2 1 3.886 6.249 0.962 1830.730 o
-3 -2 2 4.646 5.597 1.675 603.766 o
-3 -2 3 40.510 37.482 2.164 361.929 o
-3 -2 4 35.752 31.113 2.061 398.758 o
-3 -2 5 15.011 20.114 1.789 529.600 o
-3 -2 6 98.460 88.048 3.974 107.287 o
-3 -2 7 50.818 53.669 3.042 183.044 o
-3 -2 8 36.374 33.011 2.364 303.041 o
-3 -2 9 134.967 146.145 6.091 45.662 o
-3 -2 10 263.833 261.492 13.879 8.794 o
-3 -2 11 50.308 57.072 5.025 67.085 o
-3 -2 12 30.915 31.348 4.188 96.603 o
-3 -2 13 58.775 55.278 5.623 53.571 o
-3 -2 14 21.849 21.058 3.889 112.036 o
-3 -1 -17 3.263 4.846 2.872 205.448 o
-3 -1 -16 13.413 16.512 3.889 112.036 o
-3 -1 -15 49.498 50.013 5.623 53.571 o
-3 -1 -14 57.297 53.842 5.504 55.925 o
-3 -1 -13 145.848 136.639 9.093 20.488 o
-3 -1 -12 28.497 25.485 3.889 112.036 o
-3 -1 -11 128.813 113.786 7.179 32.872 o
-3 -1 -10 364.033 354.698 17.170 5.747 o
-3 -1 -9 485.832 494.958 16.358 6.331 o
-3 -1 -8 592.744 592.679 18.733 4.828 o
-3 -1 -7 501.399 522.776 16.218 6.441 o
-3 -1 -6 260.704 272.453 9.453 18.959 o
-3 -1 -5 410.420 427.092 14.361 8.214 o
-3 -1 -4 659.054 668.868 21.553 3.647 o
-3 -1 -3 1335.500 1270.230 70.742 0.339 o
-3 -1 -2 1021.080 1051.020 32.105 1.644 o
-3 -1 -1 186.171 173.295 5.773 50.837 o
-3 -1 0 1556.700 1642.410 50.233 0.671 o
-3 -1 1 1154.900 1176.900 29.469 1.951 o
-3 -1 2 224.864 235.217 7.817 27.722 o
-3 -1 3 608.453 656.700 20.639 3.977 o
-3 -1 4 410.357 431.026 13.977 8.672 o
-3 -1 5 249.553 263.121 9.068 20.603 o
-3 -1 6 133.130 131.129 5.472 56.575 o
-3 -1 7 140.496 144.794 5.794 50.472 o
-3 -1 8 40.823 19.802 2.572 256.005 o
-3 -1 9 84.021 86.355 4.167 97.583 o
-3 -1 10 77.087 76.343 3.955 108.300 o
-3 -1 11 17.203 12.982 2.752 223.702 o
-3 -1 12 24.615 26.622 3.709 123.141 o
-3 -1 13 8.913 8.675 2.632 244.500 o
-3 -1 14 50.437 53.184 5.564 54.729 o
-3 0 -16 31.994 35.236 5.085 65.516 o
-3 0 -15 19.998 24.767 4.188 96.603 o
-3 0 -14 46.992 50.551 5.324 59.759 o
-3 0 -13 59.568 63.234 5.683 52.449 o
-3 0 -10 134.864 141.903 8.076 25.973 o
-3 0 -9 36.618 37.510 4.008 105.447 o
-3 0 -8 370.864 373.249 12.246 11.297 o
-3 0 -7 175.488 169.256 5.840 49.681 o
-3 0 -6 265.614 274.829 8.495 23.476 o
-3 0 -5 670.270 706.614 21.870 3.542 o
-3 0 -4 1305.000 1332.090 41.625 0.978 o
-3 0 -3 1131.390 1194.990 36.760 1.254 o
-3 0 -2 1291.360 1249.120 38.895 1.120 o
-3 0 -1 376.654 376.444 12.302 11.194 o
-3 0 0 637.760 662.657 21.504 3.664 o
-3 0 1 408.277 412.263 13.016 10.000 o
-3 0 2 459.626 459.036 14.283 8.304 o
-3 0 3 517.266 521.803 16.403 6.297 o
-3 0 4 555.391 586.372 18.416 4.995 o
-3 0 5 226.178 223.348 7.663 28.849 o
-3 0 6 315.729 309.049 10.950 14.129 o
-3 0 7 5.682 6.619 1.249 1086.640 o
-3 0 9 52.559 50.551 4.367 88.826 o
-3 0 10 38.720 37.951 2.791 217.483 o
-3 0 11 10.325 7.777 2.273 327.807 o
-3 0 12 2.990 1.795 1.795 525.948 o
-3 0 13 1.870 1.855 1.914 462.259 o
-3 0 14 26.168 28.835 4.427 86.441 o
-3 0 15 43.205 53.603 5.564 54.729 o
-3 1 -16 11.901 12.743 3.709 123.141 o
-3 1 -15 23.253 20.340 3.889 112.036 o
-3 1 -14 17.779 19.562 3.709 123.141 o
-3 1 -13 1.476 -0.299 1.914 462.259 o
-3 1 -12 83.824 83.036 6.461 40.582 o
-3 1 -11 11.073 13.999 2.812 214.284 o
-3 1 -10 122.523 121.324 8.196 25.220 o
-3 1 -9 143.300 141.843 8.555 23.148 o
-3 1 -8 124.318 125.184 4.954 69.027 o
-3 1 -7 165.856 162.251 5.858 49.373 o
-3 1 -6 75.854 74.965 3.159 169.746 o
-3 1 -5 231.515 246.572 7.654 28.921 o
-3 1 -4 1037.620 1117.620 33.926 1.472 o
-3 1 -3 1051.650 1065.020 32.509 1.603 o
-3 1 -2 1586.100 1613.320 49.324 0.696 o
-3 1 -1 2142.280 2251.460 86.177 0.228 o
-3 1 0 375.412 335.495 17.588 5.476 o
-3 1 1 614.140 607.661 19.188 4.601 o
-3 1 2 792.800 804.905 24.587 2.802 o
-3 1 3 222.122 228.339 8.944 21.179 o
-3 1 4 451.545 468.628 15.384 7.158 o
-3 1 5 577.230 601.732 18.621 4.886 o
-3 1 6 182.597 187.222 7.058 34.005 o
-3 1 7 208.116 206.387 7.640 29.027 o
-3 1 8 326.214 341.038 11.413 13.006 o
-3 1 9 288.823 285.366 10.293 15.991 o
-3 1 10 167.903 169.968 6.936 35.215 o
-3 1 11 152.593 156.901 6.450 40.719 o
-3 1 12 27.692 22.494 3.410 145.692 o
-3 1 13 2.055 3.589 2.034 409.475 o
-3 1 14 23.130 25.126 4.068 102.369 o
-3 1 15 8.348 7.598 2.812 214.284 o
-3 2 -16 32.566 32.066 5.265 61.125 o
-3 2 -15 8.140 4.666 2.931 197.148 o
-3 2 -14 56.216 59.944 6.222 43.764 o
-3 2 -13 10.771 12.144 2.991 189.341 o
-3 2 -12 16.897 19.503 3.589 131.487 o
-3 2 -11 240.062 233.913 12.444 10.941 o
-3 2 -10 105.617 106.188 7.119 33.426 o
-3 2 -9 70.253 66.764 5.384 58.439 o
-3 2 -8 188.777 173.072 9.811 17.599 o
-3 2 -7 83.597 85.237 3.474 140.390 o
-3 2 -6 30.375 34.620 2.138 370.764 o
-3 2 -5 17.825 16.122 1.558 697.622 o
-3 2 -4 181.120 194.836 7.509 30.049 o
-3 2 -3 254.027 248.062 8.692 22.421 o
-3 2 -2 283.674 299.247 9.473 18.878 o
-3 2 -1 337.118 316.650 14.956 7.574 o
-3 2 0 330.539 333.640 16.332 6.351 o
-3 2 1 416.760 424.753 20.221 4.143 o
-3 2 2 590.212 576.336 18.465 4.969 o
-3 2 3 1245.520 1273.410 38.590 1.138 o
-3 2 4 340.282 340.181 11.351 13.149 o
-3 2 5 245.168 251.100 8.708 22.343 o
-3 2 6 56.576 55.334 3.141 171.738 o
-3 2 7 17.195 16.426 1.710 579.525 o
-3 2 8 98.664 94.571 6.072 45.947 o
-3 2 9 86.101 89.828 4.327 90.482 o
-3 2 10 108.143 104.748 4.930 69.706 o
-3 2 11 82.745 86.575 4.530 82.568 o
-3 2 12 29.123 32.604 3.889 112.036 o
-3 2 13 24.958 21.118 3.589 131.487 o
-3 2 14 55.733 63.055 5.803 50.309 o
-3 3 -15 60.525 63.892 6.581 39.120 o
-3 3 -14 11.039 7.478 2.931 197.148 o
-3 3 -13 63.543 74.003 6.521 39.841 o
-3 3 -11 15.304 11.845 2.692 233.754 o
-3 3 -10 87.565 89.976 6.282 42.934 o
-3 3 -9 123.436 120.127 7.538 29.816 o
-3 3 -8 175.886 169.662 9.632 18.261 o
-3 3 -7 193.755 188.494 6.913 35.451 o
-3 3 -6 128.362 127.536 4.766 74.578 o
-3 3 -5 418.167 424.767 14.021 8.618 o
-3 3 -4 282.181 286.087 9.835 17.514 o
-3 3 -3 592.341 614.485 19.691 4.369 o
-3 3 -2 223.293 208.667 11.546 12.708 o
-3 3 -1 329.508 359.305 15.495 7.056 o
-3 3 1 51.821 41.937 3.829 115.565 o
-3 3 2 504.453 533.094 23.690 3.019 o
-3 3 3 262.718 245.816 8.005 26.436 o
-3 3 4 263.943 263.581 8.739 22.182 o
-3 3 5 329.542 330.110 11.006 13.986 o
-3 3 6 57.282 55.004 2.858 207.333 o
-3 3 7 22.336 22.817 1.979 432.532 o
-3 3 8 142.480 142.980 5.860 49.330 o
-3 3 9 15.152 14.052 1.796 524.955 o
-3 3 10 31.605 30.383 2.601 250.381 o
-3 3 11 45.383 43.300 3.131 172.766 o
-3 3 12 7.755 8.457 1.796 524.955 o
-3 3 13 0.194 0.778 1.735 562.845 o
-3 3 14 21.693 23.272 3.948 108.667 o
-3 4 -14 33.783 33.502 4.965 68.711 o
-3 4 -13 12.452 12.204 3.350 150.942 o
-3 4 -12 27.821 28.476 4.307 91.310 o
-3 4 -11 53.190 55.816 5.384 58.439 o
-3 4 -10 8.851 10.649 2.752 223.702 o
-3 4 -9 23.181 25.425 3.530 135.982 o
-3 4 -8 31.955 34.878 3.769 119.262 o
-3 4 -7 78.067 70.054 5.145 64.001 o
-3 4 -6 118.411 119.799 4.771 74.420 o
-3 4 -5 125.969 121.768 4.863 71.650 o
-3 4 -4 362.741 357.427 11.739 12.294 o
-3 4 -3 740.944 751.558 23.626 3.035 o
-3 4 -2 932.547 962.154 43.193 0.908 o
-3 4 -1 306.994 302.292 15.016 7.513 o
-3 4 0 189.288 211.240 10.649 14.940 o
-3 4 1 147.927 132.391 8.076 25.973 o
-3 4 2 442.897 438.273 21.238 3.756 o
-3 4 3 394.301 388.200 18.486 4.958 o
-3 4 4 121.909 120.486 7.358 31.288 o
-3 4 5 228.199 234.925 8.142 25.554 o
-3 4 6 192.716 195.727 7.065 33.941 o
-3 4 7 33.570 32.885 2.279 326.070 o
-3 4 8 170.761 177.737 6.976 34.812 o
-3 4 9 119.265 114.435 5.135 64.237 o
-3 4 10 38.572 38.209 3.363 149.807 o
-3 4 11 40.349 40.920 5.085 65.516 o
-3 4 12 28.235 25.545 4.547 81.952 o
-3 5 -14 13.761 15.913 4.008 105.447 o
-3 5 -13 3.856 3.231 2.692 233.754 o
-3 5 -12 7.122 8.136 2.872 205.448 o
-3 5 -11 35.109 32.604 4.427 86.441 o
-3 5 -10 121.844 116.538 8.196 25.220 o
-3 5 -9 99.593 102.120 7.239 32.331 o
-3 5 -8 122.514 118.033 7.957 26.760 o
-3 5 -7 60.123 53.483 4.846 72.146 o
-3 5 -6 37.608 40.258 2.606 249.378 o
-3 5 -5 27.174 33.058 2.369 301.883 o
-3 5 -4 240.868 239.871 8.587 22.973 o
-3 5 -3 225.829 234.810 11.726 12.322 o
-3 5 -2 343.217 357.749 16.631 6.125 o
-3 5 -1 621.129 585.022 26.921 2.338 o
-3 5 0 226.370 227.033 12.025 11.716 o
-3 5 1 289.980 300.318 14.896 7.635 o
-3 5 2 310.970 301.455 15.853 6.741 o
-3 5 3 614.153 610.328 28.297 2.116 o
-3 5 4 266.938 280.456 14.597 7.951 o
-3 5 5 61.340 67.661 5.564 54.729 o
-3 5 6 165.386 163.859 10.170 16.379 o
-3 5 7 275.293 281.174 14.777 7.759 o
-3 5 8 72.326 72.328 6.162 44.618 o
-3 5 9 271.216 271.483 14.657 7.886 o
-3 5 10 184.083 183.661 11.187 13.536 o
-3 5 11 26.776 22.135 4.427 86.441 o
-3 5 12 39.599 37.270 5.324 59.759 o
-3 5 13 40.843 44.330 5.863 49.287 o
-3 6 -12 13.407 10.589 3.171 168.513 o
-3 6 -11 39.639 42.655 4.965 68.711 o
-3 6 -10 32.826 30.869 4.427 86.441 o
-3 6 -9 80.815 82.677 6.461 40.582 o
-3 6 -8 17.716 24.468 3.649 127.211 o
-3 6 -7 17.512 19.622 3.290 156.480 o
-3 6 -6 24.110 21.178 3.231 162.329 o
-3 6 -5 24.548 22.796 2.221 343.569 o
-3 6 -4 67.200 65.325 3.553 134.227 o
-3 6 -3 208.974 202.086 11.486 12.841 o
-3 6 -2 158.854 166.072 10.050 16.771 o
-3 6 -1 64.089 61.619 4.965 68.711 o
-3 6 0 212.401 211.060 11.127 13.682 o
-3 6 1 88.818 81.062 6.222 43.764 o
-3 6 2 452.338 438.632 22.255 3.421 o
-3 6 3 378.029 388.798 19.323 4.537 o
-3 6 4 105.854 99.069 7.119 33.426 o
-3 6 5 292.360 285.661 15.375 7.167 o
-3 6 6 56.377 61.200 5.623 53.571 o
-3 6 7 33.857 32.425 4.666 77.803 o
-3 6 8 24.080 24.408 4.248 93.901 o
-3 6 9 62.424 65.567 6.341 42.128 o
-3 6 10 48.354 47.919 5.623 53.571 o
-3 6 11 34.704 37.091 5.384 58.439 o
-3 6 12 21.388 21.297 4.427 86.441 o
-3 6 13 47.039 50.671 6.341 42.128 o
-3 7 -11 22.982 23.750 4.248 93.901 o
-3 7 -10 44.047 41.757 5.265 61.125 o
-3 7 -9 66.157 71.311 6.162 44.618 o
-3 7 -8 54.813 59.286 5.504 55.925 o
-3 7 -7 141.179 137.596 8.854 21.610 o
-3 7 -6 101.613 102.599 7.119 33.426 o
-3 7 -5 127.159 129.953 5.753 51.184 o
-3 7 -4 149.918 148.603 6.239 43.516 o
-3 7 -3 185.444 181.088 10.709 14.773 o
-3 7 -2 46.968 47.560 4.606 79.837 o
-3 7 -1 0.355 0.179 1.496 757.364 o
-3 7 1 58.145 50.013 4.846 72.146 o
-3 7 3 80.323 80.344 6.521 39.841 o
-3 7 4 160.211 141.724 9.033 20.760 o
-3 7 5 79.582 87.344 6.760 37.071 o
-3 7 6 91.668 86.267 7.299 31.803 o
-3 7 7 97.917 107.803 8.316 24.499 o
-3 7 8 45.369 45.287 5.564 54.729 o
-3 7 9 51.721 50.551 5.982 47.335 o
-3 7 10 50.079 53.303 6.222 43.764 o
-3 7 11 9.288 10.050 3.589 131.487 o
-3 7 12 7.838 9.512 3.589 131.487 o
-3 8 -10 46.907 47.620 5.743 51.362 o
-3 8 -9 52.453 51.210 5.564 54.729 o
-3 8 -8 23.163 24.707 4.128 99.423 o
-3 8 -7 14.814 16.093 3.350 150.942 o
-3 8 -6 42.488 42.356 4.606 79.837 o
-3 8 -5 87.633 85.369 6.461 40.582 o
-3 8 -4 162.079 166.171 7.022 34.356 o
-3 8 -3 144.796 146.211 9.572 18.490 o
-3 8 -2 133.364 138.194 8.974 21.038 o
-3 8 -1 128.118 115.640 8.256 24.856 o
-3 8 0 107.947 105.650 7.957 26.760 o
-3 8 1 54.931 56.355 5.683 52.449 o
-3 8 2 50.753 50.731 5.324 59.759 o
-3 8 3 59.506 61.260 6.102 45.497 o
-3 8 4 46.150 50.851 5.504 55.925 o
-3 8 5 27.538 26.562 4.427 86.441 o
-3 8 6 46.448 44.928 5.564 54.729 o
-3 8 7 48.647 53.662 6.102 45.497 o
-3 8 8 106.469 113.487 9.033 20.760 o
-3 8 9 112.265 111.273 9.273 19.703 o
-3 8 10 68.733 69.755 7.478 30.295 o
-3 9 -8 24.285 24.109 4.307 91.310 o
-3 9 -7 14.804 17.648 3.769 119.262 o
-3 9 -6 14.853 16.272 3.350 150.942 o
-3 9 -5 18.742 16.153 3.231 162.329 o
-3 9 -4 75.047 69.217 5.982 47.335 o
-3 9 -3 42.771 42.056 4.965 68.711 o
-3 9 -2 36.098 35.476 4.547 81.952 o
-3 9 -1 83.016 89.078 7.179 32.872 o
-3 9 0 115.536 118.153 8.435 23.809 o
-3 9 1 141.514 142.442 9.811 17.599 o
-3 9 2 137.126 144.057 9.871 17.387 o
-3 9 3 64.639 60.961 6.401 41.344 o
-3 9 4 68.917 70.413 6.940 35.178 o
-3 9 5 44.652 43.432 5.623 53.571 o
-3 9 6 13.889 16.930 4.128 99.423 o
-3 9 7 8.448 7.478 3.410 145.692 o
-3 9 8 12.316 9.392 3.649 127.211 o
-3 9 9 42.098 50.312 6.820 36.423 o
-3 10 -5 13.519 14.059 3.350 150.942 o
-3 10 -4 27.372 25.485 4.128 99.423 o
-3 10 -3 29.881 29.134 5.803 50.309 o
-3 10 -2 19.828 17.529 3.889 112.036 o
-3 10 -1 14.550 15.495 3.769 119.262 o
-3 10 0 10.695 8.495 3.171 168.513 o
-3 10 1 61.518 58.389 6.341 42.128 o
-3 10 2 69.258 83.036 7.538 29.816 o
-3 10 3 63.729 68.140 7.179 32.872 o
-3 10 4 79.480 80.583 7.897 27.167 o
-3 10 5 68.456 75.319 7.538 29.816 o
-3 10 6 31.230 32.724 5.863 49.287 o
-2 -12 -6 38.730 37.342 3.594 131.123 o
-2 -12 -5 50.749 54.728 4.109 100.342 o
-2 -12 -4 39.973 40.050 3.606 130.252 o
-2 -12 -3 27.309 21.417 4.547 81.952 o
-2 -12 -2 22.891 21.597 4.547 81.952 o
-2 -12 -1 11.858 9.153 3.410 145.692 o
-2 -12 0 31.981 29.015 5.025 67.085 o
-2 -12 1 49.275 46.543 6.162 44.618 o
-2 -11 -10 57.990 60.662 5.982 47.335 o
-2 -11 -9 38.589 36.553 4.726 75.846 o
-2 -11 -8 53.878 57.790 5.683 52.449 o
-2 -11 -7 24.912 24.215 2.888 203.057 o
-2 -11 -6 26.214 26.401 3.014 186.470 o
-2 -11 -5 12.113 14.345 2.343 308.604 o
-2 -11 -4 7.473 8.372 1.912 463.579 o
-2 -11 -3 13.613 14.401 2.228 341.430 o
-2 -11 -2 50.174 52.378 3.780 118.549 o
-2 -11 -1 17.280 19.682 4.068 102.369 o
-2 -11 0 66.218 69.755 6.641 38.418 o
-2 -11 1 104.504 106.966 8.375 24.151 o
-2 -11 2 49.964 53.363 6.042 46.403 o
-2 -11 3 43.652 46.842 5.683 52.449 o
-2 -11 4 54.848 52.286 5.982 47.335 o
-2 -10 -12 71.876 83.993 7.119 33.426 o
-2 -10 -11 17.703 17.409 3.589 131.487 o
-2 -10 -10 51.547 58.329 5.683 52.449 o
-2 -10 -9 133.865 139.211 8.854 21.610 o
-2 -10 -8 124.287 120.674 6.027 46.630 o
-2 -10 -7 108.052 111.460 5.596 54.104 o
-2 -10 -6 194.121 196.330 8.138 25.582 o
-2 -10 -5 162.640 148.244 6.601 38.878 o
-2 -10 -4 113.220 117.523 5.749 51.253 o
-2 -10 -3 53.029 50.692 3.474 140.390 o
-2 -10 -2 43.552 40.671 3.090 177.378 o
-2 -10 -1 27.196 28.416 4.248 93.901 o
-2 -10 0 89.917 87.104 6.999 34.579 o
-2 -10 1 64.272 63.713 5.982 47.335 o
-2 -10 2 3.531 1.675 2.034 409.475 o
-2 -10 3 34.565 31.946 4.487 84.152 o
-2 -10 4 40.361 36.528 3.254 159.997 o
-2 -10 5 26.739 26.323 4.068 102.369 o
-2 -10 6 26.294 29.613 4.307 91.310 o
-2 -10 7 15.663 13.999 3.350 150.942 o
-2 -9 -13 60.801 65.627 6.282 42.934 o
-2 -9 -12 31.710 30.809 4.487 84.152 o
-2 -9 -11 13.821 15.794 3.290 156.480 o
-2 -9 -10 0.303 0.479 1.795 525.948 o
-2 -9 -9 21.377 21.026 2.606 249.378 o
-2 -9 -8 58.504 60.314 3.892 111.825 o
-2 -9 -7 79.996 78.245 4.327 90.482 o
-2 -9 -6 141.999 140.719 6.166 44.558 o
-2 -9 -5 175.560 175.653 7.186 32.810 o
-2 -9 -4 261.023 252.581 9.466 18.907 o
-2 -9 -3 338.173 342.142 12.241 11.306 o
-2 -9 -2 220.133 206.079 8.234 24.985 o
-2 -9 -1 163.693 150.279 9.811 17.599 o
-2 -9 0 160.223 147.741 6.157 44.696 o
-2 -9 1 212.524 206.737 8.134 25.603 o
-2 -9 2 44.539 43.492 4.786 73.961 o
-2 -9 3 19.422 19.110 2.368 302.172 o
-2 -9 4 73.632 75.249 4.290 92.061 o
-2 -9 5 119.599 121.773 5.753 51.193 o
-2 -9 6 97.474 100.684 7.239 32.331 o
-2 -9 7 51.675 51.868 5.384 58.439 o
-2 -9 8 23.866 24.707 4.128 99.423 o
-2 -9 9 23.204 22.793 4.068 102.369 o
-2 -8 -14 15.531 16.512 3.589 131.487 o
-2 -8 -13 57.870 58.927 5.923 48.296 o
-2 -8 -12 62.274 62.337 5.803 50.309 o
-2 -8 -11 79.470 79.507 6.222 43.764 o
-2 -8 -10 64.421 64.903 3.931 109.610 o
-2 -8 -9 37.550 39.820 3.099 176.439 o
-2 -8 -8 108.754 117.350 5.402 58.047 o
-2 -8 -7 143.727 146.443 6.076 45.894 o
-2 -8 -6 158.557 157.801 6.306 42.599 o
-2 -8 -5 69.905 75.339 3.933 109.498 o
-2 -8 -4 91.475 86.409 4.232 94.570 o
-2 -8 -3 193.277 179.756 6.806 36.576 o
-2 -8 -2 307.779 310.356 10.794 14.541 o
-2 -8 -1 154.290 146.564 5.910 48.497 o
-2 -8 0 375.196 373.241 12.684 10.530 o
-2 -8 1 215.795 212.260 8.142 25.554 o
-2 -8 2 212.646 206.689 6.363 41.842 o
-2 -8 3 167.320 169.349 6.999 34.587 o
-2 -8 4 130.432 129.661 5.816 50.092 o
-2 -8 5 84.222 83.593 4.399 87.552 o
-2 -8 6 157.558 158.808 6.682 37.941 o
-2 -8 7 79.152 75.139 6.162 44.618 o
-2 -8 8 58.539 60.183 5.564 54.729 o
-2 -8 9 22.512 21.836 3.948 108.667 o
-2 -8 10 60.577 64.311 6.162 44.618 o
-2 -7 -15 30.735 32.724 4.846 72.146 o
-2 -7 -14 35.551 36.852 4.906 70.397 o
-2 -7 -13 43.325 47.022 4.965 68.711 o
-2 -7 -12 91.049 88.121 6.880 35.792 o
-2 -7 -11 82.273 79.925 5.982 47.335 o
-2 -7 -10 40.688 36.266 2.938 196.269 o
-2 -7 -9 52.160 54.522 3.423 144.557 o
-2 -7 -8 248.793 247.676 9.195 20.038 o
-2 -7 -7 57.833 57.996 3.322 153.526 o
-2 -7 -6 113.071 107.139 4.863 71.644 o
-2 -7 -5 58.150 64.436 3.447 142.590 o
-2 -7 -4 5.878 7.433 1.322 969.008 o
-2 -7 -3 0.297 2.639 1.018 1636.210 o
-2 -7 -2 235.149 247.792 12.683 10.532 o
-2 -7 -1 260.388 273.239 8.932 21.235 o
-2 -7 0 319.524 319.912 10.738 14.691 o
-2 -7 1 218.119 218.891 7.852 27.478 o
-2 -7 2 400.866 395.216 10.737 14.695 o
-2 -7 3 271.599 274.872 7.865 27.387 o
-2 -7 4 365.222 374.205 12.860 10.244 o
-2 -7 5 465.552 454.895 15.913 6.690 o
-2 -7 6 242.482 233.454 8.882 21.473 o
-2 -7 7 69.681 70.593 5.623 53.571 o
-2 -7 8 171.231 168.705 10.290 16.000 o
-2 -7 9 41.751 45.706 4.846 72.146 o
-2 -7 10 62.962 63.354 5.803 50.309 o
-2 -7 11 73.162 79.147 6.820 36.423 o
-2 -7 12 67.291 76.156 6.820 36.423 o
-2 -6 -16 36.588 36.612 5.265 61.125 o
-2 -6 -15 31.138 32.843 4.846 72.146 o
-2 -6 -14 85.837 97.573 7.358 31.288 o
-2 -6 -13 73.178 72.686 6.042 46.403 o
-2 -6 -12 53.386 52.705 4.906 70.397 o
-2 -6 -11 50.576 53.244 4.965 68.711 o
-2 -6 -10 18.962 20.125 2.241 337.386 o
-2 -6 -9 172.796 171.258 6.851 36.090 o
-2 -6 -8 191.597 177.798 7.083 33.766 o
-2 -6 -7 453.435 437.922 14.568 7.983 o
-2 -6 -6 128.503 132.853 5.336 59.497 o
-2 -6 -5 74.949 76.906 3.620 129.308 o
-2 -6 -4 233.387 225.527 8.275 24.738 o
-2 -6 -3 93.725 91.352 5.085 65.516 o
-2 -6 -2 138.554 130.417 8.435 23.809 o
-2 -6 -1 229.026 233.213 7.689 28.656 o
-2 -6 1 196.532 201.685 5.628 53.482 o
-2 -6 2 30.806 31.241 1.606 657.033 o
-2 -6 3 27.574 29.040 2.218 344.318 o
-2 -6 4 32.262 33.083 2.325 313.271 o
-2 -6 5 76.436 82.976 5.384 58.439 o
-2 -6 6 361.481 360.076 12.648 10.590 o
-2 -6 7 163.560 158.227 6.446 40.772 o
-2 -6 8 74.297 75.498 5.982 47.335 o
-2 -6 9 130.036 128.323 8.675 22.514 o
-2 -6 10 94.913 98.231 7.358 31.288 o
-2 -6 11 111.793 119.349 8.495 23.475 o
-2 -6 12 48.964 48.218 5.444 57.161 o
-2 -6 13 50.349 54.141 5.982 47.335 o
-2 -5 -16 13.541 12.623 3.410 145.692 o
-2 -5 -15 31.352 29.852 4.487 84.152 o
-2 -5 -14 117.126 118.213 8.136 25.592 o
-2 -5 -13 67.323 67.901 5.803 50.309 o
-2 -5 -12 217.587 210.282 11.965 11.834 o
-2 -5 -11 366.530 349.434 17.708 5.403 o
-2 -5 -10 18.698 17.888 2.019 415.743 o
-2 -5 -9 246.803 230.326 8.397 24.027 o
-2 -5 -8 454.932 449.636 14.700 7.840 o
-2 -5 -7 646.746 664.254 21.002 3.841 o
-2 -5 -6 437.275 444.470 14.337 8.241 o
-2 -5 -5 535.936 508.899 15.839 6.753 o
-2 -5 -4 86.138 86.206 3.526 136.242 o
-2 -5 -3 645.787 632.502 19.770 4.334 o
-2 -5 -2 408.896 400.420 13.335 9.527 o
-2 -5 -1 619.810 651.174 20.780 3.923 o
-2 -5 0 25.851 25.881 1.648 623.758 o
-2 -5 1 68.845 72.458 3.004 187.711 o
-2 -5 2 391.514 406.951 10.878 14.316 o
-2 -5 3 204.219 196.606 7.022 34.359 o
-2 -5 4 151.305 144.605 5.520 55.592 o
-2 -5 5 421.355 405.190 19.263 4.565 o
-2 -5 6 436.169 422.832 13.535 9.248 o
-2 -5 7 555.314 564.217 18.102 5.170 o
-2 -5 8 146.161 141.185 8.675 22.514 o
-2 -5 9 15.556 15.435 2.931 197.148 o
-2 -5 10 71.939 68.678 5.683 52.449 o
-2 -5 11 70.131 69.815 6.042 46.403 o
-2 -5 12 26.592 26.622 4.367 88.826 o
-2 -5 13 1.826 1.436 2.273 327.807 o
-2 -4 -17 35.417 36.912 5.384 58.439 o
-2 -4 -16 18.199 12.503 3.290 156.480 o
-2 -4 -15 18.904 19.383 3.649 127.211 o
-2 -4 -14 40.388 35.775 4.547 81.952 o
-2 -4 -13 179.431 183.541 10.529 15.281 o
-2 -4 -12 52.156 48.877 4.547 81.952 o
-2 -4 -11 207.422 193.591 11.486 12.841 o
-2 -4 -10 51.964 45.234 2.741 225.509 o
-2 -4 -9 126.864 138.056 5.413 57.825 o
-2 -4 -8 171.879 164.517 4.911 70.243 o
-2 -4 -7 319.399 325.591 11.041 13.898 o
-2 -4 -6 270.582 267.196 9.010 20.868 o
-2 -4 -5 20.678 22.226 1.667 609.397 o
-2 -4 -4 125.959 135.694 4.559 81.499 o
-2 -4 -3 1010.420 1059.420 31.639 1.692 o
-2 -4 -2 741.804 758.803 23.492 3.070 o
-2 -4 -1 766.877 730.368 22.709 3.285 o
-2 -4 0 1169.010 1180.760 29.297 1.974 o
-2 -4 1 543.838 555.674 14.326 8.254 o
-2 -4 2 418.430 411.102 10.939 14.158 o
-2 -4 3 377.977 348.530 12.161 11.454 o
-2 -4 4 269.771 284.552 9.391 19.210 o
-2 -4 5 333.441 352.425 16.811 5.995 o
-2 -4 6 148.395 152.106 6.065 46.056 o
-2 -4 7 171.939 170.853 6.292 42.787 o
-2 -4 8 253.874 252.172 8.934 21.224 o
-2 -4 9 50.671 45.467 4.367 88.826 o
-2 -4 10 283.263 269.209 14.238 8.357 o
-2 -4 11 194.632 202.505 11.426 12.975 o
-2 -4 12 126.699 123.896 8.435 23.809 o
-2 -4 13 55.237 51.269 5.444 57.161 o
-2 -4 14 20.458 22.913 4.128 99.423 o
-2 -3 -17 27.836 31.049 5.025 67.085 o
-2 -3 -16 26.599 28.835 4.606 79.837 o
-2 -3 -15 77.226 82.916 6.760 37.071 o
-2 -3 -14 44.196 41.877 4.726 75.846 o
-2 -3 -13 137.373 129.639 8.435 23.809 o
-2 -3 -12 133.626 132.989 8.256 24.856 o
-2 -3 -11 113.775 114.620 4.879 71.160 o
-2 -3 -10 46.231 47.700 2.901 201.234 o
-2 -3 -9 329.474 325.133 10.739 14.691 o
-2 -3 -8 258.931 257.069 9.263 19.744 o
-2 -3 -7 335.582 327.806 11.378 13.085 o
-2 -3 -6 327.050 354.360 11.379 13.083 o
-2 -3 -5 8.160 15.615 1.354 924.517 o
-2 -3 -4 32.526 32.874 1.879 479.706 o
-2 -3 -3 74.495 73.805 2.862 206.875 o
-2 -3 -2 130.193 120.521 4.547 81.952 o
-2 -3 -1 142.206 146.215 4.557 81.580 o
-2 -3 0 932.136 936.193 23.023 3.196 o
-2 -3 1 820.332 844.410 20.430 4.059 o
-2 -3 2 741.939 780.438 25.783 2.548 o
-2 -3 3 351.909 343.990 11.274 13.330 o
-2 -3 4 738.836 776.933 23.816 2.987 o
-2 -3 5 259.193 260.774 12.503 10.837 o
-2 -3 6 593.734 608.767 19.605 4.407 o
-2 -3 7 454.433 444.727 15.057 7.473 o
-2 -3 8 54.453 54.259 3.049 182.206 o
-2 -3 9 75.588 74.481 5.205 62.538 o
-2 -3 10 291.625 284.285 14.657 7.886 o
-2 -3 11 283.823 288.951 14.896 7.635 o
-2 -3 12 103.422 102.300 7.239 32.331 o
-2 -3 13 110.929 110.256 7.837 27.583 o
-2 -3 14 50.261 46.483 5.324 59.759 o
-2 -3 15 37.411 39.185 5.265 61.125 o
-2 -2 -17 24.543 18.964 4.008 105.447 o
-2 -2 -16 40.573 38.288 5.205 62.538 o
-2 -2 -15 99.517 105.769 7.717 28.445 o
-2 -2 -14 159.205 156.441 9.751 17.816 o
-2 -2 -13 122.844 120.381 5.145 64.006 o
-2 -2 -12 342.884 340.460 16.751 6.038 o
-2 -2 -11 100.701 98.411 7.119 33.426 o
-2 -2 -10 18.312 21.497 1.685 596.997 o
-2 -2 -9 346.012 334.994 10.856 14.375 o
-2 -2 -8 213.951 218.035 7.710 28.502 o
-2 -2 -7 359.080 365.844 11.883 11.997 o
-2 -2 -6 438.758 454.677 15.270 7.265 o
-2 -2 -5 215.791 216.581 6.768 36.981 o
-2 -2 -4 154.817 176.127 5.626 53.529 o
-2 -2 -3 275.869 282.054 9.898 17.293 o
-2 -2 -2 395.456 400.400 13.173 9.763 o
-2 -2 -1 519.845 462.867 13.656 9.084 o
-2 -2 0 309.197 317.907 7.899 27.150 o
-2 -2 1 460.222 482.858 14.636 7.909 o
-2 -2 2 419.129 441.606 14.956 7.574 o
-2 -2 3 145.467 132.944 4.820 72.913 o
-2 -2 4 213.902 209.842 6.705 37.685 o
-2 -2 5 170.397 155.663 7.897 27.167 o
-2 -2 6 232.390 212.961 7.466 30.396 o
-2 -2 7 252.556 231.312 8.290 24.651 o
-2 -2 8 358.742 336.044 12.054 11.659 o
-2 -2 9 287.032 267.807 9.315 19.522 o
-2 -2 10 56.473 62.995 4.965 68.711 o
-2 -2 11 151.515 143.937 9.093 20.488 o
-2 -2 12 183.407 180.430 10.589 15.109 o
-2 -2 13 44.367 50.731 4.965 68.711 o
-2 -2 14 15.822 13.281 3.171 168.513 o
-2 -2 15 71.894 77.173 6.760 37.071 o
-2 -1 -17 2.968 5.923 2.991 189.341 o
-2 -1 -16 11.181 6.940 2.931 197.148 o
-2 -1 -15 75.563 71.512 5.175 63.263 o
-2 -1 -14 110.151 102.442 4.948 69.189 o
-2 -1 -13 218.015 211.658 11.905 11.953 o
-2 -1 -12 289.307 255.031 13.879 8.794 o
-2 -1 -11 365.066 360.023 17.289 5.667 o
-2 -1 -10 699.200 679.843 31.707 1.685 o
-2 -1 -9 1509.510 1517.440 46.378 0.788 o
-2 -1 -8 607.963 608.909 18.624 4.884 o
-2 -1 -7 821.282 808.345 25.525 2.600 o
-2 -1 -6 1412.460 1410.260 43.062 0.914 o
-2 -1 -5 296.227 305.118 9.092 20.492 o
-2 -1 -4 117.345 119.224 3.806 116.921 o
-2 -1 -3 1812.660 1849.150 55.033 0.559 o
-2 -1 -2 359.105 352.245 16.870 5.952 o
-2 -1 -1 800.950 836.270 26.226 2.463 o
-2 -1 0 375.806 370.252 9.297 19.599 o
-2 -1 1 728.361 772.109 19.546 4.434 o
-2 -1 2 184.229 196.072 7.210 32.587 o
-2 -1 3 248.240 231.055 8.161 25.434 o
-2 -1 4 710.446 756.638 33.382 1.520 o
-2 -1 5 883.847 881.604 26.270 2.455 o
-2 -1 7 592.140 613.860 19.797 4.322 o
-2 -1 8 138.226 146.216 5.283 60.694 o
-2 -1 9 84.721 78.120 3.608 130.157 o
-2 -1 10 276.856 276.633 10.231 16.186 o
-2 -1 11 58.353 58.628 5.025 67.085 o
-2 -1 12 15.072 17.887 3.231 162.329 o
-2 -1 13 87.313 82.199 6.521 39.841 o
-2 -1 14 8.394 7.119 2.572 256.005 o
-2 -1 15 35.245 39.125 5.085 65.516 o
-2 0 -17 13.542 9.632 3.350 150.942 o
-2 0 -16 3.517 2.368 1.625 641.611 o
-2 0 -15 61.726 66.522 4.080 101.779 o
-2 0 -14 57.483 56.115 5.504 55.925 o
-2 0 -13 89.018 93.146 6.700 37.735 o
-2 0 -11 14.054 14.896 2.632 244.500 o
-2 0 -10 137.582 129.280 7.299 31.803 o
-2 0 -9 604.037 587.415 27.639 2.218 o
-2 0 -8 450.139 470.438 14.761 7.776 o
-2 0 -7 379.288 373.446 12.165 11.447 o
-2 0 -6 537.568 580.971 18.501 4.949 o
-2 0 -5 1412.790 1443.040 44.057 0.873 o
-2 0 -4 331.577 329.357 10.130 16.510 o
-2 0 -3 967.791 1002.410 31.346 1.724 o
-2 0 -2 816.477 789.153 24.070 2.924 o
-2 0 -1 1634.030 1772.530 74.062 0.309 o
-2 0 0 566.605 590.336 17.858 5.312 o
-2 0 1 189.267 196.336 9.004 20.898 o
-2 0 2 168.832 177.710 8.076 25.973 o
-2 0 3 279.435 277.427 18.007 5.225 o
-2 0 4 401.607 426.576 13.730 8.987 o
-2 0 5 435.411 456.578 15.143 7.388 o
-2 0 6 95.608 94.984 3.697 123.955 o
-2 0 8 30.989 34.897 2.991 189.341 o
-2 0 9 204.197 200.699 7.445 30.566 o
-2 0 10 176.628 169.342 6.448 40.740 o
-2 0 11 179.471 158.355 9.512 18.724 o
-2 0 12 107.440 94.881 6.880 35.792 o
-2 0 13 49.913 54.739 5.205 62.538 o
-2 0 14 23.564 22.913 3.948 108.667 o
-2 0 15 24.266 27.699 4.487 84.152 o
-2 1 -16 19.575 21.413 2.741 225.509 o
-2 1 -15 38.609 41.377 3.322 153.526 o
-2 1 -14 108.529 110.795 8.016 26.362 o
-2 1 -13 47.340 43.253 4.726 75.846 o
-2 1 -12 75.522 76.396 5.803 50.309 o
-2 1 -11 129.819 133.707 8.734 22.206 o
-2 1 -10 58.819 57.970 4.487 84.152 o
-2 1 -9 190.050 203.881 10.469 15.456 o
-2 1 -8 615.384 602.191 27.100 2.307 o
-2 1 -7 388.805 434.643 13.343 9.515 o
-2 1 -6 274.711 252.812 8.572 23.055 o
-2 1 -5 418.739 431.175 13.580 9.186 o
-2 1 -4 864.054 838.035 24.915 2.729 o
-2 1 -3 404.570 416.678 12.923 10.144 o
-2 1 -2 2468.460 2495.320 76.153 0.292 o
-2 1 -1 324.739 375.039 16.990 5.869 o
-2 1 0 1490.050 1419.570 57.611 0.510 o
-2 1 1 302.835 328.241 9.500 18.771 o
-2 1 2 171.798 179.892 6.940 35.178 o
-2 1 3 329.127 347.953 11.456 12.910 o
-2 1 4 346.517 345.165 15.345 7.195 o
-2 1 5 196.268 183.973 6.231 43.636 o
-2 1 6 215.680 229.676 7.863 27.403 o
-2 1 7 60.881 57.324 2.873 205.269 o
-2 1 8 140.898 138.433 7.598 29.348 o
-2 1 9 245.799 239.472 8.713 22.315 o
-2 1 10 182.651 180.311 6.895 35.632 o
-2 1 11 160.808 155.011 6.176 44.419 o
-2 1 12 178.032 185.635 10.350 15.816 o
-2 1 13 73.784 68.080 5.504 55.925 o
-2 1 14 54.197 55.517 5.205 62.538 o
-2 1 15 23.526 25.605 4.307 91.310 o
-2 1 16 35.266 38.467 5.025 67.085 o
-2 2 -16 12.082 12.488 2.325 313.476 o
-2 2 -15 77.187 81.660 6.880 35.792 o
-2 2 -14 106.204 116.897 8.076 25.973 o
-2 2 -13 58.599 57.072 5.504 55.925 o
-2 2 -12 127.655 121.563 7.897 27.167 o
-2 2 -11 103.562 107.325 7.119 33.426 o
-2 2 -10 331.563 341.896 17.588 5.476 o
-2 2 -9 101.708 94.522 6.401 41.344 o
-2 2 -8 511.304 485.295 22.853 3.244 o
-2 2 -7 272.038 260.595 11.307 13.251 o
-2 2 -6 93.505 95.052 3.559 133.728 o
-2 2 -5 258.215 262.218 9.003 20.901 o
-2 2 -4 547.684 547.227 16.602 6.147 o
-2 2 -3 105.940 94.847 3.709 123.141 o
-2 2 -2 1114.830 1062.600 49.415 0.694 o
-2 2 -1 1278.220 1273.420 53.782 0.586 o
-2 2 1 87.434 108.701 6.401 41.344 o
-2 2 2 192.412 197.250 8.136 25.592 o
-2 2 3 153.433 161.649 5.833 49.789 o
-2 2 4 1342.430 1361.150 68.708 0.359 o
-2 2 5 247.101 248.965 8.299 24.599 o
-2 2 6 252.234 254.411 8.152 25.489 o
-2 2 7 121.585 120.537 6.670 38.075 o
-2 2 8 68.466 71.750 3.523 136.500 o
-2 2 9 85.734 84.141 3.843 114.696 o
-2 2 10 88.555 92.189 5.923 48.296 o
-2 2 11 114.381 106.005 4.864 71.601 o
-2 2 12 21.036 22.135 3.290 156.480 o
-2 2 13 67.039 70.114 5.803 50.309 o
-2 2 14 88.895 95.898 6.999 34.579 o
-2 2 15 43.920 45.945 5.085 65.516 o
-2 3 -16 5.023 4.357 2.363 303.383 o
-2 3 -15 9.796 7.239 3.051 181.989 o
-2 3 -14 101.320 108.701 7.957 26.760 o
-2 3 -13 107.700 113.008 7.598 29.348 o
-2 3 -12 98.106 102.359 7.239 32.331 o
-2 3 -11 122.171 122.281 7.658 28.891 o
-2 3 -10 231.352 221.769 11.905 11.953 o
-2 3 -9 454.951 430.914 20.819 3.909 o
-2 3 -8 779.668 769.281 34.399 1.432 o
-2 3 -7 376.806 383.945 12.434 10.957 o
-2 3 -6 278.515 296.872 9.650 18.191 o
-2 3 -5 234.941 237.591 8.071 26.004 o
-2 3 -4 258.585 267.779 9.051 20.678 o
-2 3 -3 1320.710 1283.920 38.410 1.148 o
-2 3 -2 402.099 398.011 18.486 4.958 o
-2 3 -1 306.407 342.913 15.554 7.002 o
-2 3 0 525.389 464.775 20.939 3.864 o
-2 3 1 65.908 61.140 4.008 105.447 o
-2 3 2 8.439 9.230 0.759 2941.010 o
-2 3 4 261.707 276.019 9.447 18.981 o
-2 3 5 138.633 135.083 11.038 13.906 o
-2 3 6 4.893 8.573 1.406 857.135 o
-2 3 7 18.984 20.310 1.853 493.200 o
-2 3 8 26.412 26.941 2.111 380.182 o
-2 3 9 133.895 133.142 5.703 52.082 o
-2 3 10 118.522 117.586 4.960 68.873 o
-2 3 11 80.208 77.891 5.444 57.161 o
-2 3 12 30.132 27.905 2.599 250.749 o
-2 3 13 21.161 23.212 3.530 135.982 o
-2 3 14 27.811 29.912 3.948 108.667 o
-2 3 15 28.732 27.579 4.367 88.826 o
-2 4 -15 4.464 3.530 2.872 205.448 o
-2 4 -14 8.054 7.179 2.931 197.148 o
-2 4 -13 47.574 48.039 5.145 64.001 o
-2 4 -12 18.130 20.879 3.470 140.711 o
-2 4 -11 11.181 14.178 2.991 189.341 o
-2 4 -10 20.683 20.998 3.231 162.329 o
-2 4 -9 127.179 120.307 7.358 31.288 o
-2 4 -8 344.461 333.700 16.392 6.305 o
-2 4 -7 640.049 663.033 30.211 1.856 o
-2 4 -6 184.859 174.563 6.373 41.718 o
-2 4 -5 276.419 285.016 9.790 17.677 o
-2 4 -4 425.497 427.704 13.937 8.721 o
-2 4 -3 1234.300 1235.130 51.210 0.646 o
-2 4 -2 1593.040 1614.240 69.276 0.353 o
-2 4 -1 376.908 355.476 18.665 4.863 o
-2 4 0 750.959 786.630 31.468 1.711 o
-2 4 1 628.151 624.506 28.237 2.125 o
-2 4 2 293.078 312.709 9.743 17.846 o
-2 4 3 451.292 488.624 15.453 7.094 o
-2 4 4 286.198 290.059 9.799 17.642 o
-2 4 5 145.106 157.194 6.670 38.075 o
-2 4 6 146.519 146.150 5.332 59.588 o
-2 4 7 45.150 46.536 2.788 217.928 o
-2 4 8 83.340 84.915 4.696 76.815 o
-2 4 9 36.101 33.166 3.709 123.141 o
-2 4 10 82.447 76.584 3.952 108.460 o
-2 4 11 69.391 72.001 3.966 107.726 o
-2 4 12 10.338 11.040 1.874 482.624 o
-2 4 13 9.597 9.093 2.572 256.005 o
-2 4 14 15.681 16.392 3.231 162.329 o
-2 4 15 10.492 11.546 3.051 181.989 o
-2 5 -14 10.951 13.341 3.530 135.982 o
-2 5 -13 25.397 24.887 4.188 96.603 o
-2 5 -12 21.088 23.511 3.948 108.667 o
-2 5 -11 13.992 14.178 3.051 181.989 o
-2 5 -10 13.276 13.879 2.872 205.448 o
-2 5 -9 91.582 84.053 6.162 44.618 o
-2 5 -8 200.560 189.284 10.409 15.635 o
-2 5 -7 142.655 147.766 8.196 25.220 o
-2 5 -6 358.470 360.239 11.563 12.671 o
-2 5 -5 214.881 221.637 7.780 27.985 o
-2 5 -4 377.871 360.454 11.928 11.906 o
-2 5 -3 821.449 816.482 35.835 1.319 o
-2 5 -2 790.208 795.065 34.698 1.407 o
-2 5 -1 439.675 441.586 14.248 8.346 o
-2 5 0 388.520 373.252 11.624 12.539 o
-2 5 1 94.184 94.163 5.803 50.309 o
-2 5 2 483.190 479.661 14.807 7.726 o
-2 5 3 300.749 285.688 9.360 19.335 o
-2 5 4 295.294 313.856 10.684 14.840 o
-2 5 5 201.730 198.848 7.138 33.252 o
-2 5 6 358.864 361.632 11.722 12.330 o
-2 5 7 57.511 58.204 3.105 175.752 o
-2 5 8 257.345 258.420 9.381 19.251 o
-2 5 9 87.104 85.701 4.195 96.281 o
-2 5 10 154.412 153.496 6.388 41.512 o
-2 5 11 106.363 104.868 5.205 62.538 o
-2 5 12 39.111 39.286 3.142 171.569 o
-2 5 13 5.144 6.190 1.789 529.600 o
-2 5 14 22.738 21.776 3.829 115.565 o
-2 6 -13 46.823 48.637 5.623 53.571 o
-2 6 -12 38.786 46.543 5.324 59.759 o
-2 6 -11 17.770 16.631 3.350 150.942 o
-2 6 -10 40.704 42.535 4.666 77.803 o
-2 6 -9 46.130 43.492 4.367 88.826 o
-2 6 -8 125.903 121.264 7.777 28.009 o
-2 6 -7 19.308 18.067 2.931 197.148 o
-2 6 -6 19.195 19.024 2.752 223.702 o
-2 6 -5 15.586 14.418 2.393 295.845 o
-2 6 -4 29.535 27.897 2.091 387.437 o
-2 6 -3 238.958 223.504 12.204 11.374 o
-2 6 -2 397.224 387.063 19.263 4.565 o
-2 6 0 410.513 414.882 21.238 3.756 o
-2 6 1 406.578 393.464 19.323 4.537 o
-2 6 2 187.926 182.464 10.409 15.635 o
-2 6 3 382.798 372.526 19.204 4.594 o
-2 6 4 494.366 496.960 23.391 3.096 o
-2 6 5 89.719 87.702 6.222 43.764 o
-2 6 6 223.808 220.333 12.144 11.487 o
-2 6 7 101.466 98.830 6.820 36.423 o
-2 6 8 14.595 14.956 3.171 168.513 o
-2 6 9 85.782 94.881 6.940 35.178 o
-2 6 10 127.916 135.861 9.153 20.221 o
-2 6 11 78.133 77.293 6.880 35.792 o
-2 6 12 48.219 51.928 5.863 49.287 o
-2 6 13 18.540 16.332 3.769 119.262 o
-2 7 -12 29.058 31.348 4.846 72.146 o
-2 7 -11 18.656 22.853 3.948 108.667 o
-2 7 -10 21.749 19.443 3.589 131.487 o
-2 7 -9 91.924 95.599 6.999 34.579 o
-2 7 -8 78.873 90.036 6.641 38.418 o
-2 7 -7 135.741 133.887 8.495 23.475 o
-2 7 -6 96.647 95.539 6.641 38.418 o
-2 7 -5 36.917 38.809 2.599 250.749 o
-2 7 -4 202.614 190.280 7.381 31.097 o
-2 7 -3 472.972 458.673 21.118 3.799 o
-2 7 -2 106.233 103.795 6.820 36.423 o
-2 7 -1 193.835 180.789 9.871 17.387 o
-2 7 0 322.125 310.967 14.418 8.150 o
-2 7 2 83.300 81.780 6.042 46.403 o
-2 7 3 64.203 67.362 5.444 57.161 o
-2 7 5 36.383 30.630 4.128 99.423 o
-2 7 6 21.778 20.759 3.589 131.487 o
-2 7 7 29.884 29.134 4.188 96.603 o
-2 7 8 62.755 61.021 5.923 48.296 o
-2 7 9 22.041 21.716 4.008 105.447 o
-2 7 10 75.639 86.207 7.239 32.331 o
-2 7 11 44.741 47.859 5.623 53.571 o
-2 7 12 15.891 16.571 3.948 108.667 o
-2 7 13 29.281 35.596 5.564 54.729 o
-2 8 -11 49.524 53.782 5.803 50.309 o
-2 8 -10 22.857 25.246 4.068 102.369 o
-2 8 -9 82.055 81.421 6.641 38.418 o
-2 8 -8 88.646 98.112 7.059 33.995 o
-2 8 -7 77.486 83.814 6.341 42.128 o
-2 8 -6 81.169 80.643 6.162 44.618 o
-2 8 -5 104.420 115.820 7.478 30.295 o
-2 8 -4 43.240 43.463 3.003 187.913 o
-2 8 -3 248.037 241.630 13.101 9.870 o
-2 8 -2 202.263 197.420 11.426 12.975 o
-2 8 -1 201.315 193.950 10.888 14.290 o
-2 8 0 134.324 131.733 8.435 23.809 o
-2 8 1 210.598 192.993 11.307 13.251 o
-2 8 2 214.806 205.975 11.726 12.322 o
-2 8 3 242.663 249.348 14.059 8.571 o
-2 8 4 190.621 189.105 11.247 13.393 o
-2 8 5 135.011 137.057 9.213 19.959 o
-2 8 6 63.886 65.209 6.042 46.403 o
-2 8 7 57.985 54.679 5.623 53.571 o
-2 8 8 51.395 57.551 5.923 48.296 o
-2 8 9 56.817 63.294 6.461 40.582 o
-2 8 10 35.824 32.963 5.145 64.001 o
-2 8 11 17.957 18.127 4.128 99.423 o
-2 8 12 12.467 8.734 3.530 135.982 o
-2 9 -9 36.063 35.655 4.906 70.397 o
-2 9 -8 42.234 46.483 5.265 61.125 o
-2 9 -7 35.879 37.151 4.547 81.952 o
-2 9 -6 37.609 40.800 4.547 81.952 o
-2 9 -5 56.234 59.764 5.265 61.125 o
-2 9 -4 49.516 50.073 3.530 135.982 o
-2 9 -3 86.624 80.464 6.521 39.841 o
-2 9 -2 74.403 81.122 6.282 42.934 o
-2 9 -1 71.411 74.362 6.162 44.618 o
-2 9 0 69.385 67.183 5.803 50.309 o
-2 9 1 72.658 72.806 6.102 45.497 o
-2 9 2 124.134 119.529 8.435 23.809 o
-2 9 3 126.568 123.776 8.794 21.905 o
-2 9 4 145.476 142.801 9.751 17.816 o
-2 9 5 107.115 108.162 8.375 24.151 o
-2 9 6 77.971 75.498 6.820 36.423 o
-2 9 7 61.835 64.072 6.641 38.418 o
-2 9 8 51.072 53.184 6.222 43.764 o
-2 9 9 38.293 34.937 5.444 57.161 o
-2 9 10 73.001 80.763 7.897 27.167 o
-2 10 -7 10.617 7.598 2.872 205.448 o
-2 10 -6 11.220 9.692 2.872 205.448 o
-2 10 -5 4.603 2.513 2.034 409.475 o
-2 10 -4 33.092 33.322 4.248 93.901 o
-2 10 -3 52.946 50.851 5.504 55.925 o
-2 10 -2 43.449 42.774 5.085 65.516 o
-2 10 -1 30.087 32.185 4.606 79.837 o
-2 10 0 35.246 34.698 4.666 77.803 o
-2 10 1 35.530 37.211 4.846 72.146 o
-2 10 2 51.979 50.432 5.623 53.571 o
-2 10 3 83.354 89.677 7.538 29.816 o
-2 10 4 62.729 63.175 6.521 39.841 o
-2 10 5 36.873 34.638 5.085 65.516 o
-2 10 6 66.460 62.816 6.641 38.418 o
-2 10 7 81.207 84.412 7.777 28.009 o
-2 10 8 60.346 63.892 7.239 32.331 o
-2 11 -2 60.349 61.440 6.341 42.128 o
-2 11 -1 44.888 54.380 5.923 48.296 o
-2 11 0 8.029 10.888 3.350 150.942 o
-2 11 1 15.512 15.016 3.769 119.262 o
-2 11 2 10.163 11.965 3.649 127.211 o
-2 11 3 7.449 5.982 3.051 181.989 o
-2 11 4 20.372 21.956 4.547 81.952 o
-2 11 5 3.990 5.145 3.051 181.989 o
-1 -12 -6 40.575 44.928 5.265 61.125 o
-1 -12 -5 47.611 50.133 5.444 57.161 o
-1 -12 -4 57.099 58.807 5.683 52.449 o
-1 -12 -3 33.418 33.442 4.487 84.152 o
-1 -12 -2 3.739 2.453 2.213 345.765 o
-1 -12 -1 19.565 15.554 3.231 162.329 o
-1 -12 0 8.474 5.085 2.692 233.754 o
-1 -11 -9 15.892 16.930 3.589 131.487 o
-1 -11 -8 7.437 8.615 2.752 223.702 o
-1 -11 -7 21.917 24.289 3.948 108.667 o
-1 -11 -6 13.116 11.785 2.991 189.341 o
-1 -11 -5 19.866 21.297 3.530 135.982 o
-1 -11 -4 14.515 14.956 2.991 189.341 o
-1 -11 -3 37.202 36.553 4.188 96.603 o
-1 -11 -2 37.680 38.903 3.364 149.668 o
-1 -11 -1 66.394 69.916 4.344 89.780 o
-1 -11 0 47.051 47.297 3.500 138.275 o
-1 -11 1 53.665 58.938 3.805 117.008 o
-1 -11 2 57.073 63.414 6.102 45.497 o
-1 -11 3 34.756 32.185 4.786 73.961 o
-1 -10 -12 69.276 73.165 6.700 37.735 o
-1 -10 -11 77.618 81.540 6.999 34.579 o
-1 -10 -10 100.720 102.838 7.598 29.348 o
-1 -10 -9 84.992 78.370 6.760 37.071 o
-1 -10 -8 73.909 79.686 6.581 39.120 o
-1 -10 -7 92.437 86.147 6.880 35.792 o
-1 -10 -6 83.561 88.241 6.461 40.582 o
-1 -10 -5 95.282 99.966 6.940 35.178 o
-1 -10 -4 73.594 71.259 4.216 95.312 o
-1 -10 -3 17.726 18.206 2.341 309.184 o
-1 -10 -2 62.740 63.858 3.891 111.919 o
-1 -10 -1 117.722 121.487 5.613 53.770 o
-1 -10 0 84.654 86.649 4.480 84.406 o
-1 -10 1 76.881 79.782 4.238 94.344 o
-1 -10 2 35.502 35.368 2.904 200.944 o
-1 -10 3 29.528 29.504 6.371 41.734 o
-1 -10 4 29.377 25.007 3.948 108.667 o
-1 -10 5 13.998 12.922 2.991 189.341 o
-1 -10 6 10.969 11.008 2.872 205.448 o
-1 -10 7 31.645 29.912 4.307 91.310 o
-1 -10 8 18.660 16.930 3.649 127.211 o
-1 -9 -13 28.314 32.365 4.786 73.961 o
-1 -9 -12 90.970 96.377 7.418 30.785 o
-1 -9 -11 37.690 41.937 4.846 72.146 o
-1 -9 -10 88.701 88.001 6.760 37.071 o
-1 -9 -9 78.781 82.378 6.341 42.128 o
-1 -9 -8 52.229 58.329 5.205 62.538 o
-1 -9 -7 173.249 176.781 10.529 15.281 o
-1 -9 -6 247.088 247.787 9.654 18.176 o
-1 -9 -5 174.609 165.057 7.064 33.947 o
-1 -9 -4 222.092 231.670 9.118 20.375 o
-1 -9 -3 248.057 242.032 9.373 19.284 o
-1 -9 -2 125.881 114.120 5.323 59.788 o
-1 -9 -1 147.054 148.981 6.318 42.437 o
-1 -9 0 247.653 236.114 8.859 21.586 o
-1 -9 1 265.082 260.869 9.320 19.503 o
-1 -9 2 54.782 50.623 3.244 160.986 o
-1 -9 3 136.604 133.527 5.830 49.837 o
-1 -9 4 90.883 87.142 4.394 87.747 o
-1 -9 5 75.941 81.900 5.982 47.335 o
-1 -9 6 84.675 83.455 6.401 41.344 o
-1 -9 7 45.178 46.184 4.906 70.397 o
-1 -9 8 21.921 21.956 3.829 115.565 o
-1 -9 9 30.671 29.613 4.427 86.441 o
-1 -9 10 3.232 1.735 2.333 311.212 o
-1 -8 -14 0.241 1.795 2.213 345.765 o
-1 -8 -13 7.216 11.307 2.991 189.341 o
-1 -8 -12 10.342 9.213 2.692 233.754 o
-1 -8 -11 14.252 14.298 3.051 181.989 o
-1 -8 -10 72.347 72.328 5.982 47.335 o
-1 -8 -9 24.000 24.648 3.709 123.141 o
-1 -8 -8 55.053 52.645 4.547 81.952 o
-1 -8 -7 276.993 275.642 10.104 16.596 o
-1 -8 -6 237.591 232.023 8.768 22.034 o
-1 -8 -5 227.976 219.814 8.318 24.487 o
-1 -8 -4 100.833 94.623 4.480 84.406 o
-1 -8 -3 60.729 70.105 3.654 126.876 o
-1 -8 -2 106.052 119.574 5.330 59.631 o
-1 -8 -1 212.272 221.011 8.445 23.755 o
-1 -8 0 79.194 88.505 4.284 92.290 o
-1 -8 1 110.854 114.650 5.008 67.551 o
-1 -8 2 54.413 53.967 2.433 286.129 o
-1 -8 3 201.322 198.441 7.840 27.561 o
-1 -8 4 156.826 158.897 6.513 39.939 o
-1 -8 5 88.839 87.355 4.230 94.699 o
-1 -8 6 123.911 128.144 7.598 29.348 o
-1 -8 7 274.319 280.875 14.477 8.083 o
-1 -8 8 38.035 37.570 4.367 88.826 o
-1 -8 9 52.851 50.611 5.085 65.516 o
-1 -8 10 18.306 20.580 3.709 123.141 o
-1 -8 11 14.783 16.930 3.709 123.141 o
-1 -7 -15 51.269 55.637 5.923 48.296 o
-1 -7 -14 34.470 32.126 4.606 79.837 o
-1 -7 -13 119.184 127.785 8.555 23.148 o
-1 -7 -12 101.016 97.992 7.059 33.995 o
-1 -7 -11 115.353 120.366 7.717 28.445 o
-1 -7 -10 67.267 71.370 5.623 53.571 o
-1 -7 -7 66.163 69.188 3.716 122.677 o
-1 -7 -6 186.383 187.107 7.263 32.118 o
-1 -7 -5 197.189 197.039 7.559 29.646 o
-1 -7 -4 78.000 80.284 5.324 59.759 o
-1 -7 -3 188.697 196.156 7.494 30.169 o
-1 -7 -2 370.808 348.169 11.853 12.058 o
-1 -7 -1 559.543 578.931 18.985 4.700 o
-1 -7 0 502.545 502.028 16.487 6.232 o
-1 -7 1 311.147 308.335 8.472 23.603 o
-1 -7 2 94.847 55.816 4.128 99.423 o
-1 -7 3 117.655 130.276 4.315 90.978 o
-1 -7 4 151.070 159.206 6.281 42.943 o
-1 -7 5 204.957 202.055 7.445 30.566 o
-1 -7 6 63.543 62.996 3.273 158.113 o
-1 -7 7 69.213 70.653 5.145 64.001 o
-1 -7 8 303.078 302.352 15.136 7.395 o
-1 -7 9 58.273 53.662 5.145 64.001 o
-1 -7 10 19.442 20.998 3.530 135.982 o
-1 -7 11 69.489 69.635 6.102 45.497 o
-1 -7 12 59.575 69.456 6.461 40.582 o
-1 -6 -16 24.155 29.015 4.666 77.803 o
-1 -6 -15 32.252 33.023 4.666 77.803 o
-1 -6 -14 83.490 91.950 6.940 35.178 o
-1 -6 -13 31.606 30.570 4.068 102.369 o
-1 -6 -12 122.762 127.127 7.897 27.167 o
-1 -6 -11 172.151 173.849 9.871 17.387 o
-1 -6 -10 36.313 41.159 4.188 96.603 o
-1 -6 -9 105.938 110.914 7.598 29.348 o
-1 -6 -8 273.937 280.649 9.686 18.057 o
-1 -6 -7 62.891 66.231 3.547 134.685 o
-1 -6 -6 145.836 149.364 6.127 45.130 o
-1 -6 -5 295.751 297.100 10.509 15.340 o
-1 -6 -4 137.732 138.326 5.591 54.204 o
-1 -6 -3 49.411 44.928 4.307 91.310 o
-1 -6 -2 571.469 590.425 19.220 4.586 o
-1 -6 -1 692.951 717.283 23.069 3.183 o
-1 -6 0 425.352 429.341 11.297 13.275 o
-1 -6 1 305.139 324.240 8.812 21.819 o
-1 -6 2 416.765 420.390 9.642 18.221 o
-1 -6 3 91.865 92.362 2.729 227.396 o
-1 -6 4 124.858 124.494 7.837 27.583 o
-1 -6 5 116.289 118.604 4.843 72.215 o
-1 -6 6 157.500 153.499 5.794 50.472 o
-1 -6 8 27.870 31.288 3.589 131.487 o
-1 -6 9 34.509 36.792 4.008 105.447 o
-1 -6 10 6.980 6.700 2.333 311.212 o
-1 -6 11 82.837 85.728 6.641 38.418 o
-1 -6 12 71.226 74.122 6.401 41.344 o
-1 -6 13 43.545 51.090 5.683 52.449 o
-1 -5 -16 40.123 44.090 5.504 55.925 o
-1 -5 -15 4.278 3.231 2.213 345.765 o
-1 -5 -14 27.839 28.117 4.068 102.369 o
-1 -5 -13 92.869 89.377 6.641 38.418 o
-1 -5 -12 212.977 203.462 10.948 14.135 o
-1 -5 -11 114.347 104.334 6.940 35.178 o
-1 -5 -10 245.971 235.827 12.982 10.052 o
-1 -5 -8 722.485 736.722 23.224 3.141 o
-1 -5 -7 797.844 808.794 25.169 2.674 o
-1 -5 -6 341.111 331.895 11.357 13.135 o
-1 -5 -5 508.870 526.476 16.727 6.055 o
-1 -5 -4 439.931 442.274 13.955 8.699 o
-1 -5 -3 25.390 34.977 2.052 402.267 o
-1 -5 -2 588.087 594.195 18.777 4.805 o
-1 -5 -1 246.781 252.607 8.383 24.104 o
-1 -5 0 549.072 543.743 25.964 2.513 o
-1 -5 1 273.040 283.624 11.187 13.536 o
-1 -5 2 579.669 588.392 12.972 10.067 o
-1 -5 3 690.773 715.993 18.511 4.944 o
-1 -5 4 482.499 435.641 37.959 1.176 o
-1 -5 5 434.008 443.163 14.340 8.239 o
-1 -5 6 289.649 292.364 9.810 17.605 o
-1 -5 7 259.810 255.092 8.680 22.485 o
-1 -5 8 120.579 114.683 7.418 30.785 o
-1 -5 9 2.481 3.231 1.735 562.845 o
-1 -5 10 58.713 62.516 5.025 67.085 o
-1 -5 11 71.341 74.661 5.743 51.362 o
-1 -5 12 12.664 14.597 3.171 168.513 o
-1 -5 13 2.618 2.213 2.154 365.241 o
-1 -5 14 5.721 4.188 2.513 268.341 o
-1 -4 -17 40.617 50.073 5.803 50.309 o
-1 -4 -16 0.444 1.256 2.094 386.410 o
-1 -4 -15 9.270 7.717 2.632 244.500 o
-1 -4 -14 46.831 50.432 4.965 68.711 o
-1 -4 -13 14.240 15.554 2.991 189.341 o
-1 -4 -12 26.944 24.169 3.530 135.982 o
-1 -4 -11 294.843 269.987 13.640 9.106 o
-1 -4 -9 81.741 73.121 3.102 176.037 o
-1 -4 -8 369.216 359.729 9.386 19.230 o
-1 -4 -7 562.568 548.868 13.985 8.662 o
-1 -4 -6 388.229 406.700 13.113 9.852 o
-1 -4 -5 435.732 452.311 14.910 7.620 o
-1 -4 -4 601.921 593.779 19.225 4.584 o
-1 -4 -3 555.807 576.467 17.658 5.433 o
-1 -4 -2 1181.390 1125.470 52.645 0.611 o
-1 -4 -1 2656.350 2792.090 86.465 0.227 o
-1 -4 0 1537.410 1619.950 49.663 0.687 o
-1 -4 1 936.285 971.456 24.245 2.882 o
-1 -4 2 1254.680 1258.360 31.234 1.737 o
-1 -4 3 623.203 656.332 28.716 2.054 o
-1 -4 4 369.009 366.311 12.204 11.375 o
-1 -4 5 1164.220 1156.560 36.147 1.297 o
-1 -4 6 668.665 686.436 21.212 3.765 o
-1 -4 7 138.445 133.883 5.015 67.365 o
-1 -4 8 262.031 253.535 13.221 9.692 o
-1 -4 9 224.419 213.214 11.965 11.834 o
-1 -4 10 39.415 42.834 4.068 102.369 o
-1 -4 11 99.219 106.846 7.239 32.331 o
-1 -4 12 61.506 62.816 5.504 55.925 o
-1 -4 13 19.629 20.520 3.589 131.487 o
-1 -4 14 14.035 12.922 3.171 168.513 o
-1 -4 15 7.271 4.965 2.632 244.500 o
-1 -3 -17 101.214 113.128 8.675 22.514 o
-1 -3 -16 32.283 33.322 4.666 77.803 o
-1 -3 -15 16.746 13.042 3.111 175.057 o
-1 -3 -14 74.144 75.977 6.222 43.764 o
-1 -3 -13 165.797 162.602 9.572 18.490 o
-1 -3 -12 25.588 24.707 3.470 140.711 o
-1 -3 -11 30.022 27.747 1.991 427.282 o
-1 -3 -10 26.291 21.920 1.671 606.623 o
-1 -3 -9 6.719 5.743 1.735 562.845 o
-1 -3 -8 42.970 40.722 2.035 409.052 o
-1 -3 -7 268.200 247.057 6.548 39.508 o
-1 -3 -6 173.554 173.561 4.608 79.792 o
-1 -3 -5 252.007 251.652 6.580 39.128 o
-1 -3 -4 196.750 228.155 8.078 25.959 o
-1 -3 -3 408.209 373.047 11.419 12.991 o
-1 -3 -2 777.349 764.431 23.582 3.046 o
-1 -3 -1 1507.060 1500.510 65.268 0.398 o
-1 -3 0 653.086 675.285 16.854 5.964 o
-1 -3 1 743.400 786.557 19.721 4.356 o
-1 -3 2 891.384 896.428 22.599 3.317 o
-1 -3 3 224.057 226.256 11.546 12.708 o
-1 -3 4 324.600 314.954 10.363 15.775 o
-1 -3 5 1195.010 1183.880 36.823 1.249 o
-1 -3 6 1089.700 1106.710 33.777 1.485 o
-1 -3 7 347.859 340.640 15.076 7.454 o
-1 -3 8 266.057 275.293 9.500 18.771 o
-1 -3 9 175.017 180.011 10.409 15.635 o
-1 -3 10 302.584 285.960 14.238 8.357 o
-1 -3 11 171.101 164.158 9.512 18.724 o
-1 -3 12 109.577 105.530 7.478 30.295 o
-1 -3 13 39.022 37.330 4.547 81.952 o
-1 -3 14 28.380 24.887 4.188 96.603 o
-1 -3 15 10.309 7.059 2.752 223.702 o
-1 -2 -17 61.403 70.892 6.521 39.841 o
-1 -2 -16 69.486 65.567 6.042 46.403 o
-1 -2 -15 44.457 41.458 4.846 72.146 o
-1 -2 -14 62.021 61.200 5.564 54.729 o
-1 -2 -13 199.104 194.250 7.361 31.263 o
-1 -2 -12 233.964 225.971 8.025 26.303 o
-1 -2 -11 103.232 99.487 4.395 87.705 o
-1 -2 -10 5.391 6.144 1.140 1304.280 o
-1 -2 -8 28.983 30.231 1.867 486.268 o
-1 -2 -7 167.434 164.394 6.107 45.420 o
-1 -2 -6 247.838 241.167 7.210 32.587 o
-1 -2 -5 291.916 264.244 8.608 22.861 o
-1 -2 -4 105.767 115.255 4.082 101.671 o
-1 -2 -3 410.590 426.971 13.304 9.571 o
-1 -2 -2 103.788 108.067 3.550 134.399 o
-1 -2 0 2084.060 2202.450 55.278 0.554 o
-1 -2 1 232.254 221.449 5.800 50.357 o
-1 -2 2 452.666 495.405 21.896 3.534 o
-1 -2 3 493.557 439.828 22.793 3.261 o
-1 -2 4 245.072 230.426 13.341 9.519 o
-1 -2 5 509.193 502.462 15.417 7.128 o
-1 -2 6 594.264 597.299 18.948 4.719 o
-1 -2 7 286.085 271.864 8.850 21.632 o
-1 -2 8 189.908 185.726 6.488 40.243 o
-1 -2 10 363.511 359.963 18.007 5.225 o
-1 -2 11 198.802 187.669 10.110 16.573 o
-1 -2 12 131.936 131.255 8.196 25.220 o
-1 -2 13 61.543 60.722 5.444 57.161 o
-1 -2 14 40.352 39.663 4.547 81.952 o
-1 -2 15 2.712 0.838 2.034 409.475 o
-1 -2 16 49.981 50.731 5.743 51.362 o
-1 -1 -17 7.636 3.649 2.572 256.005 o
-1 -1 -16 44.360 42.774 5.085 65.516 o
-1 -1 -15 21.325 21.987 2.543 261.928 o
-1 -1 -14 90.753 86.179 4.384 88.138 o
-1 -1 -13 230.407 226.562 8.537 23.244 o
-1 -1 -12 137.790 139.764 5.553 54.940 o
-1 -1 -11 446.145 447.825 14.420 8.147 o
-1 -1 -10 394.129 366.609 24.648 2.789 o
-1 -1 -9 113.082 114.384 6.581 39.120 o
-1 -1 -8 961.611 923.627 41.877 0.966 o
-1 -1 -7 1221.180 1154.430 50.312 0.669 o
-1 -1 -6 1646.100 1638.630 48.732 0.713 o
-1 -1 -5 209.844 196.217 6.023 46.706 o
-1 -1 -4 475.626 520.192 14.804 7.730 o
-1 -1 -3 426.412 409.464 11.760 12.250 o
-1 -1 -2 2199.480 2226.470 65.483 0.395 o
-1 -1 -1 751.440 708.918 28.656 2.063 o
-1 -1 0 3059.420 2937.400 74.988 0.301 o
-1 -1 1 1220.880 1179.180 35.421 1.350 o
-1 -1 2 2036.250 1923.690 61.846 0.443 o
-1 -1 3 2446.610 2610.250 109.897 0.140 o
-1 -1 4 749.094 802.293 24.049 2.929 o
-1 -1 5 783.839 775.828 25.021 2.706 o
-1 -1 6 2188.810 2200.230 66.478 0.383 o
-1 -1 7 633.824 636.664 19.117 4.636 o
-1 -1 8 19.933 19.854 1.523 730.513 o
-1 -1 9 186.655 187.587 6.410 41.237 o
-1 -1 10 122.438 114.025 6.880 35.792 o
-1 -1 11 54.780 54.620 4.427 86.441 o
-1 -1 12 71.469 68.858 5.324 59.759 o
-1 -1 13 30.430 30.809 3.948 108.667 o
-1 -1 14 15.166 16.930 3.290 156.480 o
-1 -1 15 7.366 3.948 2.333 311.212 o
-1 -1 16 12.124 12.264 3.350 150.942 o
-1 0 -17 18.454 17.205 2.546 261.256 o
-1 0 -16 42.300 40.176 3.414 145.353 o
-1 0 -15 86.155 91.141 4.699 76.707 o
-1 0 -14 38.323 37.936 2.989 189.599 o
-1 0 -13 108.321 110.777 5.091 65.364 o
-1 0 -12 151.688 159.441 6.277 43.002 o
-1 0 -11 198.305 187.190 9.452 18.961 o
-1 0 -10 33.968 33.621 3.649 127.211 o
-1 0 -9 162.967 166.611 8.794 21.905 o
-1 0 -8 40.401 40.381 3.589 131.487 o
-1 0 -7 548.290 565.041 26.203 2.467 o
-1 0 -6 801.415 764.136 35.655 1.333 o
-1 0 -5 116.584 107.510 3.910 110.835 o
-1 0 -4 1653.590 1759.010 56.150 0.537 o
-1 0 -3 2042.530 2077.220 65.357 0.397 o
-1 0 -2 1959.820 1889.150 58.651 0.492 o
-1 0 -1 6365.740 5946.090 186.521 0.049 o
-1 0 0 2379.210 2381.850 74.170 0.308 o
-1 0 1 2902.680 2875.310 88.493 0.216 o
-1 0 2 3513.610 3535.380 105.352 0.153 o
-1 0 3 185.293 219.293 12.264 11.264 o
-1 0 4 2630.950 2673.970 114.743 0.129 o
-1 0 5 2866.550 2922.050 140.557 0.086 o
-1 0 6 621.462 682.869 22.250 3.422 o
-1 0 7 945.529 958.329 29.420 1.957 o
-1 0 8 286.788 299.266 9.832 17.525 o
-1 0 9 144.305 137.056 5.572 54.568 o
-1 0 10 242.349 236.827 8.618 22.808 o
-1 0 11 287.825 277.585 14.059 8.571 o
-1 0 12 119.249 109.837 7.239 32.331 o
-1 0 13 49.349 51.628 4.786 73.961 o
-1 0 14 23.682 21.417 3.769 119.262 o
-1 0 15 43.060 44.808 5.025 67.085 o
-1 0 16 6.912 5.324 2.632 244.500 o
-1 1 -17 38.160 42.970 3.814 116.450 o
-1 1 -16 23.768 25.521 2.939 196.188 o
-1 1 -15 60.742 62.608 3.993 106.234 o
-1 1 -14 45.222 44.493 3.287 156.839 o
-1 1 -13 38.700 43.634 3.104 175.852 o
-1 1 -12 85.396 76.097 5.982 47.335 o
-1 1 -11 152.293 145.313 8.435 23.809 o
-1 1 -10 8.053 9.213 2.154 365.241 o
-1 1 -9 75.499 71.191 5.085 65.516 o
-1 1 -7 529.864 531.180 23.032 3.193 o
-1 1 -6 145.205 164.098 7.897 27.167 o
-1 1 -5 457.253 433.906 17.588 5.476 o
-1 1 -4 430.116 431.768 12.917 10.153 o
-1 1 -3 54.230 66.657 2.401 293.816 o
-1 1 -2 391.073 428.218 12.987 10.045 o
-1 1 1 100.966 105.364 4.666 77.803 o
-1 1 2 36.397 33.442 2.094 386.410 o
-1 1 3 291.725 301.390 20.131 4.180 o
-1 1 4 644.835 681.435 19.924 4.268 o
-1 1 5 1789.410 1892.300 80.942 0.259 o
-1 1 6 943.234 921.589 28.850 2.035 o
-1 1 7 768.678 797.810 24.768 2.762 o
-1 1 8 475.858 493.134 15.523 7.030 o
-1 1 9 274.284 271.915 9.727 17.905 o
-1 1 10 286.221 279.805 10.019 16.877 o
-1 1 11 255.569 251.083 13.042 9.960 o
-1 1 12 241.218 217.102 11.905 11.953 o
-1 1 13 51.721 47.381 4.726 75.846 o
-1 1 14 15.556 16.990 3.290 156.480 o
-1 1 15 20.702 22.554 3.889 112.036 o
-1 1 16 15.726 12.204 3.231 162.329 o
-1 2 -16 44.222 42.450 3.687 124.637 o
-1 2 -15 128.916 136.426 6.324 42.359 o
-1 2 -14 112.219 111.177 5.433 57.399 o
-1 2 -13 99.520 99.307 4.882 71.066 o
-1 2 -12 123.387 115.341 7.418 30.785 o
-1 2 -11 356.338 356.014 17.349 5.628 o
-1 2 -10 29.257 29.493 3.350 150.942 o
-1 2 -9 169.197 176.721 10.290 16.000 o
-1 2 -8 135.032 137.656 7.179 32.872 o
-1 2 -7 95.888 90.873 5.504 55.925 o
-1 2 -6 468.192 479.552 21.656 3.612 o
-1 2 -5 64.963 52.558 4.158 97.998 o
-1 2 -4 502.127 549.010 16.008 6.611 o
-1 2 -3 567.655 613.059 19.501 4.455 o
-1 2 -2 2342.030 2479.900 120.666 0.116 o
-1 2 -1 5071.480 5040.140 216.384 0.036 o
-1 2 0 2795.740 2762.580 68.940 0.356 o
-1 2 1 396.340 427.092 21.178 3.777 o
-1 2 2 579.864 610.914 19.117 4.636 o
-1 2 3 132.380 124.853 6.102 45.497 o
-1 2 4 970.469 1002.480 30.668 1.801 o
-1 2 5 643.900 657.960 20.727 3.943 o
-1 2 6 563.024 547.911 17.026 5.844 o
-1 2 7 687.988 724.353 30.989 1.764 o
-1 2 8 784.777 805.056 24.514 2.819 o
-1 2 9 383.888 388.482 12.733 10.449 o
-1 2 10 204.189 207.710 7.528 29.891 o
-1 2 11 242.756 233.075 8.306 24.557 o
-1 2 12 289.288 274.414 14.178 8.427 o
-1 2 13 67.907 67.003 5.444 57.161 o
-1 2 14 14.713 16.990 3.231 162.329 o
-1 2 15 29.732 29.194 4.367 88.826 o
-1 2 16 39.689 37.450 5.025 67.085 o
-1 3 -16 9.235 10.451 2.283 324.993 o
-1 3 -15 88.251 91.461 5.096 65.229 o
-1 3 -14 156.118 160.857 7.063 33.960 o
-1 3 -13 61.519 60.183 5.444 57.161 o
-1 3 -12 142.327 144.356 8.555 23.148 o
-1 3 -11 317.314 305.224 15.554 7.002 o
-1 3 -10 413.911 404.891 18.605 4.894 o
-1 3 -9 67.070 67.362 4.965 68.711 o
-1 3 -8 725.184 691.270 31.288 1.731 o
-1 3 -7 864.838 862.128 37.689 1.193 o
-1 3 -6 84.346 74.340 2.889 202.978 o
-1 3 -5 315.560 314.789 10.250 16.124 o
-1 3 -4 162.003 176.063 7.478 30.295 o
-1 3 -3 346.113 357.019 11.590 12.612 o
-1 3 -2 606.285 616.968 28.058 2.152 o
-1 3 -1 826.589 776.699 33.083 1.548 o
-1 3 0 181.053 162.496 5.160 63.623 o
-1 3 1 132.343 132.272 6.521 39.841 o
-1 3 2 185.989 165.175 7.478 30.295 o
-1 3 3 60.626 77.239 2.827 211.966 o
-1 3 4 267.742 263.509 9.045 20.706 o
-1 3 5 535.838 518.428 17.341 5.633 o
-1 3 6 7.151 12.423 1.286 1025.100 o
-1 3 8 173.484 181.459 6.790 36.745 o
-1 3 9 108.248 103.855 5.803 50.309 o
-1 3 10 85.709 91.049 4.357 89.261 o
-1 3 11 360.779 351.726 12.014 11.738 o
-1 3 12 237.591 229.606 12.025 11.716 o
-1 3 13 103.337 102.599 7.059 33.995 o
-1 3 14 67.095 72.328 6.102 45.497 o
-1 3 15 35.324 31.886 4.547 81.952 o
-1 3 16 15.041 11.008 3.111 175.057 o
-1 4 -15 41.111 44.017 3.806 116.921 o
-1 4 -14 117.431 122.577 5.943 47.960 o
-1 4 -13 46.503 45.167 4.906 70.397 o
-1 4 -12 54.395 54.321 5.085 65.516 o
-1 4 -11 62.174 62.875 5.025 67.085 o
-1 4 -10 87.091 87.882 5.982 47.335 o
-1 4 -9 19.339 16.930 2.692 233.754 o
-1 4 -8 142.722 145.493 7.957 26.760 o
-1 4 -7 518.976 505.839 16.188 6.465 o
-1 4 -6 413.220 441.511 17.140 5.767 o
-1 4 -5 281.038 288.163 9.387 19.228 o
-1 4 -4 281.983 283.377 9.601 18.377 o
-1 4 -3 79.478 77.413 4.606 79.837 o
-1 4 -2 1666.700 1656.060 73.165 0.316 o
-1 4 -1 1170.770 1148.810 51.509 0.639 o
-1 4 1 260.949 254.132 8.058 26.088 o
-1 4 2 52.376 54.049 2.386 297.553 o
-1 4 3 459.336 460.082 20.819 3.909 o
-1 4 4 533.789 556.829 19.443 4.481 o
-1 4 5 362.470 362.080 12.068 11.633 o
-1 4 6 231.266 232.825 8.368 24.194 o
-1 4 7 370.100 371.011 12.028 11.710 o
-1 4 8 33.651 37.712 2.546 261.256 o
-1 4 9 57.171 51.805 3.061 180.754 o
-1 4 10 62.868 68.852 3.400 146.514 o
-1 4 11 115.608 114.863 7.059 33.995 o
-1 4 12 61.029 58.995 3.527 136.148 o
-1 4 13 48.623 44.988 4.427 86.441 o
-1 4 14 17.012 18.366 3.290 156.480 o
-1 4 15 39.489 43.732 5.025 67.085 o
-1 4 16 9.050 9.751 2.991 189.341 o
-1 5 -14 37.111 41.712 3.595 131.086 o
-1 5 -13 65.160 71.131 5.982 47.335 o
-1 5 -12 56.869 56.893 5.324 59.759 o
-1 5 -11 72.221 67.123 5.623 53.571 o
-1 5 -10 112.050 115.880 7.299 31.803 o
-1 5 -9 129.948 129.041 7.478 30.295 o
-1 5 -8 104.406 104.034 6.641 38.418 o
-1 5 -7 223.504 218.837 11.127 13.682 o
-1 5 -6 271.542 269.181 8.830 21.727 o
-1 5 -5 91.377 86.594 3.589 131.523 o
-1 5 -3 157.470 159.192 7.538 29.816 o
-1 5 -2 260.845 278.183 12.982 10.052 o
-1 5 -1 1098.900 1130.500 49.654 0.687 o
-1 5 0 24.658 19.431 2.154 365.241 o
-1 5 1 24.577 25.366 1.735 562.845 o
-1 5 2 26.590 26.660 1.648 623.758 o
-1 5 3 207.236 213.453 7.204 32.646 o
-1 5 4 435.689 476.121 15.045 7.484 o
-1 5 5 341.928 343.056 11.514 12.778 o
-1 5 6 232.885 238.663 8.021 26.332 o
-1 5 7 285.721 283.862 9.889 17.324 o
-1 5 8 278.691 270.610 9.419 19.094 o
-1 5 9 331.912 324.536 11.413 13.006 o
-1 5 10 49.701 48.425 3.038 183.575 o
-1 5 11 156.711 153.046 6.316 42.473 o
-1 5 12 101.547 91.979 4.644 78.551 o
-1 5 13 37.923 37.031 4.188 96.603 o
-1 5 15 11.386 11.307 3.051 181.989 o
-1 6 -13 50.985 55.816 5.623 53.571 o
-1 6 -12 34.987 40.322 4.666 77.803 o
-1 6 -11 72.515 72.567 5.923 48.296 o
-1 6 -10 143.638 146.270 8.794 21.905 o
-1 6 -9 139.220 146.629 8.615 22.828 o
-1 6 -8 130.183 130.896 7.837 27.583 o
-1 6 -7 232.271 230.204 12.503 10.837 o
-1 6 -6 116.343 110.968 4.451 85.523 o
-1 6 -5 36.746 40.832 2.483 274.846 o
-1 6 -4 93.673 102.719 4.636 78.810 o
-1 6 -3 25.994 26.921 2.692 233.754 o
-1 6 -2 56.185 56.773 4.427 86.441 o
-1 6 -1 510.414 522.939 17.419 5.584 o
-1 6 0 308.595 305.726 11.426 12.975 o
-1 6 1 132.461 131.914 5.365 58.851 o
-1 6 2 268.150 275.275 9.811 17.601 o
-1 6 3 335.044 330.281 11.441 12.944 o
-1 6 4 377.037 373.723 12.495 10.850 o
-1 6 5 338.005 339.073 11.614 12.559 o
-1 6 6 262.233 263.643 9.029 20.782 o
-1 6 7 114.047 116.728 4.923 69.905 o
-1 6 8 245.851 236.679 8.435 23.812 o
-1 6 9 151.291 153.408 7.807 27.795 o
-1 6 10 243.056 249.828 9.227 19.900 o
-1 6 11 88.045 86.790 4.451 85.523 o
-1 6 12 70.049 70.833 4.129 99.347 o
-1 6 13 49.897 49.163 3.620 129.308 o
-1 6 14 44.228 51.090 5.145 64.001 o
-1 6 15 13.750 15.674 3.410 145.692 o
-1 7 -12 23.177 23.152 3.948 108.667 o
-1 7 -11 18.214 15.674 3.231 162.329 o
-1 7 -10 71.389 76.515 5.863 49.287 o
-1 7 -9 53.791 50.970 4.786 73.961 o
-1 7 -8 185.542 184.378 10.110 16.573 o
-1 7 -7 80.714 74.182 5.504 55.925 o
-1 7 -6 158.900 157.039 9.153 20.221 o
-1 7 -5 199.273 201.476 7.445 30.566 o
-1 7 -4 124.021 131.554 7.299 31.803 o
-1 7 -3 186.951 185.336 10.888 14.290 o
-1 7 -2 340.588 340.350 11.549 12.702 o
-1 7 -1 28.734 27.271 1.804 520.822 o
-1 7 0 183.570 186.298 6.780 36.854 o
-1 7 1 64.846 57.671 4.547 81.952 o
-1 7 3 54.646 57.109 3.105 175.752 o
-1 7 4 48.124 53.735 3.062 180.748 o
-1 7 5 34.270 31.928 2.314 316.411 o
-1 7 6 76.005 73.180 3.808 116.800 o
-1 7 7 57.302 61.445 3.378 148.472 o
-1 7 8 79.708 81.689 4.232 94.570 o
-1 7 9 29.406 28.720 2.555 259.608 o
-1 7 10 70.073 79.188 4.291 91.989 o
-1 7 11 168.699 164.890 7.101 33.599 o
-1 7 12 97.489 99.857 5.178 63.187 o
-1 7 13 35.611 33.494 3.237 161.708 o
-1 8 -11 19.093 23.989 4.008 105.447 o
-1 8 -10 88.590 98.650 7.358 31.288 o
-1 8 -9 71.246 75.498 5.923 48.296 o
-1 8 -8 104.166 117.076 7.478 30.295 o
-1 8 -7 146.673 143.638 8.794 21.905 o
-1 8 -6 244.079 236.485 12.444 10.941 o
-1 8 -5 154.457 147.437 5.964 47.626 o
-1 8 -4 225.157 220.931 11.785 12.197 o
-1 8 -3 260.642 250.843 12.802 10.336 o
-1 8 -2 223.677 205.676 11.726 12.322 o
-1 8 -1 214.707 202.984 11.546 12.708 o
-1 8 0 217.786 218.299 12.025 11.716 o
-1 8 1 86.708 86.506 6.341 42.128 o
-1 8 2 87.652 82.019 6.222 43.764 o
-1 8 3 150.568 149.202 9.333 19.451 o
-1 8 4 321.549 324.188 16.691 6.081 o
-1 8 5 177.930 167.688 10.170 16.379 o
-1 8 6 86.512 87.164 6.760 37.071 o
-1 8 7 49.047 44.569 4.726 75.846 o
-1 8 8 62.794 68.798 5.982 47.335 o
-1 8 9 32.217 34.519 4.846 72.146 o
-1 8 10 4.059 4.786 2.572 256.005 o
-1 8 11 18.138 21.058 4.128 99.423 o
-1 8 12 3.815 1.137 2.333 311.212 o
-1 8 13 9.506 11.486 3.589 131.487 o
-1 9 -9 72.528 76.515 6.521 39.841 o
-1 9 -8 39.256 40.800 4.786 73.961 o
-1 9 -7 23.767 27.340 3.769 119.262 o
-1 9 -6 29.276 31.707 3.948 108.667 o
-1 9 -5 105.707 112.530 7.179 32.872 o
-1 9 -4 61.889 60.722 5.085 65.516 o
-1 9 -3 61.779 58.209 5.025 67.085 o
-1 9 -2 180.187 177.618 10.290 16.000 o
-1 9 -1 248.682 236.844 13.101 9.870 o
-1 9 0 148.280 141.305 9.093 20.488 o
-1 9 1 123.599 120.666 8.256 24.856 o
-1 9 2 103.131 99.907 7.418 30.785 o
-1 9 3 124.297 123.178 8.555 23.148 o
-1 9 4 150.386 141.843 9.692 18.037 o
-1 9 5 227.000 237.861 13.819 8.871 o
-1 9 6 108.698 110.196 8.316 24.499 o
-1 9 7 28.011 30.510 4.427 86.441 o
-1 9 8 105.335 104.573 8.016 26.362 o
-1 9 9 147.356 153.988 10.469 15.456 o
-1 9 10 54.363 61.081 6.581 39.120 o
-1 9 11 41.168 43.612 5.743 51.362 o
-1 9 12 26.811 26.143 5.085 65.516 o
-1 10 -7 19.770 23.032 3.889 112.036 o
-1 10 -6 8.505 7.059 2.513 268.341 o
-1 10 -5 25.596 26.203 3.829 115.565 o
-1 10 -4 10.690 7.717 2.393 295.845 o
-1 10 -3 16.175 13.042 2.991 189.341 o
-1 10 -2 15.474 12.264 2.991 189.341 o
-1 10 -1 58.162 55.218 5.324 59.759 o
-1 10 0 66.216 58.807 5.683 52.449 o
-1 10 1 54.318 51.808 5.324 59.759 o
-1 10 2 134.434 127.366 8.854 21.610 o
-1 10 3 90.735 80.643 6.999 34.579 o
-1 10 4 110.119 109.538 8.375 24.151 o
-1 10 5 122.667 132.511 9.333 19.451 o
-1 10 6 41.084 39.723 5.205 62.538 o
-1 10 7 13.272 11.486 3.290 156.480 o
-1 10 8 64.850 65.747 6.760 37.071 o
-1 10 9 43.518 45.407 5.923 48.296 o
-1 10 10 66.326 72.088 7.358 31.288 o
-1 11 -5 52.105 59.226 5.683 52.449 o
-1 11 -4 49.202 54.321 5.265 61.125 o
-1 11 -3 62.747 64.431 6.162 44.618 o
-1 11 -2 48.597 53.184 5.683 52.449 o
-1 11 -1 19.844 18.426 3.769 119.262 o
-1 11 0 17.094 15.016 3.530 135.982 o
-1 11 2 15.744 14.477 3.530 135.982 o
-1 11 3 20.367 14.238 3.530 135.982 o
-1 11 4 22.526 17.768 3.948 108.667 o
-1 11 5 29.882 26.203 4.846 72.146 o
-1 11 6 22.065 21.716 4.367 88.826 o
-1 11 7 14.710 11.845 3.589 131.487 o
-1 11 8 66.683 65.268 7.119 33.426 o
0 -12 -5 88.329 94.403 7.538 29.816 o
0 -12 -4 89.979 99.548 7.777 28.009 o
0 -12 -3 48.612 48.697 5.504 55.925 o
0 -12 -2 30.529 28.656 4.547 81.952 o
0 -12 -1 21.132 21.956 3.829 115.565 o
0 -12 0 37.065 35.296 4.726 75.846 o
0 -12 1 25.816 22.913 3.829 115.565 o
0 -11 -9 30.724 31.647 4.846 72.146 o
0 -11 -8 9.094 9.871 3.051 181.989 o
0 -11 -7 17.944 16.990 3.589 131.487 o
0 -11 -6 33.096 32.843 4.427 86.441 o
0 -11 -5 38.235 32.305 4.248 93.901 o
0 -11 -4 44.486 44.031 4.666 77.803 o
0 -11 -3 36.275 33.741 4.248 93.901 o
0 -11 -2 35.285 33.143 4.307 91.310 o
0 -11 -1 26.598 31.587 4.008 105.447 o
0 -11 0 26.340 22.015 3.649 127.211 o
0 -11 1 55.933 54.560 5.145 64.001 o
0 -11 2 70.792 68.678 5.743 51.362 o
0 -11 3 25.732 24.169 3.649 127.211 o
0 -10 -11 74.788 80.703 7.119 33.426 o
0 -10 -10 37.839 42.715 5.324 59.759 o
0 -10 -9 83.724 94.104 7.299 31.803 o
0 -10 -8 31.842 33.741 4.427 86.441 o
0 -10 -7 25.343 28.656 4.188 96.603 o
0 -10 -6 77.459 82.019 6.461 40.582 o
0 -10 -5 79.708 84.711 6.282 42.934 o
0 -10 -4 72.021 71.849 5.743 51.362 o
0 -10 -3 74.531 74.960 5.743 51.362 o
0 -10 -2 47.771 50.910 4.786 73.961 o
0 -10 -1 107.195 109.478 7.299 31.803 o
0 -10 0 131.443 128.443 7.837 27.583 o
0 -10 1 77.130 77.054 5.683 52.449 o
0 -10 2 60.252 62.576 5.025 67.085 o
0 -10 3 37.089 35.101 2.674 236.934 o
0 -10 4 20.712 18.366 3.111 175.057 o
0 -10 5 21.078 19.323 3.350 150.942 o
0 -10 6 7.054 8.435 2.692 233.754 o
0 -10 7 26.777 27.280 4.367 88.826 o
0 -9 -13 30.865 31.348 4.965 68.711 o
0 -9 -12 38.332 40.621 4.965 68.711 o
0 -9 -11 92.078 101.641 7.717 28.445 o
0 -9 -10 111.284 104.393 7.538 29.816 o
0 -9 -9 120.193 127.186 8.555 23.148 o
0 -9 -8 100.470 98.531 7.358 31.288 o
0 -9 -7 101.528 108.940 7.299 31.803 o
0 -9 -6 162.254 168.166 9.572 18.490 o
0 -9 -5 165.902 170.499 10.050 16.771 o
0 -9 -4 207.929 203.044 11.127 13.682 o
0 -9 -3 104.679 99.847 6.641 38.418 o
0 -9 -2 42.341 41.219 4.128 99.423 o
0 -9 -1 133.227 133.707 7.777 28.009 o
0 -9 0 249.121 237.323 12.085 11.601 o
0 -9 1 165.253 151.588 5.830 49.837 o
0 -9 2 198.032 181.986 9.871 17.387 o
0 -9 3 111.566 110.999 4.695 76.856 o
0 -9 4 105.054 102.759 4.653 78.240 o
0 -9 5 57.915 52.512 3.300 155.606 o
0 -9 6 132.701 132.541 5.880 48.999 o
0 -9 7 34.922 31.934 2.896 202.050 o
0 -9 8 6.634 5.953 1.734 563.180 o
0 -9 9 31.445 31.408 4.307 91.310 o
0 -9 10 43.393 46.842 5.324 59.759 o
0 -8 -14 0.495 1.017 2.333 311.212 o
0 -8 -13 1.190 0.658 2.154 365.241 o
0 -8 -12 10.827 13.281 3.231 162.329 o
0 -8 -11 21.578 24.349 4.008 105.447 o
0 -8 -10 30.134 34.878 4.307 91.310 o
0 -8 -9 105.440 95.659 7.418 30.785 o
0 -8 -7 57.236 63.593 5.145 64.001 o
0 -8 -6 291.454 286.738 14.836 7.696 o
0 -8 -5 164.567 162.423 9.033 20.760 o
0 -8 -4 157.106 157.517 8.854 21.610 o
0 -8 -3 175.463 175.166 9.512 18.724 o
0 -8 -2 56.767 52.227 4.008 105.447 o
0 -8 -1 84.896 90.430 3.756 120.073 o
0 -8 0 163.434 165.879 5.257 61.295 o
0 -8 1 55.156 59.514 2.460 279.898 o
0 -8 2 92.845 97.593 5.481 56.401 o
0 -8 3 125.537 124.520 4.196 96.215 o
0 -8 4 91.567 88.833 3.396 146.870 o
0 -8 5 110.115 111.945 4.992 67.991 o
0 -8 6 165.204 168.541 6.619 38.664 o
0 -8 7 258.566 254.015 9.497 18.784 o
0 -8 8 154.094 151.419 6.619 38.664 o
0 -8 9 35.226 34.864 3.065 180.342 o
0 -8 10 79.575 79.566 6.581 39.120 o
0 -8 11 30.746 30.809 4.487 84.152 o
0 -7 -15 42.370 48.996 5.683 52.449 o
0 -7 -14 27.995 26.801 4.367 88.826 o
0 -7 -13 91.164 92.728 7.179 32.872 o
0 -7 -12 111.974 111.154 7.837 27.583 o
0 -7 -11 159.014 162.662 9.632 18.261 o
0 -7 -10 268.299 258.022 13.760 8.948 o
0 -7 -9 62.017 63.234 5.145 64.001 o
0 -7 -7 153.721 149.441 8.256 24.856 o
0 -7 -6 87.187 87.044 5.863 49.287 o
0 -7 -5 15.834 18.127 2.692 233.754 o
0 -7 -4 15.989 16.930 2.632 244.500 o
0 -7 -3 48.273 49.636 2.441 284.357 o
0 -7 -2 41.229 41.435 1.915 462.052 o
0 -7 -1 233.669 231.319 6.527 39.768 o
0 -7 0 282.946 300.383 8.367 24.197 o
0 -7 1 419.879 424.754 11.241 13.407 o
0 -7 2 89.720 86.387 3.135 172.339 o
0 -7 3 299.991 308.921 7.453 30.499 o
0 -7 4 144.685 142.684 4.536 82.333 o
0 -7 5 32.746 33.906 1.932 453.672 o
0 -7 6 52.778 56.419 2.552 260.179 o
0 -7 7 272.631 278.323 9.813 17.593 o
0 -7 8 99.711 101.391 4.673 77.577 o
0 -7 9 115.646 117.832 6.012 46.865 o
0 -7 10 61.213 61.081 5.623 53.571 o
0 -7 11 26.961 27.998 4.128 99.423 o
0 -7 12 52.217 53.543 5.564 54.729 o
0 -6 -15 52.473 60.422 5.982 47.335 o
0 -6 -14 5.834 7.119 2.632 244.500 o
0 -6 -13 61.145 62.038 5.683 52.449 o
0 -6 -12 69.471 68.798 5.863 49.287 o
0 -6 -11 59.940 60.841 5.145 64.001 o
0 -6 -10 160.066 157.099 9.273 19.703 o
0 -6 -9 367.279 346.981 17.768 5.366 o
0 -6 -8 21.682 23.690 3.231 162.329 o
0 -6 -7 533.176 527.830 25.186 2.671 o
0 -6 -6 660.227 673.263 30.331 1.841 o
0 -6 -5 836.450 841.170 26.489 2.414 o
0 -6 -4 199.415 193.228 7.069 33.901 o
0 -6 -3 316.363 326.995 9.224 19.911 o
0 -6 -2 124.478 112.762 3.565 133.280 o
0 -6 -1 199.241 186.255 5.402 58.045 o
0 -6 0 67.916 68.451 2.472 277.308 o
0 -6 2 154.743 156.521 4.064 102.569 o
0 -6 3 62.483 64.870 2.150 366.586 o
0 -6 4 74.153 79.559 2.475 276.592 o
0 -6 5 57.797 61.756 2.461 279.647 o
0 -6 6 42.290 47.292 2.158 363.911 o
0 -6 7 155.749 148.619 6.027 46.637 o
0 -6 8 98.087 98.951 4.397 87.625 o
0 -6 9 44.596 41.484 2.961 193.205 o
0 -6 10 48.496 44.533 3.292 156.298 o
0 -6 11 67.083 71.490 5.923 48.296 o
0 -6 12 88.293 87.583 6.880 35.792 o
0 -6 13 77.598 83.216 6.999 34.579 o
0 -5 -16 19.593 22.195 4.068 102.369 o
0 -5 -15 45.264 48.517 5.324 59.759 o
0 -5 -14 45.422 46.543 4.846 72.146 o
0 -5 -13 41.220 38.108 4.367 88.826 o
0 -5 -12 148.690 146.749 8.974 21.038 o
0 -5 -11 239.532 236.306 13.042 9.960 o
0 -5 -10 36.018 31.408 3.589 131.487 o
0 -5 -9 163.930 179.832 10.170 16.379 o
0 -5 -8 124.026 122.101 6.940 35.178 o
0 -5 -7 487.270 459.294 15.080 7.449 o
0 -5 -6 937.651 917.366 28.311 2.114 o
0 -5 -5 757.209 768.975 23.212 3.144 o
0 -5 -4 933.755 948.171 28.419 2.098 o
0 -5 -3 565.209 573.314 14.944 7.586 o
0 -5 -2 192.036 166.733 4.710 76.361 o
0 -5 -1 771.883 773.111 19.717 4.358 o
0 -5 0 122.483 118.964 3.520 136.700 o
0 -5 1 28.790 19.503 1.675 603.766 o
0 -5 2 127.990 124.006 3.250 160.342 o
0 -5 3 7.337 7.040 0.898 2101.750 o
0 -5 4 35.694 33.512 1.610 653.486 o
0 -5 5 56.066 57.374 2.254 333.377 o
0 -5 6 99.273 102.910 3.433 143.738 o
0 -5 7 164.771 159.365 5.087 65.476 o
0 -5 8 183.346 187.803 7.001 34.565 o
0 -5 9 28.229 25.783 2.316 315.768 o
0 -5 10 4.127 4.825 1.388 878.973 o
0 -5 11 40.507 43.971 4.307 91.310 o
0 -5 12 95.888 98.052 6.880 35.792 o
0 -5 13 7.144 8.734 2.692 233.754 o
0 -5 14 11.220 11.367 3.111 175.057 o
0 -4 -16 27.051 34.100 4.666 77.803 o
0 -4 -15 16.660 14.597 3.171 168.513 o
0 -4 -13 42.617 39.663 4.307 91.310 o
0 -4 -12 87.507 85.309 6.102 45.497 o
0 -4 -11 204.653 187.908 10.469 15.456 o
0 -4 -10 181.600 184.751 6.785 36.794 o
0 -4 -9 116.990 121.939 4.889 70.877 o
0 -4 -8 247.182 247.386 8.265 24.800 o
0 -4 -7 80.180 75.995 3.217 163.688 o
0 -4 -6 522.364 540.786 17.185 5.737 o
0 -4 -5 991.116 1007.230 30.176 1.860 o
0 -4 -4 576.424 613.329 17.991 5.234 o
0 -4 -3 478.141 465.733 15.172 7.359 o
0 -4 -2 3130.310 3307.580 81.813 0.253 o
0 -4 -1 1586.050 1576.400 39.628 1.079 o
0 -4 0 1976.120 1971.720 48.905 0.708 o
0 -4 1 2344.880 2401.820 85.124 0.234 o
0 -4 2 882.768 906.878 19.645 4.390 o
0 -4 3 419.519 438.088 9.796 17.654 o
0 -4 4 311.051 322.689 8.612 22.844 o
0 -4 5 235.833 227.959 6.099 45.550 o
0 -4 6 282.424 279.723 7.429 30.699 o
0 -4 7 141.128 146.656 4.385 88.108 o
0 -4 8 180.473 172.482 6.472 40.442 o
0 -4 9 40.423 41.907 2.728 227.601 o
0 -4 10 44.819 44.165 3.065 180.342 o
0 -4 11 46.416 46.244 4.547 81.952 o
0 -4 12 34.942 37.630 4.248 93.901 o
0 -4 13 97.377 100.684 7.299 31.803 o
0 -4 14 28.660 25.784 4.248 93.901 o
0 -4 15 20.561 21.058 3.948 108.667 o
0 -3 -17 11.317 11.726 3.171 168.513 o
0 -3 -16 5.421 5.205 2.513 268.341 o
0 -3 -15 15.516 12.982 2.991 189.341 o
0 -3 -14 56.116 55.457 5.145 64.001 o
0 -3 -13 78.322 74.302 5.623 53.571 o
0 -3 -12 137.077 134.124 5.475 56.508 o
0 -3 -11 70.215 73.227 3.388 147.566 o
0 -3 -10 557.599 550.417 17.082 5.806 o
0 -3 -9 93.362 91.213 3.782 118.447 o
0 -3 -8 93.893 102.958 5.265 61.125 o
0 -3 -7 355.904 346.283 11.393 13.051 o
0 -3 -6 252.025 227.100 7.625 29.139 o
0 -3 -5 878.809 909.325 28.593 2.072 o
0 -3 -4 466.267 451.852 14.694 7.846 o
0 -3 -3 79.454 81.732 2.409 291.803 o
0 -3 -2 656.537 674.182 17.324 5.645 o
0 -3 -1 1108.480 1153.170 28.564 2.076 o
0 -3 0 4000.100 3977.570 98.902 0.173 o
0 -3 1 1067.680 973.652 20.901 3.878 o
0 -3 2 569.417 548.061 13.793 8.905 o
0 -3 3 464.387 467.204 11.962 11.839 o
0 -3 4 119.021 122.247 4.647 78.447 o
0 -3 5 822.812 849.429 21.517 3.659 o
0 -3 6 205.104 212.803 5.848 49.531 o
0 -3 7 121.617 120.879 3.623 129.060 o
0 -3 8 211.965 212.302 7.868 27.367 o
0 -3 9 235.268 231.969 8.270 24.770 o
0 -3 11 232.449 230.383 12.563 10.734 o
0 -3 12 116.810 115.939 7.717 28.445 o
0 -3 13 72.290 82.079 6.222 43.764 o
0 -3 14 49.685 47.979 5.205 62.538 o
0 -3 15 33.467 34.937 4.846 72.146 o
0 -3 16 11.728 12.623 3.350 150.942 o
0 -2 -17 43.993 43.971 5.384 58.439 o
0 -2 -16 16.285 16.930 3.410 145.692 o
0 -2 -15 9.517 8.914 2.752 223.702 o
0 -2 -14 41.501 34.667 4.457 85.285 o
0 -2 -13 43.007 44.128 2.879 204.390 o
0 -2 -12 58.900 54.903 3.141 171.738 o
0 -2 -11 83.258 83.207 3.875 112.847 o
0 -2 -10 64.485 69.166 3.066 180.172 o
0 -2 -9 199.993 196.771 6.631 38.525 o
0 -2 -8 427.650 405.252 13.489 9.310 o
0 -2 -7 635.958 627.686 19.329 4.535 o
0 -2 -6 1098.870 1120.990 33.946 1.470 o
0 -2 -5 2335.520 2447.900 74.198 0.308 o
0 -2 -4 1373.300 1415.140 59.226 0.483 o
0 -2 -3 217.684 257.603 12.204 11.374 o
0 -2 -2 1995.240 2026.300 51.985 0.627 o
0 -2 -1 1596.090 1601.770 41.042 1.006 o
0 -2 0 3585.030 3455.180 104.929 0.154 o
0 -2 1 818.137 842.467 18.044 5.203 o
0 -2 2 124.359 128.967 2.999 188.408 o
0 -2 3 520.546 515.446 12.744 10.430 o
0 -2 4 192.194 198.009 5.062 66.118 o
0 -2 5 539.793 500.945 12.671 10.551 o
0 -2 6 1074.190 1088.410 27.167 2.295 o
0 -2 7 139.071 138.722 5.499 56.018 o
0 -2 8 8.824 8.250 1.243 1096.330 o
0 -2 9 180.893 184.857 10.110 16.573 o
0 -2 12 119.750 117.555 7.538 29.816 o
0 -2 13 96.906 96.556 6.820 36.423 o
0 -2 14 34.871 37.689 4.427 86.441 o
0 -2 15 36.372 38.826 4.906 70.397 o
0 -2 16 25.143 28.656 4.606 79.837 o
0 -1 -17 10.948 11.965 3.171 168.513 o
0 -1 -16 33.419 38.703 3.547 134.685 o
0 -1 -15 26.978 23.931 2.638 243.523 o
0 -1 -14 40.926 39.743 2.886 203.346 o
0 -1 -13 138.241 132.641 5.602 53.982 o
0 -1 -12 58.746 64.583 3.377 148.548 o
0 -1 -11 56.007 54.094 3.014 186.520 o
0 -1 -10 139.178 139.565 5.495 56.108 o
0 -1 -9 141.660 150.560 5.599 54.037 o
0 -1 -8 92.468 95.741 3.674 125.524 o
0 -1 -7 283.491 278.739 18.157 5.139 o
0 -1 -6 3003.320 3023.040 128.742 0.102 o
0 -1 -5 2159.910 2121.670 109.359 0.142 o
0 -1 -4 4706.630 4741.730 200.830 0.042 o
0 -1 -3 507.758 472.192 14.128 8.487 o
0 -1 -2 675.409 730.773 21.997 3.501 o
0 -1 -1 3798.730 3860.490 96.891 0.180 o
0 -1 1 1205.410 1274.910 31.615 1.695 o
0 -1 2 240.649 216.793 5.502 55.955 o
0 -1 3 806.513 816.126 20.275 4.121 o
0 -1 4 443.427 476.331 15.435 7.111 o
0 -1 5 157.671 174.954 6.102 45.497 o
0 -1 6 1019.430 1044.770 25.405 2.625 o
0 -1 7 265.113 292.276 9.898 17.291 o
0 -1 8 147.133 144.177 7.299 31.803 o
0 -1 9 51.811 54.440 4.188 96.603 o
0 -1 10 117.789 122.759 7.059 33.995 o
0 -1 11 36.900 33.561 3.709 123.141 o
0 -1 12 12.260 10.948 2.453 281.590 o
0 -1 13 83.147 80.165 5.923 48.296 o
0 -1 14 0.961 1.017 1.735 562.845 o
0 -1 15 6.168 5.923 2.453 281.590 o
0 -1 16 20.346 22.374 3.948 108.667 o
0 0 -17 11.409 9.806 2.200 350.113 o
0 0 -16 23.826 26.436 2.853 208.090 o
0 0 -15 2.323 3.260 1.523 730.483 o
0 0 -14 86.564 92.239 4.632 78.961 o
0 0 -13 178.083 173.695 6.831 36.306 o
0 0 -12 61.817 61.032 3.299 155.683 o
0 0 -11 26.723 25.632 2.152 365.661 o
0 0 -10 337.463 331.181 11.041 13.898 o
0 0 -9 42.152 39.613 2.468 278.153 o
0 0 -8 32.855 32.040 2.025 413.043 o
0 0 -7 195.258 220.643 7.995 26.505 o
0 0 -6 960.018 967.091 29.421 1.957 o
0 0 -5 198.058 207.920 6.789 36.760 o
0 0 -4 1861.090 1808.490 83.395 0.244 o
0 0 -3 5376.790 5171.570 224.939 0.033 o
0 0 -2 881.475 959.106 28.933 2.024 o
0 0 -1 2576.940 2323.160 102.359 0.162 o
0 0 1 2564.040 2441.010 83.335 0.244 o
0 0 2 858.060 940.276 23.519 3.063 o
0 0 3 5384.730 5297.000 132.517 0.096 o
0 0 4 1985.650 1976.780 48.237 0.728 o
0 0 5 192.844 207.045 5.476 56.486 o
0 0 6 942.720 956.507 29.291 1.974 o
0 0 7 242.291 260.712 7.936 26.897 o
0 0 8 42.517 40.206 1.879 479.724 o
0 0 9 53.062 52.150 4.487 84.152 o
0 0 10 326.226 318.385 15.913 6.690 o
0 0 11 24.812 23.930 3.171 168.513 o
0 0 12 53.615 55.577 4.846 72.146 o
0 0 13 169.626 164.397 9.991 16.973 o
0 0 14 89.924 93.027 6.880 35.792 o
0 0 15 0.894 0.538 1.735 562.845 o
0 0 16 18.319 16.990 3.649 127.211 o
0 0 17 15.232 14.896 3.530 135.982 o
0 1 -16 18.923 22.878 2.769 221.012 o
0 1 -15 11.176 11.280 2.001 423.096 o
0 1 -14 2.142 0.729 1.218 1141.880 o
0 1 -13 74.907 71.376 3.933 109.496 o
0 1 -12 12.160 12.159 1.710 579.552 o
0 1 -11 48.427 46.468 2.750 224.072 o
0 1 -10 105.211 108.032 6.910 35.483 o
0 1 -9 55.063 55.257 2.876 204.870 o
0 1 -8 123.213 121.700 4.864 71.601 o
0 1 -7 286.369 312.522 13.999 8.645 o
0 1 -6 954.657 951.206 44.090 0.871 o
0 1 -5 118.311 138.493 7.717 28.445 o
0 1 -4 490.294 528.787 21.597 3.632 o
0 1 -3 854.320 827.191 35.117 1.374 o
0 1 1 3829.330 3936.960 118.978 0.120 o
0 1 2 679.280 723.629 22.226 3.429 o
0 1 3 475.997 444.854 20.101 4.193 o
0 1 4 4570.340 4623.220 141.711 0.084 o
0 1 5 2151.660 2148.670 65.399 0.396 o
0 1 6 2904.380 2942.630 90.862 0.205 o
0 1 7 267.084 265.570 8.876 21.504 o
0 1 8 82.583 84.285 3.517 136.971 o
0 1 9 139.645 152.003 5.500 56.005 o
0 1 10 145.520 149.273 5.426 57.551 o
0 1 11 59.718 57.431 4.547 81.952 o
0 1 12 62.073 59.645 5.025 67.085 o
0 1 13 139.825 133.049 8.375 24.151 o
0 1 14 39.623 39.005 4.606 79.837 o
0 1 15 27.720 27.579 4.188 96.603 o
0 1 16 25.534 26.383 4.606 79.837 o
0 1 17 6.963 5.265 2.752 223.702 o
0 2 -16 24.522 25.365 2.919 198.846 o
0 2 -15 39.928 37.245 3.254 159.997 o
0 2 -14 30.234 34.842 3.024 185.211 o
0 2 -13 91.427 95.062 4.695 76.856 o
0 2 -12 118.665 117.638 5.245 61.582 o
0 2 -11 39.309 40.354 2.706 231.299 o
0 2 -10 14.329 12.621 1.601 661.087 o
0 2 -9 191.100 199.931 7.107 33.543 o
0 2 -7 173.041 176.601 7.897 27.167 o
0 2 -6 1065.940 1101.720 47.201 0.760 o
0 2 -5 536.390 495.166 22.015 3.495 o
0 2 -4 155.747 161.406 8.675 22.514 o
0 2 -3 473.913 480.269 22.015 3.495 o
0 2 1 1727.930 1818.960 71.789 0.329 o
0 2 2 2163.880 2257.470 90.514 0.207 o
0 2 3 266.237 297.226 9.482 18.842 o
0 2 4 1388.310 1358.670 41.836 0.968 o
0 2 5 2416.360 2458.180 106.727 0.149 o
0 2 6 1095.130 1110.490 34.074 1.459 o
0 2 7 643.338 614.250 19.416 4.494 o
0 2 8 450.641 439.604 13.662 9.077 o
0 2 9 178.404 174.910 6.593 38.978 o
0 2 10 47.434 52.654 3.440 143.169 o
0 2 11 97.067 91.890 5.982 47.335 o
0 2 12 72.959 69.815 5.085 65.516 o
0 2 13 35.377 35.177 4.068 102.369 o
0 2 14 42.129 36.074 4.367 88.826 o
0 2 15 15.448 19.084 3.530 135.982 o
0 2 16 14.835 15.375 3.530 135.982 o
0 2 17 39.298 37.630 5.265 61.125 o
0 3 -16 14.123 12.802 3.350 150.942 o
0 3 -15 36.989 36.558 3.405 146.108 o
0 3 -14 50.523 50.228 3.574 132.601 o
0 3 -13 63.163 69.709 4.060 102.758 o
0 3 -12 118.689 119.174 5.326 59.733 o
0 3 -11 247.410 241.626 8.818 21.787 o
0 3 -10 17.847 19.381 2.009 419.732 o
0 3 -9 214.635 214.291 11.367 13.112 o
0 3 -8 228.986 238.280 11.068 13.831 o
0 3 -7 113.837 113.247 6.401 41.344 o
0 3 -6 205.794 210.043 10.170 16.379 o
0 3 -5 860.420 883.844 37.330 1.216 o
0 3 -4 128.375 130.716 6.222 43.764 o
0 3 -3 474.466 479.133 20.699 3.954 o
0 3 1 1045.330 1138.040 49.056 0.704 o
0 3 2 741.513 754.803 29.972 1.886 o
0 3 4 509.019 504.577 15.037 7.492 o
0 3 5 919.617 970.065 28.913 2.026 o
0 3 6 262.755 240.756 7.932 26.929 o
0 3 7 387.110 364.916 11.675 12.428 o
0 3 8 111.382 103.624 18.516 4.942 o
0 3 9 94.995 91.671 3.947 108.747 o
0 3 10 527.370 514.279 17.195 5.730 o
0 3 11 52.827 58.920 3.287 156.839 o
0 3 12 136.945 138.553 8.256 24.856 o
0 3 13 67.456 66.106 5.504 55.925 o
0 3 14 48.502 47.919 4.965 68.711 o
0 3 15 18.241 17.050 3.410 145.692 o
0 3 16 9.428 9.392 2.931 197.148 o
0 3 17 13.368 18.546 3.889 112.036 o
0 4 -15 21.556 22.434 4.008 105.447 o
0 4 -14 29.866 27.715 3.014 186.520 o
0 4 -13 94.467 94.354 4.967 68.664 o
0 4 -12 36.628 38.677 3.000 188.249 o
0 4 -11 51.937 49.648 3.127 173.262 o
0 4 -10 63.027 57.435 3.173 168.303 o
0 4 -8 162.541 159.492 8.734 22.206 o
0 4 -7 138.986 139.450 7.658 28.891 o
0 4 -6 243.151 245.339 12.743 10.433 o
0 4 -5 193.324 190.002 10.350 15.816 o
0 4 -4 323.691 332.085 14.836 7.696 o
0 4 0 1978.600 1953.200 84.352 0.238 o
0 4 1 1592.600 1680.820 68.798 0.358 o
0 4 2 3152.770 3167.100 141.066 0.085 o
0 4 3 546.316 531.898 21.537 3.652 o
0 4 4 509.151 553.845 18.273 5.074 o
0 4 5 984.194 974.756 35.416 1.351 o
0 4 6 558.691 565.487 17.597 5.471 o
0 4 7 94.675 91.790 3.742 120.977 o
0 4 8 244.851 244.802 8.630 22.749 o
0 4 9 150.859 150.997 7.717 28.445 o
0 4 10 188.841 186.951 9.991 16.973 o
0 4 11 208.423 193.439 7.317 31.644 o
0 4 12 80.250 79.197 4.050 103.261 o
0 4 13 42.284 37.929 4.307 91.310 o
0 4 14 11.218 10.649 2.812 214.284 o
0 4 15 11.172 9.273 2.752 223.702 o
0 4 16 21.459 20.998 3.889 112.036 o
0 5 -14 10.197 11.307 3.171 168.513 o
0 5 -13 3.953 3.362 1.739 560.049 o
0 5 -12 85.351 86.164 4.648 78.415 o
0 5 -11 30.759 31.895 2.792 217.334 o
0 5 -10 10.643 11.730 1.690 592.802 o
0 5 -8 169.427 168.884 9.452 18.961 o
0 5 -7 178.576 179.951 8.794 21.905 o
0 5 -6 90.948 103.556 5.923 48.296 o
0 5 -5 53.004 54.081 3.769 119.262 o
0 5 0 111.872 106.846 5.743 51.362 o
0 5 1 797.473 803.141 33.920 1.472 o
0 5 2 185.664 165.235 7.957 26.760 o
0 5 3 611.170 618.464 25.784 2.548 o
0 5 4 911.408 911.786 28.785 2.045 o
0 5 5 738.753 740.681 23.645 3.030 o
0 5 6 927.032 930.548 28.849 2.036 o
0 5 7 506.531 497.390 15.671 6.899 o
0 5 8 111.462 109.451 4.778 74.211 o
0 5 9 180.912 196.729 7.276 32.004 o
0 5 10 35.238 32.289 2.474 276.693 o
0 5 11 251.631 258.291 9.285 19.650 o
0 5 12 156.566 150.359 6.303 42.648 o
0 5 13 45.222 43.911 4.606 79.837 o
0 5 14 41.855 39.903 4.726 75.846 o
0 5 15 51.976 54.141 5.504 55.925 o
0 5 16 14.935 16.751 3.589 131.487 o
0 6 -13 78.489 84.233 6.940 35.178 o
0 6 -12 87.918 90.634 6.999 34.579 o
0 6 -11 66.871 70.253 4.078 101.867 o
0 6 -10 58.056 54.067 3.321 153.649 o
0 6 -9 38.263 38.407 3.829 115.565 o
0 6 -8 75.734 72.028 5.564 54.729 o
0 6 -7 157.368 155.364 8.316 24.499 o
0 6 -6 34.677 39.424 3.530 135.982 o
0 6 -5 49.907 51.987 3.889 112.036 o
0 6 -4 69.013 73.285 4.786 73.961 o
0 6 0 63.169 63.593 3.948 108.667 o
0 6 1 195.151 191.079 9.093 20.488 o
0 6 2 124.817 114.085 5.923 48.296 o
0 6 3 359.259 374.894 11.557 12.685 o
0 6 4 233.237 234.606 7.682 28.708 o
0 6 5 839.574 882.068 27.070 2.312 o
0 6 6 676.953 670.344 21.443 3.685 o
0 6 7 555.552 557.813 17.910 5.281 o
0 6 8 30.759 33.678 2.449 282.428 o
0 6 9 392.087 375.726 12.665 10.561 o
0 6 10 161.885 163.626 6.593 38.978 o
0 6 11 55.825 56.697 3.531 135.913 o
0 6 12 73.670 77.158 4.250 93.794 o
0 6 13 66.442 68.140 5.743 51.362 o
0 6 14 9.347 10.170 2.812 214.284 o
0 6 15 51.673 60.901 5.923 48.296 o
0 7 -12 53.345 57.671 5.743 51.362 o
0 7 -11 30.627 33.980 4.367 88.826 o
0 7 -10 73.182 77.487 4.123 99.658 o
0 7 -9 124.011 126.528 7.598 29.348 o
0 7 -8 81.289 79.507 5.982 47.335 o
0 7 -7 242.186 258.022 13.520 9.268 o
0 7 -6 54.565 59.944 4.367 88.826 o
0 7 -1 398.175 397.532 18.964 4.710 o
0 7 0 284.246 299.959 14.059 8.571 o
0 7 1 212.226 212.616 10.888 14.290 o
0 7 2 44.489 44.118 2.472 277.180 o
0 7 3 56.322 58.457 2.886 203.414 o
0 7 4 21.930 25.212 1.998 424.518 o
0 7 5 20.765 20.582 1.950 445.346 o
0 7 6 86.655 89.170 4.157 98.054 o
0 7 7 136.547 132.997 5.730 51.593 o
0 7 8 28.755 23.618 2.901 201.234 o
0 7 9 59.510 64.837 3.680 125.127 o
0 7 10 257.819 257.397 9.700 18.005 o
0 7 11 146.216 152.448 6.677 37.996 o
0 7 12 104.512 113.636 5.475 56.515 o
0 7 13 88.539 91.546 5.033 66.867 o
0 7 14 33.200 36.313 4.606 79.837 o
0 7 15 45.515 57.910 5.863 49.287 o
0 8 -11 32.775 33.262 4.606 79.837 o
0 8 -10 92.473 94.822 6.940 35.178 o
0 8 -9 32.468 34.569 2.918 198.971 o
0 8 -8 164.715 162.124 9.153 20.221 o
0 8 -7 257.743 258.620 13.221 9.692 o
0 8 -6 160.142 153.509 9.033 20.760 o
0 8 -5 121.148 116.180 4.927 69.788 o
0 8 -4 104.006 100.325 6.222 43.764 o
0 8 -3 114.488 112.948 7.299 31.803 o
0 8 -2 93.027 100.206 5.743 51.362 o
0 8 -1 42.410 44.357 2.751 223.814 o
0 8 0 172.044 173.182 6.488 40.243 o
0 8 1 76.668 82.761 3.927 109.874 o
0 8 2 46.800 41.272 3.679 125.151 o
0 8 3 179.822 173.107 6.686 37.895 o
0 8 4 155.241 152.552 6.166 44.558 o
0 8 5 152.823 155.857 6.343 42.109 o
0 8 6 297.603 296.485 10.536 15.261 o
0 8 7 61.671 61.670 3.586 131.771 o
0 8 8 99.959 99.073 4.802 73.454 o
0 8 9 127.270 128.739 5.627 53.499 o
0 8 10 37.799 41.127 3.159 169.746 o
0 8 11 27.930 28.753 2.929 197.493 o
0 8 12 14.400 15.129 2.341 309.224 o
0 8 13 3.368 3.035 1.752 551.850 o
0 8 14 1.399 1.735 2.213 345.765 o
0 9 -10 46.216 46.603 5.265 61.125 o
0 9 -9 29.854 29.493 4.128 99.423 o
0 9 -8 3.009 3.470 1.914 462.259 o
0 9 -7 33.000 31.109 3.769 119.262 o
0 9 -6 138.239 137.177 8.196 25.220 o
0 9 -5 63.984 61.619 4.726 75.846 o
0 9 -4 99.444 92.249 6.581 39.120 o
0 9 -3 100.742 93.206 4.505 83.473 o
0 9 -2 192.814 178.380 7.358 31.288 o
0 9 -1 155.591 139.661 5.918 48.370 o
0 9 0 236.460 226.215 8.520 23.340 o
0 9 1 125.571 120.083 5.315 59.968 o
0 9 2 47.830 47.295 2.918 198.986 o
0 9 3 107.884 102.771 4.708 76.421 o
0 9 4 208.593 201.197 7.844 27.530 o
0 9 5 169.819 180.953 7.197 32.710 o
0 9 6 153.009 157.607 6.711 37.611 o
0 9 7 98.949 98.916 4.965 68.732 o
0 9 8 115.402 113.053 5.391 58.282 o
0 9 9 126.055 130.140 6.073 45.932 o
0 9 10 103.173 103.195 5.421 57.650 o
0 9 11 94.508 99.009 8.016 26.362 o
0 9 12 40.457 36.612 5.205 62.538 o
0 9 13 33.639 30.570 5.324 59.759 o
0 10 -8 36.534 40.800 4.786 73.961 o
0 10 -7 18.160 18.426 3.290 156.480 o
0 10 -6 6.490 7.837 2.333 311.212 o
0 10 -5 28.901 26.861 3.530 135.982 o
0 10 -4 21.684 19.371 2.325 313.271 o
0 10 -3 29.522 28.476 3.889 112.036 o
0 10 -2 52.025 50.193 5.085 65.516 o
0 10 -1 72.951 70.772 6.042 46.403 o
0 10 0 121.962 115.222 8.196 25.220 o
0 10 1 98.869 110.436 7.897 27.167 o
0 10 2 40.475 43.791 4.906 70.397 o
0 10 3 67.950 65.328 6.042 46.403 o
0 10 4 70.532 73.823 6.401 41.344 o
0 10 5 79.562 77.772 6.820 36.423 o
0 10 6 74.022 82.976 7.059 33.995 o
0 10 7 25.911 29.374 4.726 75.846 o
0 10 9 89.816 91.890 7.837 27.583 o
0 10 10 35.916 38.766 5.384 58.439 o
0 10 11 71.496 73.883 7.358 31.288 o
0 11 -5 29.691 29.134 5.324 59.759 o
0 11 -4 18.752 19.981 3.410 145.692 o
0 11 -3 21.846 21.836 3.889 112.036 o
0 11 -2 63.169 63.115 5.923 48.296 o
0 11 -1 52.858 53.662 5.564 54.729 o
0 11 0 28.034 27.399 4.307 91.310 o
0 11 1 25.987 23.391 4.068 102.369 o
0 11 2 43.508 44.629 5.145 64.001 o
0 11 3 32.069 26.083 4.427 86.441 o
0 11 4 35.191 33.801 4.906 70.397 o
0 11 5 31.035 28.297 4.666 77.803 o
0 11 6 25.349 25.007 4.606 79.837 o
0 11 7 11.431 13.281 3.769 119.262 o
0 11 8 10.643 6.940 3.051 181.989 o
0 11 9 27.106 29.134 5.145 64.001 o
0 12 -1 22.008 19.383 4.128 99.423 o
0 12 0 35.200 36.493 5.085 65.516 o
0 12 1 15.230 13.580 3.649 127.211 o
0 12 2 30.199 32.006 5.025 67.085 o
0 12 3 48.159 56.175 6.341 42.128 o
0 12 4 84.045 91.412 8.375 24.151 o
0 12 5 84.431 91.292 8.256 24.856 o
1 -11 -8 73.849 71.610 6.641 38.418 o
1 -11 -7 12.890 11.666 3.231 162.329 o
1 -11 -6 25.575 27.938 4.367 88.826 o
1 -11 -5 36.514 34.279 4.547 81.952 o
1 -11 -4 23.503 16.571 3.470 140.711 o
1 -11 -3 16.127 14.717 3.290 156.480 o
1 -11 -2 9.773 4.068 2.393 295.845 o
1 -11 -1 18.114 22.374 3.769 119.262 o
1 -11 0 13.019 11.785 2.931 197.148 o
1 -11 1 20.635 16.452 3.231 162.329 o
1 -11 2 48.469 49.834 5.324 59.759 o
1 -11 3 63.193 66.166 5.982 47.335 o
1 -10 -10 68.271 73.165 6.641 38.418 o
1 -10 -9 49.349 52.705 5.504 55.925 o
1 -10 -8 64.024 57.192 5.863 49.287 o
1 -10 -7 12.438 12.563 3.051 181.989 o
1 -10 -6 46.513 45.347 4.906 70.397 o
1 -10 -5 127.721 127.725 8.555 23.148 o
1 -10 -4 116.180 114.564 7.717 28.445 o
1 -10 -3 93.641 88.061 6.581 39.120 o
1 -10 -2 124.894 115.880 8.076 25.973 o
1 -10 -1 48.414 45.526 4.726 75.846 o
1 -10 0 60.769 58.748 5.205 62.538 o
1 -10 1 52.666 48.637 4.786 73.961 o
1 -10 2 16.356 15.614 2.991 189.341 o
1 -10 3 20.488 17.856 2.156 364.398 o
1 -10 4 13.058 13.520 2.872 205.448 o
1 -10 5 25.012 23.690 3.889 112.036 o
1 -10 6 7.089 7.598 2.752 223.702 o
1 -10 7 22.679 24.887 4.128 99.423 o
1 -9 -12 26.913 25.007 4.307 91.310 o
1 -9 -11 47.322 49.415 5.504 55.925 o
1 -9 -10 57.324 60.901 5.863 49.287 o
1 -9 -9 153.348 156.441 9.871 17.387 o
1 -9 -8 101.763 96.198 7.239 32.331 o
1 -9 -7 26.077 25.904 4.008 105.447 o
1 -9 -6 120.121 129.759 8.136 25.592 o
1 -9 -5 237.694 247.134 13.161 9.780 o
1 -9 -4 163.931 165.175 9.333 19.451 o
1 -9 -3 138.068 131.733 8.076 25.973 o
1 -9 -2 106.509 105.410 7.059 33.995 o
1 -9 -1 127.098 122.759 7.777 28.009 o
1 -9 0 152.003 142.924 5.779 50.731 o
1 -9 1 239.833 235.586 9.093 20.488 o
1 -9 2 170.933 168.348 6.765 37.020 o
1 -9 3 52.588 53.608 3.278 157.640 o
1 -9 4 55.874 55.331 3.423 144.557 o
1 -9 5 93.906 100.924 7.059 33.995 o
1 -9 6 25.926 26.801 3.948 108.667 o
1 -9 7 19.811 20.580 3.589 131.487 o
1 -9 8 43.955 45.766 4.965 68.711 o
1 -9 9 80.237 83.216 6.940 35.178 o
1 -8 -13 5.978 5.324 2.513 268.341 o
1 -8 -12 2.529 5.324 2.453 281.590 o
1 -8 -11 13.178 13.460 3.111 175.057 o
1 -8 -10 5.763 5.683 2.333 311.212 o
1 -8 -9 35.630 39.305 4.487 84.152 o
1 -8 -8 51.094 51.090 5.145 64.001 o
1 -8 -7 38.083 35.416 4.068 102.369 o
1 -8 -6 87.219 89.138 6.282 42.934 o
1 -8 -5 170.964 166.312 9.572 18.490 o
1 -8 -4 330.280 313.240 15.913 6.690 o
1 -8 -3 150.851 153.808 8.734 22.206 o
1 -8 -2 90.314 84.139 3.746 120.706 o
1 -8 -1 88.318 85.498 3.858 113.812 o
1 -8 0 226.510 221.168 7.944 26.842 o
1 -8 1 225.503 222.427 11.367 13.112 o
1 -8 2 234.898 225.984 8.034 26.244 o
1 -8 3 242.338 235.535 8.735 22.205 o
1 -8 4 216.642 219.832 8.206 25.156 o
1 -8 5 133.564 134.306 8.375 24.151 o
1 -8 6 221.309 230.503 12.444 10.941 o
1 -8 7 139.811 145.194 8.854 21.610 o
1 -8 8 94.055 93.087 7.179 32.872 o
1 -8 9 63.824 63.952 6.042 46.403 o
1 -8 10 96.248 101.641 7.598 29.348 o
1 -8 11 16.274 13.640 3.410 145.692 o
1 -7 -14 63.275 70.832 6.641 38.418 o
1 -7 -13 31.944 31.408 4.547 81.952 o
1 -7 -12 96.026 101.761 7.478 30.295 o
1 -7 -11 174.855 176.781 10.350 15.816 o
1 -7 -10 74.297 75.319 6.042 46.403 o
1 -7 -9 36.088 34.100 3.889 112.036 o
1 -7 -8 101.802 100.026 6.401 41.344 o
1 -7 -6 100.211 97.215 5.982 47.335 o
1 -7 -4 66.663 72.140 3.018 185.962 o
1 -7 -3 78.079 78.139 3.162 169.454 o
1 -7 -2 31.428 26.903 1.883 477.834 o
1 -7 -1 42.637 44.087 2.528 265.147 o
1 -7 0 188.393 187.943 6.801 36.629 o
1 -7 1 21.826 19.250 1.881 478.738 o
1 -7 2 341.300 355.028 11.717 12.340 o
1 -7 3 214.498 220.583 6.200 44.065 o
1 -7 4 118.313 118.221 4.035 104.034 o
1 -7 5 193.575 199.478 7.377 31.128 o
1 -7 6 170.597 169.069 6.423 41.061 o
1 -7 7 81.797 78.071 5.743 51.362 o
1 -7 8 177.001 173.907 7.061 33.978 o
1 -7 9 49.614 48.389 3.296 155.913 o
1 -7 10 61.836 65.311 4.036 104.016 o
1 -7 11 11.306 11.842 2.094 386.489 o
1 -7 12 18.358 19.649 2.644 242.403 o
1 -6 -15 17.215 19.981 3.829 115.565 o
1 -6 -14 41.048 47.919 5.324 59.759 o
1 -6 -13 54.255 53.124 5.324 59.759 o
1 -6 -12 72.116 77.772 6.102 45.497 o
1 -6 -11 86.304 86.685 6.521 39.841 o
1 -6 -10 242.003 236.844 12.982 10.052 o
1 -6 -9 141.940 136.938 8.615 22.828 o
1 -6 -8 215.997 204.001 11.726 12.322 o
1 -6 -7 111.452 108.880 6.940 35.178 o
1 -6 -6 249.297 243.069 8.556 23.141 o
1 -6 -5 348.352 350.956 11.337 13.181 o
1 -6 -4 391.926 380.732 12.254 11.283 o
1 -6 -3 369.455 360.347 11.322 13.216 o
1 -6 -2 304.796 314.295 9.843 17.485 o
1 -6 -1 168.381 168.269 5.553 54.940 o
1 -6 0 292.392 287.456 14.358 8.218 o
1 -6 1 568.848 580.684 17.596 5.471 o
1 -6 2 69.195 72.420 2.521 266.613 o
1 -6 3 20.888 23.663 1.457 798.095 o
1 -6 4 104.785 109.906 3.575 132.575 o
1 -6 5 30.654 33.423 2.239 337.859 o
1 -6 6 103.572 97.573 6.521 39.841 o
1 -6 7 249.462 253.866 8.881 21.480 o
1 -6 8 126.414 131.587 5.540 55.205 o
1 -6 9 137.840 141.753 6.027 46.637 o
1 -6 10 139.869 142.526 6.195 44.149 o
1 -6 11 69.742 69.041 4.078 101.867 o
1 -6 12 29.348 31.273 3.056 181.375 o
1 -6 13 50.038 50.900 3.889 112.010 o
1 -5 -15 10.005 11.068 2.991 189.341 o
1 -5 -14 13.775 13.700 3.051 181.989 o
1 -5 -13 33.657 29.972 4.188 96.603 o
1 -5 -12 101.409 88.061 6.461 40.582 o
1 -5 -11 152.627 143.997 8.854 21.610 o
1 -5 -10 48.015 46.005 4.307 91.310 o
1 -5 -9 351.233 336.572 16.212 6.445 o
1 -5 -8 264.510 259.744 9.010 20.868 o
1 -5 -7 288.804 286.739 9.542 18.605 o
1 -5 -6 211.612 208.970 7.573 29.537 o
1 -5 -5 358.994 349.974 11.237 13.416 o
1 -5 -4 441.591 455.823 14.735 7.803 o
1 -5 -3 207.865 201.535 7.008 34.491 o
1 -5 -2 33.646 36.134 2.273 327.807 o
1 -5 -1 19.629 20.637 1.452 803.774 o
1 -5 0 24.668 22.084 2.094 386.410 o
1 -5 1 1145.540 1139.520 28.344 2.109 o
1 -5 2 259.141 266.631 7.273 32.027 o
1 -5 3 134.501 134.673 4.163 97.766 o
1 -5 4 70.734 72.625 3.123 173.737 o
1 -5 5 81.780 82.617 5.265 61.125 o
1 -5 6 244.146 246.428 8.881 21.480 o
1 -5 7 218.178 214.861 7.803 27.827 o
1 -5 8 106.366 107.656 4.671 77.653 o
1 -5 9 117.630 112.990 5.096 65.229 o
1 -5 10 108.938 113.096 5.159 63.657 o
1 -5 11 79.244 73.170 4.016 105.038 o
1 -5 12 56.324 55.772 3.697 123.955 o
1 -5 13 56.804 56.214 3.905 111.121 o
1 -5 14 43.278 49.295 5.265 61.125 o
1 -4 -16 10.704 7.538 2.692 233.754 o
1 -4 -15 37.761 44.150 4.965 68.711 o
1 -4 -14 11.988 12.025 2.872 205.448 o
1 -4 -13 40.857 39.783 4.427 86.441 o
1 -4 -12 60.341 59.047 5.085 65.516 o
1 -4 -11 111.407 111.273 7.119 33.426 o
1 -4 -10 44.945 49.149 2.912 199.716 o
1 -4 -9 66.930 63.754 2.971 191.873 o
1 -4 -8 50.765 53.789 2.528 265.147 o
1 -4 -7 350.406 349.587 11.712 12.350 o
1 -4 -6 254.308 254.365 8.195 25.227 o
1 -4 -5 378.570 379.575 11.901 11.961 o
1 -4 -4 527.227 533.981 16.981 5.875 o
1 -4 -3 469.458 488.459 14.866 7.666 o
1 -4 -2 61.878 62.782 2.461 279.621 o
1 -4 -1 231.344 234.691 11.606 12.577 o
1 -4 0 27.072 28.866 1.550 705.320 o
1 -4 1 1231.230 1204.280 29.530 1.943 o
1 -4 2 1713.290 1722.630 42.138 0.954 o
1 -4 3 83.833 85.698 2.699 232.549 o
1 -4 4 299.625 304.303 9.642 18.221 o
1 -4 5 285.851 280.097 13.520 9.268 o
1 -4 6 445.015 492.266 15.080 7.450 o
1 -4 7 527.652 520.526 16.603 6.146 o
1 -4 8 134.931 138.860 5.583 54.343 o
1 -4 9 21.865 20.566 2.009 419.732 o
1 -4 10 80.428 82.427 4.123 99.658 o
1 -4 11 52.429 54.261 3.404 146.243 o
1 -4 12 53.515 56.364 3.596 131.032 o
1 -4 13 40.617 41.249 3.321 153.649 o
1 -4 14 111.571 112.649 8.256 24.856 o
1 -4 15 42.926 45.885 5.324 59.759 o
1 -3 -16 15.367 13.161 3.111 175.057 o
1 -3 -15 37.194 36.254 4.367 88.826 o
1 -3 -14 65.647 76.635 5.982 47.335 o
1 -3 -13 99.385 102.240 6.940 35.178 o
1 -3 -12 232.257 220.435 8.221 25.065 o
1 -3 -11 352.846 344.208 11.797 12.174 o
1 -3 -10 103.325 108.626 4.342 89.869 o
1 -3 -9 89.817 85.600 3.862 113.574 o
1 -3 -8 183.654 187.914 6.570 39.251 o
1 -3 -5 584.517 587.059 17.258 5.688 o
1 -3 -4 301.231 291.362 8.965 21.077 o
1 -3 -3 51.542 65.114 2.680 235.878 o
1 -3 -2 190.080 164.506 5.475 56.515 o
1 -3 -1 174.349 161.885 7.179 32.872 o
1 -3 0 176.008 149.721 5.223 62.097 o
1 -3 1 794.632 753.786 18.892 4.747 o
1 -3 2 641.059 653.011 16.152 6.494 o
1 -3 3 375.961 375.778 11.546 12.707 o
1 -3 4 141.478 136.818 7.717 28.445 o
1 -3 5 319.148 325.525 10.427 15.582 o
1 -3 6 81.422 75.905 3.212 164.244 o
1 -3 7 869.174 848.554 26.587 2.397 o
1 -3 8 728.321 702.606 22.145 3.455 o
1 -3 9 69.149 71.084 3.466 141.047 o
1 -3 10 395.604 374.335 13.008 10.013 o
1 -3 11 321.596 311.327 10.956 14.113 o
1 -3 12 134.758 135.446 5.943 47.960 o
1 -3 13 66.030 66.501 3.934 109.458 o
1 -3 14 155.899 169.602 10.230 16.188 o
1 -3 15 88.964 87.583 7.119 33.426 o
1 -3 16 10.112 10.649 3.171 168.513 o
1 -2 -16 39.469 43.492 4.965 68.711 o
1 -2 -15 35.874 34.698 4.248 93.901 o
1 -2 -14 21.309 21.332 2.407 292.462 o
1 -2 -13 64.497 63.656 3.595 131.086 o
1 -2 -12 288.598 271.662 9.708 17.974 o
1 -2 -11 226.062 220.613 8.142 25.552 o
1 -2 -10 202.126 203.276 7.423 30.744 o
1 -2 -9 368.225 374.201 17.887 5.295 o
1 -2 -8 736.141 734.702 34.399 1.432 o
1 -2 -7 640.800 675.656 30.869 1.778 o
1 -2 -6 518.978 522.146 23.930 2.958 o
1 -2 -5 675.880 688.219 29.254 1.980 o
1 -2 -4 985.166 1008.160 43.253 0.906 o
1 -2 -3 156.494 137.297 6.341 42.128 o
1 -2 -2 614.454 652.145 27.100 2.307 o
1 -2 -1 383.581 386.714 12.542 10.770 o
1 -2 0 2976.440 2888.020 120.965 0.116 o
1 -2 1 5141.360 5016.490 124.163 0.110 o
1 -2 2 2177.020 2223.000 56.540 0.530 o
1 -2 3 648.185 661.126 19.543 4.436 o
1 -2 4 468.879 487.328 16.053 6.574 o
1 -2 5 46.236 45.010 2.176 357.854 o
1 -2 6 477.310 482.827 15.271 7.265 o
1 -2 7 100.988 96.263 3.870 113.087 o
1 -2 8 121.600 120.637 4.907 70.356 o
1 -2 9 197.768 211.089 7.339 31.450 o
1 -2 10 26.315 28.835 2.305 318.810 o
1 -2 11 352.070 352.945 12.204 11.375 o
1 -2 12 121.540 116.085 5.203 62.588 o
1 -2 13 103.442 100.026 6.999 34.579 o
1 -2 14 110.883 111.812 7.837 27.583 o
1 -2 15 128.904 133.767 8.974 21.038 o
1 -2 16 40.996 38.886 4.965 68.711 o
1 -1 -16 15.183 13.830 2.298 320.748 o
1 -1 -15 19.348 24.293 2.686 234.827 o
1 -1 -14 12.935 12.684 1.959 441.649 o
1 -1 -13 58.590 54.245 3.299 155.683 o
1 -1 -12 234.201 221.879 8.164 25.418 o
1 -1 -11 250.384 253.392 9.010 20.868 o
1 -1 -10 307.506 307.699 11.307 13.251 o
1 -1 -9 294.202 302.671 9.793 17.665 o
1 -1 -8 454.107 472.325 15.398 7.145 o
1 -1 -7 755.085 797.372 24.683 2.781 o
1 -1 -6 960.253 957.270 28.787 2.044 o
1 -1 -5 1755.590 1897.410 57.361 0.515 o
1 -1 -4 576.717 608.760 19.776 4.332 o
1 -1 -3 294.962 317.513 9.666 18.132 o
1 -1 -2 29.162 23.690 1.182 1212.160 o
1 -1 -1 97.193 97.319 3.363 149.807 o
1 -1 0 190.513 187.087 11.935 11.893 o
1 -1 1 580.496 598.546 14.841 7.692 o
1 -1 2 359.738 416.652 12.923 10.144 o
1 -1 3 84.568 69.217 3.470 140.711 o
1 -1 4 439.839 407.351 13.071 9.915 o
1 -1 5 389.113 365.942 12.225 11.335 o
1 -1 6 141.331 150.416 5.414 57.793 o
1 -1 7 504.990 499.414 16.159 6.488 o
1 -1 8 51.969 53.711 2.664 238.705 o
1 -1 9 85.334 80.951 3.573 132.713 o
1 -1 10 7.000 6.882 1.309 988.206 o
1 -1 11 143.967 144.629 5.853 49.448 o
1 -1 12 91.962 91.250 4.312 91.099 o
1 -1 13 48.435 53.782 4.786 73.961 o
1 -1 14 44.933 41.518 4.606 79.837 o
1 -1 15 61.358 63.354 5.923 48.296 o
1 -1 16 28.598 29.912 4.487 84.152 o
1 -1 17 34.652 37.211 5.324 59.759 o
1 0 -16 5.512 5.384 2.812 214.284 o
1 0 -15 42.010 41.695 3.319 153.798 o
1 0 -14 26.104 26.429 2.661 239.247 o
1 0 -13 44.168 48.280 3.189 166.629 o
1 0 -12 113.057 112.318 4.905 70.418 o
1 0 -11 284.695 276.205 9.687 18.054 o
1 0 -10 263.681 261.835 8.778 21.988 o
1 0 -9 172.297 167.188 5.774 50.812 o
1 0 -8 286.261 289.660 9.772 17.742 o
1 0 -7 947.823 950.630 29.336 1.968 o
1 0 -6 703.537 756.344 22.230 3.428 o
1 0 -5 2837.180 2907.500 87.946 0.219 o
1 0 -4 2666.280 2620.910 79.506 0.268 o
1 0 -3 166.305 193.253 6.533 39.692 o
1 0 -2 3328.560 3361.160 104.231 0.156 o
1 0 -1 2935.540 2944.820 87.861 0.219 o
1 0 0 2478.720 2493.540 73.753 0.311 o
1 0 1 6167.450 5571.080 279.021 0.022 o
1 0 2 2049.220 1945.490 58.334 0.498 o
1 0 3 2172.580 2233.920 65.726 0.392 o
1 0 4 1797.150 1929.610 57.521 0.512 o
1 0 5 132.756 129.051 4.185 96.711 o
1 0 6 852.053 843.844 25.190 2.670 o
1 0 7 586.493 599.108 18.443 4.980 o
1 0 8 60.891 55.503 2.553 259.974 o
1 0 9 163.338 159.162 5.961 47.683 o
1 0 10 34.053 33.609 2.291 322.700 o
1 0 11 162.297 155.460 6.319 42.427 o
1 0 12 144.579 150.458 9.033 20.760 o
1 0 13 118.054 115.820 7.538 29.816 o
1 0 14 35.102 33.203 4.367 88.826 o
1 0 15 76.398 77.532 6.760 37.071 o
1 0 16 50.347 47.381 5.444 57.161 o
1 0 17 22.895 27.399 4.726 75.846 o
1 1 -16 16.310 17.887 3.769 119.262 o
1 1 -15 5.667 2.034 2.213 345.765 o
1 1 -14 21.208 25.187 2.579 254.628 o
1 1 -13 26.090 25.609 2.495 272.198 o
1 1 -12 57.489 59.475 3.423 144.557 o
1 1 -11 49.765 48.931 2.958 193.679 o
1 1 -10 115.465 111.732 4.667 77.767 o
1 1 -9 164.089 168.591 6.471 40.463 o
1 1 -7 565.863 582.589 19.056 4.665 o
1 1 -6 2174.460 2195.180 66.329 0.385 o
1 1 -5 863.023 856.357 25.000 2.711 o
1 1 -4 729.343 767.329 23.921 2.961 o
1 1 -3 2428.480 2478.850 76.143 0.292 o
1 1 -2 2191.420 2113.060 60.894 0.457 o
1 1 -1 1093.350 1109.680 49.235 0.699 o
1 1 0 3182.560 3034.930 89.742 0.210 o
1 1 1 708.685 643.797 20.093 4.196 o
1 1 2 2030.140 2035.590 64.426 0.408 o
1 1 3 358.478 347.938 11.631 12.523 o
1 1 4 406.167 436.810 14.720 7.819 o
1 1 5 162.534 165.533 5.918 48.368 o
1 1 6 1581.160 1574.890 48.604 0.717 o
1 1 7 1171.530 1160.100 28.781 2.045 o
1 1 8 973.276 965.060 23.920 2.961 o
1 1 9 108.084 108.646 3.367 149.400 o
1 1 10 407.768 392.926 18.007 5.225 o
1 1 11 441.628 407.463 20.520 4.023 o
1 1 12 128.864 121.443 8.016 26.362 o
1 1 13 240.616 241.630 12.683 10.532 o
1 1 14 93.451 90.634 6.700 37.735 o
1 1 15 18.248 23.032 3.948 108.667 o
1 1 16 38.873 40.142 5.205 62.538 o
1 1 17 9.911 8.076 3.051 181.989 o
1 2 -16 48.998 55.517 5.923 48.296 o
1 2 -15 3.271 1.855 2.154 365.241 o
1 2 -14 39.510 34.040 4.367 88.826 o
1 2 -13 67.606 65.625 3.765 119.534 o
1 2 -12 130.534 126.018 5.472 56.575 o
1 2 -11 178.853 169.105 6.680 37.964 o
1 2 -10 374.401 376.359 12.455 10.920 o
1 2 -9 58.292 56.769 2.934 196.758 o
1 2 -8 182.677 182.272 6.595 38.945 o
1 2 -7 274.193 258.623 8.881 21.480 o
1 2 -6 611.774 618.216 18.991 4.697 o
1 2 -5 485.843 479.165 15.332 7.206 o
1 2 -4 267.563 251.571 7.778 28.002 o
1 2 -3 575.912 562.546 17.349 5.628 o
1 2 -2 451.391 502.026 15.290 7.246 o
1 2 -1 236.930 226.375 9.931 17.178 o
1 2 0 2106.910 2232.520 94.822 0.188 o
1 2 1 139.484 147.605 4.713 76.264 o
1 2 2 87.392 96.634 3.311 154.549 o
1 2 3 404.288 428.347 13.066 9.923 o
1 2 5 275.971 265.520 8.449 23.732 o
1 2 6 200.264 184.773 6.928 35.297 o
1 2 7 191.463 191.153 6.137 44.987 o
1 2 8 43.796 43.193 2.572 256.005 o
1 2 9 43.749 45.821 2.371 301.251 o
1 2 10 7.659 8.039 1.167 1244.850 o
1 2 11 122.573 115.700 6.820 36.423 o
1 2 12 216.334 203.941 11.666 12.448 o
1 2 13 199.539 189.404 10.888 14.290 o
1 2 14 66.156 62.277 5.444 57.161 o
1 2 15 38.829 34.519 4.427 86.441 o
1 2 16 67.282 67.721 6.222 43.764 o
1 2 17 59.680 65.687 6.461 40.582 o
1 3 -15 12.665 10.469 3.051 181.989 o
1 3 -14 30.732 25.904 4.068 102.369 o
1 3 -13 36.450 36.493 4.367 88.826 o
1 3 -12 115.932 112.558 5.039 66.718 o
1 3 -11 173.713 159.516 6.400 41.356 o
1 3 -10 283.621 269.844 9.658 18.163 o
1 3 -9 199.038 205.798 7.250 32.228 o
1 3 -8 278.016 291.729 9.680 18.079 o
1 3 -7 330.094 327.997 10.952 14.123 o
1 3 -6 1069.050 1094.800 33.755 1.487 o
1 3 -5 1221.800 1228.320 36.780 1.252 o
1 3 -4 329.285 327.473 10.275 16.046 o
1 3 -3 241.994 261.414 8.054 26.113 o
1 3 -2 921.608 947.378 39.245 1.100 o
1 3 -1 738.950 805.115 34.040 1.462 o
1 3 0 635.074 665.964 28.895 2.029 o
1 3 1 1592.110 1530.240 45.834 0.806 o
1 3 2 786.166 775.112 23.306 3.119 o
1 3 3 356.830 331.247 15.973 6.640 o
1 3 4 239.764 284.943 11.606 12.577 o
1 3 5 243.858 241.750 11.726 12.322 o
1 3 6 132.265 139.450 8.196 25.220 o
1 3 7 248.270 223.504 11.726 12.322 o
1 3 8 45.682 43.425 2.325 313.476 o
1 3 9 1.912 1.690 1.047 1545.640 o
1 3 10 15.568 15.521 1.667 609.742 o
1 3 11 23.773 21.506 1.910 464.358 o
1 3 12 30.827 29.194 3.589 131.487 o
1 3 13 157.673 157.876 9.572 18.490 o
1 3 14 83.122 80.464 6.282 42.934 o
1 3 15 17.122 18.785 3.589 131.487 o
1 3 16 34.605 33.382 4.786 73.961 o
1 3 17 105.081 120.785 8.854 21.610 o
1 4 -15 6.120 4.606 2.812 214.284 o
1 4 -14 14.816 13.640 3.350 150.942 o
1 4 -13 19.825 18.904 3.410 145.692 o
1 4 -12 57.474 58.807 5.324 59.759 o
1 4 -11 107.188 104.218 4.856 71.845 o
1 4 -10 33.455 34.527 2.521 266.506 o
1 4 -9 251.302 240.744 8.364 24.215 o
1 4 -8 280.347 266.721 9.130 20.324 o
1 4 -7 127.246 123.795 4.960 68.873 o
1 4 -6 655.587 659.363 21.084 3.811 o
1 4 -5 1173.070 1199.320 36.082 1.301 o
1 4 -4 385.668 387.939 12.073 11.623 o
1 4 -3 600.878 647.578 20.092 4.196 o
1 4 -2 1258.380 1251.700 54.021 0.581 o
1 4 -1 940.879 968.077 41.757 0.972 o
1 4 0 1512.520 1672.090 69.755 0.348 o
1 4 1 2705.720 2887.710 85.598 0.231 o
1 4 2 1269.860 1279.440 37.117 1.230 o
1 4 3 521.026 528.667 24.648 2.789 o
1 4 4 632.749 650.410 27.100 2.307 o
1 4 5 490.134 493.909 21.118 3.799 o
1 4 6 372.625 393.225 18.486 4.958 o
1 4 7 527.445 532.317 24.707 2.775 o
1 4 8 354.924 343.307 11.780 12.209 o
1 4 10 65.432 52.506 2.947 195.108 o
1 4 11 266.337 259.693 10.110 16.573 o
1 4 12 24.840 23.212 3.530 135.982 o
1 4 13 7.330 7.059 2.393 295.845 o
1 4 14 44.096 41.398 4.786 73.961 o
1 4 15 16.021 14.118 3.171 168.513 o
1 4 16 2.571 5.085 2.632 244.500 o
1 4 17 34.281 36.194 5.145 64.001 o
1 5 -14 2.333 1.735 2.333 311.212 o
1 5 -13 0.355 -0.179 1.914 462.259 o
1 5 -12 7.578 10.828 2.872 205.448 o
1 5 -11 53.581 52.406 5.145 64.001 o
1 5 -10 41.414 45.039 3.522 136.601 o
1 5 -9 4.867 5.310 1.286 1025.100 o
1 5 -8 132.667 129.702 5.148 63.927 o
1 5 -7 238.687 238.285 8.580 23.015 o
1 5 -6 277.474 279.588 9.658 18.163 o
1 5 -5 437.330 438.007 14.168 8.439 o
1 5 -4 520.367 498.753 14.867 7.665 o
1 5 -3 762.186 762.700 32.066 1.648 o
1 5 -2 562.943 564.622 25.724 2.560 o
1 5 -1 252.304 255.450 12.444 10.941 o
1 5 0 598.590 592.852 17.892 5.292 o
1 5 1 229.250 243.106 8.009 26.408 o
1 5 2 578.989 593.639 18.290 5.064 o
1 5 4 412.471 399.567 19.323 4.537 o
1 5 5 495.064 503.661 23.331 3.112 o
1 5 6 337.257 350.989 16.033 6.590 o
1 5 7 781.301 771.494 35.356 1.355 o
1 5 8 705.664 720.436 23.160 3.158 o
1 5 9 19.807 25.337 2.176 357.854 o
1 5 10 259.310 265.311 9.285 19.652 o
1 5 11 115.352 106.092 4.814 73.115 o
1 5 12 191.574 185.240 7.462 30.425 o
1 5 13 88.774 90.275 6.700 37.735 o
1 5 14 28.115 27.160 4.188 96.603 o
1 5 15 1.107 1.316 2.094 386.410 o
1 5 16 43.498 48.039 5.504 55.925 o
1 6 -13 40.292 43.074 5.265 61.125 o
1 6 -12 70.374 72.028 6.341 42.128 o
1 6 -11 78.707 81.002 6.461 40.582 o
1 6 -10 11.939 12.144 2.692 233.754 o
1 6 -9 38.546 38.706 4.068 102.369 o
1 6 -8 27.669 32.516 2.376 300.000 o
1 6 -7 72.638 67.731 3.389 147.468 o
1 6 -6 144.760 138.803 5.576 54.483 o
1 6 -5 111.653 114.901 4.625 79.199 o
1 6 -4 157.478 159.730 5.517 55.651 o
1 6 0 418.547 431.034 19.562 4.427 o
1 6 1 735.439 746.874 22.629 3.308 o
1 6 2 580.535 614.211 18.713 4.838 o
1 6 3 75.893 65.805 2.397 294.788 o
1 6 4 153.451 153.868 7.658 28.891 o
1 6 5 311.223 325.025 14.717 7.822 o
1 6 6 168.522 177.259 8.675 22.514 o
1 6 7 71.167 77.652 5.025 67.085 o
1 6 8 254.545 255.384 9.518 18.701 o
1 6 9 135.859 141.931 5.668 52.732 o
1 6 10 40.586 43.588 2.940 196.026 o
1 6 11 160.766 165.732 6.874 35.853 o
1 6 12 118.458 109.848 11.157 13.609 o
1 6 13 28.108 28.656 4.068 102.369 o
1 6 14 74.706 73.644 6.521 39.841 o
1 6 15 35.111 34.219 4.846 72.146 o
1 6 16 22.200 23.152 4.188 96.603 o
1 7 -12 54.703 65.448 6.282 42.934 o
1 7 -11 61.798 64.850 5.982 47.335 o
1 7 -10 16.890 15.734 3.231 162.329 o
1 7 -9 64.654 67.063 5.444 57.161 o
1 7 -8 282.575 279.619 14.956 7.574 o
1 7 -7 58.967 58.561 3.287 156.839 o
1 7 -6 50.979 47.975 2.904 200.862 o
1 7 -5 193.118 188.259 7.101 33.600 o
1 7 -4 157.111 160.386 5.983 47.327 o
1 7 -3 131.587 140.408 7.358 31.288 o
1 7 -2 79.539 80.404 4.487 84.152 o
1 7 -1 319.342 304.316 10.172 16.373 o
1 7 0 506.457 508.260 16.050 6.576 o
1 7 1 579.883 597.779 18.481 4.960 o
1 7 2 358.844 347.176 11.221 13.454 o
1 7 3 212.806 213.274 10.230 16.188 o
1 7 4 83.389 90.275 5.384 58.439 o
1 7 5 197.052 202.266 10.290 16.000 o
1 7 6 184.814 186.233 9.871 17.387 o
1 7 7 64.308 65.029 4.906 70.397 o
1 7 8 55.718 50.097 3.127 173.262 o
1 7 9 32.153 30.957 2.644 242.403 o
1 7 10 71.281 72.973 4.081 101.736 o
1 7 11 102.687 107.498 6.222 43.764 o
1 7 12 90.620 92.909 4.949 69.158 o
1 7 13 114.312 121.342 5.900 48.665 o
1 7 14 33.085 36.134 4.666 77.803 o
1 7 15 55.453 54.021 5.982 47.335 o
1 8 -11 12.860 15.794 3.589 131.487 o
1 8 -10 15.142 13.760 3.231 162.329 o
1 8 -9 56.232 56.713 5.205 62.538 o
1 8 -8 38.603 37.869 4.188 96.603 o
1 8 -7 268.115 266.098 14.238 8.357 o
1 8 -6 111.800 110.622 5.029 66.981 o
1 8 -5 86.061 82.082 3.928 109.801 o
1 8 -4 168.562 164.508 6.215 43.865 o
1 8 -3 225.102 226.435 10.768 14.610 o
1 8 -2 53.700 50.093 2.706 231.299 o
1 8 -1 120.730 121.679 4.733 75.633 o
1 8 0 95.392 101.940 4.218 95.237 o
1 8 1 229.520 238.591 7.964 26.712 o
1 8 2 124.424 142.741 7.358 31.288 o
1 8 3 67.887 68.499 4.726 75.846 o
1 8 4 97.017 89.497 5.743 51.362 o
1 8 5 220.122 208.428 11.127 13.682 o
1 8 6 226.360 224.640 11.845 12.074 o
1 8 7 266.129 266.158 9.934 17.166 o
1 8 8 40.886 39.417 2.971 191.889 o
1 8 9 30.464 33.815 2.855 207.816 o
1 8 10 84.724 80.875 4.417 86.842 o
1 8 11 11.482 12.940 2.157 363.978 o
1 8 12 11.235 11.185 2.115 378.682 o
1 8 13 7.589 7.950 2.009 419.732 o
1 8 14 0.467 0.179 2.154 365.241 o
1 9 -10 5.714 6.222 2.632 244.500 o
1 9 -9 25.990 22.255 3.829 115.565 o
1 9 -8 15.519 13.101 2.991 189.341 o
1 9 -7 46.395 48.577 4.666 77.803 o
1 9 -6 83.160 85.369 6.222 43.764 o
1 9 -5 68.014 71.251 5.564 54.729 o
1 9 -4 88.392 80.472 3.993 106.234 o
1 9 -3 139.550 130.776 7.658 28.891 o
1 9 -2 59.527 57.733 3.045 182.726 o
1 9 -1 250.981 238.753 8.796 21.896 o
1 9 0 248.380 233.973 12.025 11.716 o
1 9 1 158.092 156.201 8.615 22.828 o
1 9 2 139.435 124.255 7.119 33.426 o
1 9 3 278.400 267.774 12.802 10.336 o
1 9 4 248.154 252.937 12.384 11.047 o
1 9 5 180.573 181.088 9.632 18.261 o
1 9 6 260.029 258.168 9.593 18.411 o
1 9 7 183.276 190.154 7.644 28.993 o
1 9 8 53.268 58.333 3.777 118.730 o
1 9 9 79.200 80.535 4.563 81.353 o
1 9 10 86.098 86.141 4.814 73.115 o
1 9 11 33.401 33.017 3.254 159.997 o
1 9 12 82.061 88.553 5.195 62.774 o
1 9 13 27.041 25.657 3.123 173.737 o
1 10 -8 15.512 12.563 2.991 189.341 o
1 10 -7 22.891 23.571 3.889 112.036 o
1 10 -6 7.691 8.974 2.453 281.590 o
1 10 -5 13.813 11.785 2.572 256.005 o
1 10 -4 28.465 25.440 2.390 296.633 o
1 10 -3 25.863 26.323 3.350 150.942 o
1 10 -2 35.864 39.305 3.889 112.036 o
1 10 -1 67.924 66.225 5.265 61.125 o
1 10 0 77.130 80.823 5.803 50.309 o
1 10 1 116.351 115.880 7.358 31.288 o
1 10 2 58.294 61.200 4.906 70.397 o
1 10 3 24.374 24.528 3.171 168.513 o
1 10 4 80.430 79.207 5.623 53.571 o
1 10 5 99.947 100.007 5.050 66.418 o
1 10 6 86.292 89.605 4.766 74.578 o
1 10 7 100.655 103.002 5.233 61.871 o
1 10 8 86.407 90.511 4.930 69.706 o
1 10 9 93.542 89.371 5.002 67.711 o
1 10 10 97.270 97.856 5.487 56.267 o
1 10 11 79.682 84.364 5.118 64.683 o
1 10 12 61.467 62.433 4.625 79.199 o
1 11 -5 24.019 24.528 4.666 77.803 o
1 11 -4 19.466 17.708 3.290 156.480 o
1 11 -3 32.903 33.442 3.948 108.667 o
1 11 -2 57.481 59.465 5.145 64.001 o
1 11 -1 45.613 46.244 4.726 75.846 o
1 11 0 41.262 40.980 4.307 91.310 o
1 11 1 75.496 80.063 4.395 87.705 o
1 11 2 43.103 45.737 3.424 144.490 o
1 11 3 37.668 36.137 3.159 169.746 o
1 11 4 12.569 13.074 2.393 295.724 o
1 11 5 17.143 17.529 3.769 119.262 o
1 11 6 10.233 8.076 2.991 189.341 o
1 11 7 21.869 23.391 4.487 84.152 o
1 11 8 9.011 7.837 3.111 175.057 o
1 11 9 20.598 21.537 4.487 84.152 o
1 12 -2 41.304 42.236 5.384 58.439 o
1 12 -1 22.998 24.887 4.307 91.310 o
1 12 0 5.480 2.931 2.273 327.807 o
1 12 1 19.228 15.495 3.709 123.141 o
1 12 2 7.385 6.222 2.812 214.284 o
1 12 3 33.869 30.929 4.846 72.146 o
1 12 4 54.126 63.234 6.521 39.841 o
1 12 5 39.800 43.074 5.863 49.287 o
1 12 6 37.809 37.749 5.564 54.729 o
2 -11 -5 3.241 4.128 2.632 244.500 o
2 -11 -4 23.135 23.870 4.188 96.603 o
2 -11 -3 8.756 5.384 2.692 233.754 o
2 -11 -2 7.677 6.521 2.752 223.702 o
2 -11 -1 11.644 11.187 3.171 168.513 o
2 -11 0 4.173 3.589 2.393 295.845 o
2 -11 1 38.904 44.330 5.444 57.161 o
2 -11 2 57.782 57.252 5.803 50.309 o
2 -11 3 46.953 48.398 5.444 57.161 o
2 -10 -8 62.978 69.157 6.521 39.841 o
2 -10 -7 73.306 73.763 6.581 39.120 o
2 -10 -6 59.984 61.200 5.863 49.287 o
2 -10 -5 33.304 32.185 4.487 84.152 o
2 -10 -4 57.994 54.261 5.564 54.729 o
2 -10 -3 82.549 83.694 6.760 37.071 o
2 -10 -2 51.090 47.321 5.145 64.001 o
2 -10 -1 29.752 29.075 4.188 96.603 o
2 -10 0 33.052 35.356 4.547 81.952 o
2 -10 1 31.413 33.083 4.248 93.901 o
2 -10 2 49.081 46.694 3.356 150.443 o
2 -10 3 61.515 60.476 3.758 119.927 o
2 -10 4 37.230 34.519 4.367 88.826 o
2 -10 5 6.347 5.324 2.453 281.590 o
2 -10 6 9.884 8.256 2.812 214.284 o
2 -10 7 12.029 10.290 3.111 175.057 o
2 -9 -10 79.868 83.575 6.999 34.579 o
2 -9 -9 39.312 42.715 5.145 64.001 o
2 -9 -8 48.548 46.962 5.265 61.125 o
2 -9 -7 56.395 63.773 5.803 50.309 o
2 -9 -6 72.290 70.114 6.042 46.403 o
2 -9 -5 105.042 108.342 7.658 28.891 o
2 -9 -4 136.850 139.690 8.914 21.321 o
2 -9 -3 126.072 124.853 8.196 25.220 o
2 -9 -2 123.903 120.725 8.016 26.362 o
2 -9 -1 64.951 62.875 5.444 57.161 o
2 -9 0 62.147 59.166 5.265 61.125 o
2 -9 1 68.460 71.734 3.978 107.039 o
2 -9 2 69.492 71.793 4.050 103.261 o
2 -9 3 93.055 90.951 4.501 83.605 o
2 -9 4 49.655 46.364 4.606 79.837 o
2 -9 5 54.876 57.790 5.205 62.538 o
2 -9 6 33.021 30.630 4.188 96.603 o
2 -9 7 34.963 39.963 4.846 72.146 o
2 -9 8 47.049 46.364 5.384 58.439 o
2 -9 9 41.725 42.116 5.145 64.001 o
2 -8 -12 12.044 14.477 3.410 145.692 o
2 -8 -11 21.167 26.323 4.248 93.901 o
2 -8 -10 39.434 40.800 4.726 75.846 o
2 -8 -9 64.588 70.533 5.923 48.296 o
2 -8 -8 53.837 55.098 5.265 61.125 o
2 -8 -7 53.461 50.910 4.965 68.711 o
2 -8 -6 59.647 61.320 5.324 59.759 o
2 -8 -5 131.426 135.502 8.495 23.475 o
2 -8 -4 183.060 179.712 10.409 15.635 o
2 -8 -3 237.681 259.706 12.234 11.319 o
2 -8 -2 200.940 199.588 7.531 29.870 o
2 -8 -1 200.543 198.997 7.432 30.669 o
2 -8 0 130.139 129.147 5.402 58.047 o
2 -8 1 189.483 187.232 7.247 32.254 o
2 -8 2 201.858 211.239 7.845 27.527 o
2 -8 3 253.635 247.966 9.073 20.579 o
2 -8 4 41.880 44.608 3.023 185.428 o
2 -8 5 104.929 112.410 7.299 31.803 o
2 -8 6 79.052 79.267 6.162 44.618 o
2 -8 7 73.522 75.020 6.102 45.497 o
2 -8 8 91.965 90.574 6.999 34.579 o
2 -8 9 85.818 82.797 6.820 36.423 o
2 -8 10 24.786 21.716 3.948 108.667 o
2 -8 11 49.233 49.953 5.803 50.309 o
2 -7 -13 24.752 30.570 4.547 81.952 o
2 -7 -12 15.656 17.947 3.589 131.487 o
2 -7 -11 45.763 49.594 5.205 62.538 o
2 -7 -10 73.700 79.447 6.401 41.344 o
2 -7 -9 28.571 26.981 3.889 112.036 o
2 -7 -8 81.580 74.661 5.623 53.571 o
2 -7 -7 37.308 35.596 3.829 115.565 o
2 -7 -6 29.027 25.306 3.350 150.942 o
2 -7 -5 41.403 42.127 2.674 236.934 o
2 -7 -4 79.228 78.508 3.645 127.532 o
2 -7 -3 57.081 58.574 3.083 178.214 o
2 -7 -2 76.356 76.971 3.662 126.323 o
2 -7 -1 35.131 37.091 3.649 127.211 o
2 -7 0 271.774 252.543 9.410 19.130 o
2 -7 1 166.052 167.035 6.531 39.722 o
2 -7 2 102.272 107.861 4.648 78.415 o
2 -7 3 441.269 431.104 14.699 7.841 o
2 -7 4 198.279 195.799 7.403 30.916 o
2 -7 5 29.349 29.733 3.589 131.487 o
2 -7 6 94.968 101.402 6.641 38.418 o
2 -7 7 139.399 144.416 8.615 22.828 o
2 -7 8 88.301 90.754 6.700 37.735 o
2 -7 9 96.791 97.932 7.119 33.426 o
2 -7 10 27.288 29.434 4.248 93.901 o
2 -7 11 14.502 16.153 3.530 135.982 o
2 -7 12 30.987 34.997 4.965 68.711 o
2 -6 -14 80.234 88.480 7.239 32.331 o
2 -6 -13 19.842 16.153 3.290 156.480 o
2 -6 -12 51.930 57.671 5.444 57.161 o
2 -6 -11 87.081 85.309 6.401 41.344 o
2 -6 -10 129.595 131.015 8.316 24.499 o
2 -6 -9 77.899 82.976 6.282 42.934 o
2 -6 -8 20.219 13.819 2.572 256.005 o
2 -6 -7 86.829 84.444 3.927 109.874 o
2 -6 -6 223.413 213.910 7.724 28.393 o
2 -6 -5 79.858 78.951 3.637 128.072 o
2 -6 -4 500.872 479.979 15.708 6.866 o
2 -6 -3 407.232 405.245 13.004 10.018 o
2 -6 -2 197.574 195.207 9.991 16.973 o
2 -6 -1 410.805 404.658 13.215 9.700 o
2 -6 0 445.814 469.117 14.740 7.797 o
2 -6 1 8.638 10.401 1.394 871.733 o
2 -6 2 425.055 416.234 13.472 9.334 o
2 -6 3 254.307 254.339 8.692 22.421 o
2 -6 4 22.228 19.718 1.459 796.144 o
2 -6 5 6.746 7.461 1.256 1073.360 o
2 -6 6 8.871 10.694 1.466 788.408 o
2 -6 7 18.625 15.442 1.710 579.520 o
2 -6 8 130.494 123.456 5.251 61.435 o
2 -6 9 42.437 39.849 2.827 211.966 o
2 -6 10 47.866 50.611 4.906 70.397 o
2 -6 11 20.702 19.981 2.425 287.967 o
2 -6 12 37.099 40.737 3.396 146.922 o
2 -6 13 54.086 58.117 4.489 84.089 o
2 -5 -14 26.022 27.699 4.307 91.310 o
2 -5 -13 7.485 10.709 2.692 233.754 o
2 -5 -12 38.808 38.946 4.487 84.152 o
2 -5 -11 107.134 103.197 7.059 33.995 o
2 -5 -10 157.266 149.501 8.914 21.321 o
2 -5 -9 89.928 86.910 4.002 105.774 o
2 -5 -8 269.236 266.126 9.172 20.137 o
2 -5 -7 61.964 61.269 3.032 184.320 o
2 -5 -6 334.360 329.128 11.458 12.904 o
2 -5 -5 209.706 201.054 7.078 33.816 o
2 -5 -4 315.079 329.869 10.719 14.746 o
2 -5 -3 286.246 271.842 13.580 9.186 o
2 -5 -2 459.644 447.544 14.867 7.665 o
2 -5 -1 74.532 81.367 3.570 132.936 o
2 -5 0 363.582 349.044 11.843 12.079 o
2 -5 1 436.479 461.363 14.594 7.955 o
2 -5 2 772.233 770.966 19.670 4.379 o
2 -5 3 797.519 802.756 20.443 4.054 o
2 -5 4 362.660 354.204 11.622 12.543 o
2 -5 5 214.503 215.320 7.583 29.465 o
2 -5 6 331.680 326.395 11.413 13.006 o
2 -5 7 128.921 133.911 5.402 58.047 o
2 -5 8 201.012 189.958 7.143 33.203 o
2 -5 9 94.615 93.326 6.341 42.128 o
2 -5 10 17.917 20.030 2.146 367.778 o
2 -5 11 19.951 18.458 2.231 340.283 o
2 -5 12 22.383 23.452 2.640 243.080 o
2 -5 13 27.767 32.986 3.080 178.554 o
2 -5 14 17.500 20.525 2.674 236.934 o
2 -4 -15 7.715 8.675 2.812 214.284 o
2 -4 -14 13.716 15.614 3.171 168.513 o
2 -4 -13 16.287 14.597 2.931 197.148 o
2 -4 -12 11.076 11.426 2.572 256.005 o
2 -4 -11 73.385 73.379 3.796 117.572 o
2 -4 -10 81.143 74.913 3.716 122.677 o
2 -4 -8 95.482 95.540 4.013 105.212 o
2 -4 -7 61.454 64.082 2.911 199.977 o
2 -4 -6 126.060 126.419 5.074 65.798 o
2 -4 -5 146.304 154.107 8.196 25.220 o
2 -4 -4 312.349 308.275 14.118 8.499 o
2 -4 -3 461.538 485.010 15.459 7.089 o
2 -4 -2 274.661 287.164 9.835 17.515 o
2 -4 -1 607.705 625.935 19.585 4.416 o
2 -4 0 669.344 656.696 21.764 3.576 o
2 -4 1 434.294 434.673 13.177 9.757 o
2 -4 2 1606.330 1601.840 39.718 1.074 o
2 -4 3 1179.230 1156.410 29.344 1.967 o
2 -4 4 422.889 435.301 13.739 8.975 o
2 -4 5 285.167 299.558 9.700 18.005 o
2 -4 6 183.270 181.663 6.443 40.814 o
2 -4 7 633.108 668.837 21.171 3.780 o
2 -4 8 339.794 337.349 16.332 6.351 o
2 -4 9 121.799 116.650 5.032 66.910 o
2 -4 10 19.001 18.119 2.051 402.596 o
2 -4 11 11.345 11.421 1.777 536.681 o
2 -4 12 11.228 10.596 1.860 489.759 o
2 -4 13 40.196 41.601 3.335 152.349 o
2 -4 14 12.082 14.190 2.305 318.810 o
2 -4 15 5.993 5.454 1.879 479.706 o
2 -3 -15 27.908 28.536 4.188 96.603 o
2 -3 -14 24.651 24.528 3.829 115.565 o
2 -3 -13 17.469 20.041 3.410 145.692 o
2 -3 -12 35.332 27.290 6.461 40.582 o
2 -3 -11 82.877 73.203 7.388 31.035 o
2 -3 -10 107.183 102.285 4.609 79.763 o
2 -3 -9 156.837 153.189 6.012 46.865 o
2 -3 -7 28.468 27.327 1.902 468.202 o
2 -3 -5 170.620 158.275 5.350 59.186 o
2 -3 -4 287.414 296.753 9.433 19.038 o
2 -3 -3 55.456 48.723 2.263 330.842 o
2 -3 -2 8.517 11.843 1.078 1457.590 o
2 -3 -1 59.669 58.373 2.537 263.193 o
2 -3 0 504.939 460.337 14.552 8.000 o
2 -3 1 291.949 331.970 10.808 14.502 o
2 -3 2 413.488 409.826 10.446 15.526 o
2 -3 3 1284.000 1230.070 38.091 1.168 o
2 -3 4 263.070 280.470 8.938 21.207 o
2 -3 5 227.380 243.804 8.074 25.985 o
2 -3 6 276.187 287.430 9.685 18.062 o
2 -3 7 380.593 393.285 18.187 5.122 o
2 -3 8 774.401 764.046 24.133 2.909 o
2 -3 9 448.368 445.312 14.615 7.931 o
2 -3 10 234.089 223.519 8.228 25.026 o
2 -3 11 113.621 110.631 5.055 66.298 o
2 -3 12 99.780 103.038 4.928 69.757 o
2 -3 13 98.346 97.692 5.013 67.422 o
2 -3 14 109.800 109.466 5.455 56.931 o
2 -3 15 14.357 13.671 2.305 318.810 o
2 -3 16 3.459 3.769 2.513 268.341 o
2 -2 -15 43.140 41.279 7.358 31.288 o
2 -2 -14 90.562 91.355 4.717 76.154 o
2 -2 -13 74.569 79.207 4.145 98.605 o
2 -2 -12 20.225 22.966 2.325 313.271 o
2 -2 -11 111.813 110.693 4.800 73.528 o
2 -2 -10 87.940 88.080 4.040 103.811 o
2 -2 -9 79.291 73.233 3.573 132.713 o
2 -2 -8 74.667 76.384 3.383 147.992 o
2 -2 -7 122.429 118.537 4.610 79.702 o
2 -2 -6 215.457 214.262 7.847 27.513 o
2 -2 -5 239.528 241.805 8.164 25.418 o
2 -2 -4 1390.800 1424.410 42.260 0.949 o
2 -2 -3 177.998 183.234 5.880 49.006 o
2 -2 -2 202.304 199.180 6.578 39.153 o
2 -2 -1 111.020 127.668 4.294 91.900 o
2 -2 0 296.129 324.368 10.322 15.901 o
2 -2 1 1310.230 1231.320 37.797 1.186 o
2 -2 2 1150.140 1175.810 28.413 2.098 o
2 -2 3 80.978 84.951 4.906 70.397 o
2 -2 4 522.563 511.892 16.475 6.242 o
2 -2 5 287.948 292.445 9.114 20.394 o
2 -2 7 250.768 254.755 8.735 22.205 o
2 -2 8 511.756 500.512 16.011 6.608 o
2 -2 9 109.996 106.919 4.442 85.869 o
2 -2 10 353.365 371.707 12.352 11.104 o
2 -2 11 98.974 102.573 5.265 61.125 o
2 -2 12 120.556 121.912 5.392 58.261 o
2 -2 13 60.801 65.889 3.764 119.564 o
2 -2 14 103.597 107.724 5.330 59.631 o
2 -2 15 79.947 83.392 4.695 76.856 o
2 -2 16 9.331 8.555 2.931 197.148 o
2 -1 -16 32.368 31.288 4.846 72.146 o
2 -1 -15 21.378 17.708 3.649 127.211 o
2 -1 -14 46.721 45.646 5.085 65.516 o
2 -1 -13 70.288 60.467 3.669 125.873 o
2 -1 -12 174.682 179.876 7.123 33.387 o
2 -1 -11 147.995 147.028 6.042 46.405 o
2 -1 -10 180.184 179.267 6.742 37.267 o
2 -1 -9 251.323 250.748 8.582 23.000 o
2 -1 -8 144.677 139.941 5.286 60.636 o
2 -1 -6 215.507 223.428 7.631 29.090 o
2 -1 -5 181.707 167.723 5.983 47.327 o
2 -1 -4 346.246 350.720 11.060 13.848 o
2 -1 -3 359.263 371.705 11.357 13.135 o
2 -1 -2 128.702 135.966 5.032 66.910 o
2 -1 -1 246.385 267.959 9.391 19.210 o
2 -1 0 1380.780 1309.240 32.951 1.560 o
2 -1 1 381.717 379.013 9.531 18.651 o
2 -1 2 2425.940 2481.740 75.803 0.295 o
2 -1 3 400.849 404.034 12.774 10.382 o
2 -1 4 824.212 787.779 24.873 2.738 o
2 -1 5 396.544 409.079 18.964 4.710 o
2 -1 6 285.372 278.763 8.799 21.884 o
2 -1 7 376.894 410.986 13.579 9.188 o
2 -1 8 589.556 594.834 18.951 4.717 o
2 -1 9 196.094 190.717 7.064 33.949 o
2 -1 10 47.757 44.078 2.769 221.012 o
2 -1 11 157.831 160.612 6.110 45.380 o
2 -1 12 73.428 70.634 3.758 119.927 o
2 -1 13 44.544 45.625 3.146 171.147 o
2 -1 14 116.587 118.012 5.514 55.710 o
2 -1 15 44.822 48.307 3.485 139.477 o
2 -1 16 17.146 17.229 3.709 123.141 o
2 0 -16 51.820 58.628 6.222 43.764 o
2 0 -15 27.312 27.280 4.487 84.152 o
2 0 -14 21.075 16.272 3.410 145.692 o
2 0 -13 53.338 56.175 5.145 64.001 o
2 0 -12 116.554 109.075 4.778 74.216 o
2 0 -11 186.794 173.874 6.570 39.251 o
2 0 -10 163.554 163.025 6.316 42.473 o
2 0 -9 202.413 205.754 7.309 31.711 o
2 0 -8 39.619 43.370 2.341 309.200 o
2 0 -7 116.631 122.210 4.639 78.727 o
2 0 -6 78.532 77.571 3.364 149.668 o
2 0 -5 481.060 495.490 14.970 7.559 o
2 0 -4 382.837 392.602 12.814 10.317 o
2 0 -3 329.707 339.316 9.765 17.767 o
2 0 -2 217.227 227.121 6.570 39.251 o
2 0 -1 204.350 211.416 6.550 39.484 o
2 0 0 511.388 533.310 17.153 5.758 o
2 0 1 1629.300 1625.940 50.678 0.660 o
2 0 2 786.512 788.391 23.964 2.950 o
2 0 3 1041.900 1091.200 44.330 0.862 o
2 0 4 302.745 307.492 10.089 16.643 o
2 0 5 1440.540 1458.800 43.994 0.875 o
2 0 6 580.078 613.369 18.655 4.868 o
2 0 7 398.682 392.439 12.373 11.066 o
2 0 8 445.296 468.025 15.079 7.451 o
2 0 9 635.310 618.733 19.373 4.514 o
2 0 10 113.807 107.185 4.667 77.767 o
2 0 11 5.771 8.300 1.413 848.669 o
2 0 12 43.554 41.203 2.716 229.580 o
2 0 13 80.734 85.192 4.299 91.653 o
2 0 14 51.140 53.535 3.492 138.928 o
2 0 15 66.400 70.114 6.162 44.618 o
2 0 16 6.516 9.273 2.931 197.148 o
2 0 17 15.032 15.375 3.649 127.211 o
2 1 -15 38.741 42.655 5.265 61.125 o
2 1 -14 4.159 2.931 2.453 281.590 o
2 1 -13 91.010 92.668 6.940 35.178 o
2 1 -12 16.801 19.622 3.410 145.692 o
2 1 -11 61.090 65.120 3.415 145.277 o
2 1 -10 280.651 284.809 9.797 17.652 o
2 1 -9 74.284 70.702 3.829 115.565 o
2 1 -8 106.231 116.276 4.930 69.706 o
2 1 -7 605.326 635.360 19.622 4.400 o
2 1 -6 66.026 68.932 2.886 203.414 o
2 1 -5 807.085 812.368 25.948 2.516 o
2 1 -4 699.730 763.617 23.238 3.137 o
2 1 -3 277.463 265.715 7.913 27.058 o
2 1 -2 214.539 242.501 6.961 34.962 o
2 1 -1 796.689 831.737 34.040 1.462 o
2 1 0 354.416 352.784 16.153 6.493 o
2 1 1 820.367 888.241 26.164 2.475 o
2 1 2 426.341 390.999 11.739 12.294 o
2 1 3 1804.870 1779.720 54.759 0.565 o
2 1 4 82.134 86.314 3.550 134.399 o
2 1 5 255.338 252.119 8.945 21.173 o
2 1 6 1380.840 1423.870 43.063 0.914 o
2 1 7 822.848 847.690 25.612 2.583 o
2 1 8 584.576 576.677 18.674 4.858 o
2 1 9 1496.640 1527.600 46.573 0.781 o
2 1 10 721.899 707.944 22.160 3.450 o
2 1 11 359.805 344.837 11.836 12.092 o
2 1 12 294.287 272.483 9.547 18.589 o
2 1 13 228.397 214.982 8.087 25.905 o
2 1 14 113.678 112.051 7.598 29.348 o
2 1 15 80.473 77.472 6.341 42.128 o
2 1 16 16.841 12.264 3.231 162.329 o
2 1 17 6.333 8.495 3.111 175.057 o
2 2 -15 67.414 64.969 6.760 37.071 o
2 2 -14 19.302 17.588 3.709 123.141 o
2 2 -13 36.440 37.450 5.025 67.085 o
2 2 -12 179.500 180.969 10.589 15.109 o
2 2 -11 164.996 167.269 9.392 19.204 o
2 2 -10 56.314 61.353 3.290 156.480 o
2 2 -9 271.900 264.163 9.161 20.187 o
2 2 -8 413.351 392.110 12.042 11.683 o
2 2 -7 258.370 247.634 8.125 25.664 o
2 2 -6 228.346 214.018 7.192 32.756 o
2 2 -5 163.524 148.774 5.195 62.761 o
2 2 -4 178.734 172.034 6.215 43.853 o
2 2 -2 421.098 451.195 19.802 4.320 o
2 2 -1 400.554 429.000 20.400 4.071 o
2 2 0 270.829 272.679 13.580 9.186 o
2 2 1 441.646 414.718 13.557 9.217 o
2 2 2 430.709 443.366 13.091 9.885 o
2 2 3 322.465 341.468 9.852 17.454 o
2 2 4 124.556 149.820 5.383 58.455 o
2 2 5 180.484 179.612 6.504 40.045 o
2 2 6 491.934 511.416 15.180 7.352 o
2 2 7 362.398 366.252 11.771 12.226 o
2 2 8 223.433 231.104 7.682 28.708 o
2 2 9 331.557 316.789 10.794 14.540 o
2 2 10 10.072 14.687 1.566 691.065 o
2 2 11 125.222 122.567 4.770 74.459 o
2 2 12 338.112 328.218 11.407 13.021 o
2 2 13 111.887 106.906 7.478 30.295 o
2 2 14 151.219 159.372 9.751 17.816 o
2 2 15 95.305 100.684 7.478 30.295 o
2 2 16 40.070 34.698 4.846 72.146 o
2 2 17 22.862 16.153 3.649 127.211 o
2 3 -15 34.151 37.749 5.444 57.161 o
2 3 -14 49.067 43.193 5.384 58.439 o
2 3 -13 106.335 106.786 7.837 27.583 o
2 3 -12 104.757 95.659 7.059 33.995 o
2 3 -11 279.714 277.345 14.717 7.822 o
2 3 -10 291.087 284.405 14.537 8.016 o
2 3 -9 61.266 56.773 4.846 72.146 o
2 3 -8 71.493 72.028 3.104 175.845 o
2 3 -7 487.611 482.525 14.879 7.652 o
2 3 -6 609.459 626.421 19.323 4.537 o
2 3 -5 257.946 256.011 8.421 23.887 o
2 3 -4 725.440 748.276 23.366 3.103 o
2 3 -3 352.937 345.828 10.813 14.488 o
2 3 -2 816.485 888.325 25.375 2.631 o
2 3 -1 742.028 731.591 35.236 1.364 o
2 3 0 827.884 886.297 39.723 1.074 o
2 3 1 123.784 115.055 4.936 69.547 o
2 3 2 115.485 110.833 3.966 107.726 o
2 3 3 66.366 65.920 2.555 259.608 o
2 3 4 43.984 42.859 1.679 600.694 o
2 3 6 308.791 339.674 11.044 13.888 o
2 3 7 368.388 364.287 11.167 13.585 o
2 3 8 285.692 287.423 9.084 20.531 o
2 3 9 308.204 308.207 10.465 15.468 o
2 3 10 40.711 39.783 2.322 314.115 o
2 3 11 143.989 143.518 7.897 27.167 o
2 3 12 136.585 134.006 8.256 24.856 o
2 3 13 141.786 135.203 8.555 23.148 o
2 3 14 47.150 45.347 4.786 73.961 o
2 3 15 77.229 81.421 6.820 36.423 o
2 3 16 30.880 33.502 4.666 77.803 o
2 3 17 34.586 40.441 5.145 64.001 o
2 4 -14 25.969 30.510 4.726 75.846 o
2 4 -13 56.873 54.021 5.623 53.571 o
2 4 -12 126.684 122.939 8.375 24.151 o
2 4 -11 201.298 188.805 11.068 13.831 o
2 4 -10 280.351 268.192 14.059 8.571 o
2 4 -9 51.644 46.005 4.307 91.310 o
2 4 -8 256.710 245.519 12.862 10.240 o
2 4 -7 160.020 157.906 7.239 32.331 o
2 4 -6 166.569 171.663 5.843 49.619 o
2 4 -5 342.705 354.640 11.407 13.021 o
2 4 -4 253.417 266.331 8.930 21.244 o
2 4 -3 412.708 396.155 11.791 12.185 o
2 4 -2 468.274 458.194 19.084 4.652 o
2 4 -1 565.029 580.714 24.707 2.775 o
2 4 0 1121.660 1158.560 50.432 0.666 o
2 4 1 729.305 739.186 22.587 3.321 o
2 4 2 725.919 758.664 23.262 3.131 o
2 4 3 979.078 996.297 31.215 1.739 o
2 4 4 93.991 101.635 4.995 67.891 o
2 4 5 27.238 29.553 2.572 256.005 o
2 4 6 245.584 254.672 12.743 10.433 o
2 4 7 329.998 332.032 10.575 15.148 o
2 4 8 193.234 190.660 9.452 18.961 o
2 4 9 113.245 123.896 7.717 28.445 o
2 4 10 50.498 42.655 4.248 93.901 o
2 4 11 232.005 229.174 8.101 25.815 o
2 4 12 47.787 43.373 4.487 84.152 o
2 4 13 173.305 174.089 10.469 15.456 o
2 4 14 47.994 47.501 4.965 68.711 o
2 4 15 20.277 18.785 3.589 131.487 o
2 4 16 19.892 17.050 3.709 123.141 o
2 4 17 42.617 50.551 5.743 51.362 o
2 5 -13 5.348 4.307 2.632 244.500 o
2 5 -12 26.266 26.442 4.188 96.603 o
2 5 -11 73.296 67.841 5.863 49.287 o
2 5 -10 66.549 63.892 5.504 55.925 o
2 5 -9 8.148 8.136 2.333 311.212 o
2 5 -8 158.305 152.791 8.675 22.514 o
2 5 -7 536.483 531.419 25.545 2.596 o
2 5 -6 391.911 383.807 13.126 9.832 o
2 5 -5 411.384 410.766 13.166 9.774 o
2 5 -4 141.492 136.807 5.015 67.365 o
2 5 -3 195.388 186.836 6.439 40.867 o
2 5 -2 420.098 434.863 18.845 4.771 o
2 5 0 33.662 34.468 1.720 572.307 o
2 5 1 627.741 673.518 20.534 4.018 o
2 5 2 423.102 427.514 13.081 9.901 o
2 5 3 610.122 621.100 19.343 4.528 o
2 5 4 64.815 65.867 4.606 79.837 o
2 5 5 479.759 444.913 22.135 3.458 o
2 5 6 408.371 417.215 20.101 4.193 o
2 5 7 614.087 637.607 29.613 1.932 o
2 5 8 435.111 425.470 20.759 3.931 o
2 5 9 235.003 226.375 12.085 11.601 o
2 5 11 372.487 362.613 12.433 10.959 o
2 5 12 231.306 223.430 8.777 21.991 o
2 5 13 67.026 65.807 5.803 50.309 o
2 5 14 116.229 113.427 8.076 25.973 o
2 5 15 34.959 34.100 4.786 73.961 o
2 5 16 19.757 20.101 3.889 112.036 o
2 6 -13 44.025 41.279 5.504 55.925 o
2 6 -12 49.750 48.398 5.384 58.439 o
2 6 -11 115.879 122.819 8.435 23.809 o
2 6 -10 102.998 107.325 7.418 30.785 o
2 6 -9 153.490 153.569 8.914 21.321 o
2 6 -8 97.474 94.642 6.282 42.934 o
2 6 -7 188.711 174.986 9.392 19.204 o
2 6 -6 389.883 391.071 17.947 5.259 o
2 6 -5 66.981 66.067 3.565 133.272 o
2 6 -4 26.242 26.970 1.768 542.090 o
2 6 -2 25.510 26.921 2.572 256.005 o
2 6 -1 156.300 159.073 9.093 20.488 o
2 6 0 65.711 64.598 2.836 210.573 o
2 6 1 192.943 199.929 7.267 32.082 o
2 6 2 161.694 164.233 5.426 57.551 o
2 6 3 90.141 86.546 3.320 153.660 o
2 6 4 255.313 250.125 11.666 12.448 o
2 6 6 117.533 119.110 7.299 31.803 o
2 6 7 440.062 427.205 20.460 4.047 o
2 6 8 210.549 194.967 10.170 16.379 o
2 6 10 21.049 22.314 3.410 145.692 o
2 6 11 57.155 60.723 3.565 133.272 o
2 6 12 46.159 43.971 4.846 72.146 o
2 6 13 68.097 69.516 6.162 44.618 o
2 6 14 88.191 93.087 7.358 31.288 o
2 6 15 29.615 32.604 4.726 75.846 o
2 6 16 39.947 39.963 5.384 58.439 o
2 7 -12 60.169 64.431 6.461 40.582 o
2 7 -11 70.853 73.524 6.581 39.120 o
2 7 -10 61.423 62.816 5.803 50.309 o
2 7 -9 43.511 40.681 4.547 81.952 o
2 7 -8 175.328 179.174 10.230 16.188 o
2 7 -7 61.007 62.457 5.145 64.001 o
2 7 -6 256.183 248.570 12.503 10.837 o
2 7 -5 480.613 457.357 21.417 3.693 o
2 7 -4 383.085 369.415 17.648 5.439 o
2 7 -3 281.406 280.277 13.460 9.350 o
2 7 -2 408.657 392.088 18.187 5.122 o
2 7 -1 224.916 220.563 7.716 28.456 o
2 7 0 313.530 308.474 10.462 15.478 o
2 7 1 222.035 227.367 8.383 24.104 o
2 7 2 216.336 229.033 7.926 26.970 o
2 7 3 1.478 0.838 1.196 1183.380 o
2 7 5 58.715 62.816 4.666 77.803 o
2 7 6 116.798 113.905 6.820 36.423 o
2 7 7 52.858 55.936 4.606 79.837 o
2 7 8 246.994 243.605 12.922 10.146 o
2 7 9 59.640 61.739 5.085 65.516 o
2 7 10 40.784 39.723 4.307 91.310 o
2 7 11 71.751 69.724 4.097 100.906 o
2 7 12 91.528 93.710 5.504 55.925 o
2 7 13 41.406 39.544 4.906 70.397 o
2 7 14 32.792 34.638 4.846 72.146 o
2 7 15 35.762 41.937 5.444 57.161 o
2 8 -10 63.223 65.926 6.102 45.497 o
2 8 -9 26.030 26.442 4.188 96.603 o
2 8 -8 60.621 58.329 5.265 61.125 o
2 8 -7 80.347 80.523 6.042 46.403 o
2 8 -6 146.990 150.219 9.093 20.488 o
2 8 -5 88.791 86.925 5.863 49.287 o
2 8 -4 145.308 141.245 7.837 27.583 o
2 8 -3 185.738 178.875 9.273 19.703 o
2 8 -2 225.856 220.752 10.649 14.940 o
2 8 -1 236.372 235.809 8.048 26.152 o
2 8 0 374.200 370.637 12.342 11.122 o
2 8 1 149.853 145.313 8.316 24.499 o
2 8 2 295.279 292.242 14.956 7.574 o
2 8 3 167.810 152.193 9.153 20.221 o
2 8 6 131.047 125.272 8.256 24.856 o
2 8 7 119.264 118.153 8.076 25.973 o
2 8 8 98.944 103.676 7.358 31.288 o
2 8 9 45.149 43.851 4.487 84.152 o
2 8 10 65.841 61.858 5.564 54.729 o
2 8 11 78.599 76.958 4.505 83.473 o
2 8 12 64.854 66.047 4.167 97.583 o
2 8 13 57.054 59.071 4.165 97.644 o
2 8 14 11.377 11.546 3.410 145.692 o
2 9 -9 28.580 23.989 4.068 102.369 o
2 9 -8 23.956 23.690 3.889 112.036 o
2 9 -7 58.229 55.337 5.145 64.001 o
2 9 -6 95.722 90.275 6.641 38.418 o
2 9 -5 117.816 120.008 7.538 29.816 o
2 9 -4 79.858 77.413 5.444 57.161 o
2 9 -3 27.121 27.041 3.051 181.989 o
2 9 -2 51.699 51.647 2.953 194.273 o
2 9 -1 233.892 231.400 11.606 12.577 o
2 9 0 161.375 149.980 8.615 22.828 o
2 9 1 165.037 164.278 9.093 20.488 o
2 9 2 236.331 233.853 11.666 12.448 o
2 9 3 357.600 350.929 17.050 5.828 o
2 9 4 262.790 247.912 12.982 10.052 o
2 9 5 171.534 169.662 9.811 17.599 o
2 9 6 136.343 131.554 8.375 24.151 o
2 9 7 73.024 70.353 5.743 51.362 o
2 9 8 54.800 60.542 5.504 55.925 o
2 9 9 20.700 21.297 3.649 127.211 o
2 9 10 0.967 -0.234 1.332 954.821 o
2 9 11 10.909 12.516 2.263 330.842 o
2 9 12 34.217 32.181 3.889 112.036 o
2 9 13 57.713 60.402 4.463 85.063 o
2 10 -7 19.745 20.879 3.709 123.141 o
2 10 -6 28.173 26.562 3.829 115.565 o
2 10 -5 30.090 28.955 3.889 112.036 o
2 10 -4 43.423 39.940 3.194 166.047 o
2 10 -3 35.719 32.365 3.829 115.565 o
2 10 -2 4.284 4.068 1.855 492.563 o
2 10 -1 64.069 64.790 5.205 62.538 o
2 10 0 82.917 83.694 6.162 44.618 o
2 10 1 24.817 26.981 3.649 127.211 o
2 10 2 44.907 45.586 4.367 88.826 o
2 10 3 60.931 59.406 4.906 70.397 o
2 10 4 129.949 138.912 8.076 25.973 o
2 10 5 161.764 149.321 9.093 20.488 o
2 10 6 184.176 188.925 11.068 13.831 o
2 10 7 104.794 104.932 7.538 29.816 o
2 10 8 121.113 120.965 8.316 24.499 o
2 10 9 127.921 132.383 6.531 39.722 o
2 10 10 49.501 52.865 4.013 105.212 o
2 10 11 12.299 12.659 2.454 281.423 o
2 10 12 71.393 79.233 5.076 65.757 o
2 11 -5 50.150 56.654 5.324 59.759 o
2 11 -4 58.974 68.020 5.683 52.449 o
2 11 -3 52.906 57.970 5.205 62.538 o
2 11 -2 57.777 64.251 5.444 57.161 o
2 11 -1 106.118 103.197 7.299 31.803 o
2 11 0 61.892 65.986 5.683 52.449 o
2 11 1 19.494 18.246 3.290 156.480 o
2 11 2 53.536 56.594 5.145 64.001 o
2 11 3 14.066 14.358 2.991 189.341 o
2 11 4 10.180 12.384 2.931 197.148 o
2 11 5 14.476 16.153 3.350 150.942 o
2 11 6 22.126 18.904 3.589 131.487 o
2 11 7 25.487 26.562 4.367 88.826 o
2 11 8 54.574 57.950 4.294 91.900 o
2 11 9 35.648 34.005 3.619 129.323 o
2 11 10 52.959 54.492 4.352 89.463 o
2 12 -1 54.159 54.141 5.444 57.161 o
2 12 0 29.578 26.981 4.307 91.310 o
2 12 1 16.691 15.674 3.350 150.942 o
2 12 2 24.242 20.161 3.649 127.211 o
2 12 3 29.673 23.331 3.948 108.667 o
2 12 4 33.810 29.673 4.547 81.952 o
2 12 5 41.409 41.817 5.324 59.759 o
2 12 6 29.687 28.143 3.335 152.349 o
3 -10 -6 29.692 30.271 4.786 73.961 o
3 -10 -5 64.899 69.097 6.700 37.735 o
3 -10 -4 82.409 86.566 7.239 32.331 o
3 -10 -3 66.781 71.610 6.401 41.344 o
3 -10 -2 69.279 74.840 6.700 37.735 o
3 -10 -1 62.227 58.329 5.803 50.309 o
3 -10 0 11.564 10.110 3.051 181.989 o
3 -10 1 16.001 14.418 3.350 150.942 o
3 -10 2 24.965 24.020 2.792 217.334 o
3 -10 3 39.726 41.039 3.541 135.086 o
3 -10 4 34.535 30.570 4.307 91.310 o
3 -10 5 17.331 15.315 3.410 145.692 o
3 -9 -9 36.507 44.808 5.743 51.362 o
3 -9 -8 7.203 7.478 2.692 233.754 o
3 -9 -7 5.771 6.940 2.632 244.500 o
3 -9 -6 10.244 9.751 2.812 214.284 o
3 -9 -5 36.977 36.852 4.666 77.803 o
3 -9 -4 64.101 67.661 6.162 44.618 o
3 -9 -3 68.790 71.311 5.982 47.335 o
3 -9 -2 142.259 135.263 8.974 21.038 o
3 -9 -1 142.088 138.741 8.555 23.148 o
3 -9 0 111.975 106.906 5.803 50.309 o
3 -9 1 76.449 79.846 4.408 87.176 o
3 -9 2 35.256 34.735 2.947 195.108 o
3 -9 3 46.013 49.184 3.547 134.685 o
3 -9 4 79.818 76.456 6.042 46.403 o
3 -9 5 17.811 13.161 3.051 181.989 o
3 -9 6 14.245 18.007 3.470 140.711 o
3 -9 7 18.541 22.374 3.948 108.667 o
3 -9 8 24.953 26.442 4.427 86.441 o
3 -8 -10 71.811 79.626 6.760 37.071 o
3 -8 -9 112.284 122.161 8.375 24.151 o
3 -8 -8 101.816 112.530 8.016 26.362 o
3 -8 -7 46.485 53.064 5.205 62.538 o
3 -8 -6 44.087 45.048 4.786 73.961 o
3 -8 -5 23.738 24.229 3.769 119.262 o
3 -8 -4 42.623 45.646 4.786 73.961 o
3 -8 -3 70.800 70.386 3.730 121.760 o
3 -8 -2 60.877 44.390 3.829 115.565 o
3 -8 -1 63.636 65.066 3.584 131.906 o
3 -8 0 119.348 121.788 5.280 60.776 o
3 -8 1 134.509 129.170 5.557 54.864 o
3 -8 2 131.089 138.395 6.003 47.013 o
3 -8 3 159.403 168.255 6.789 36.760 o
3 -8 4 163.859 163.560 9.632 18.261 o
3 -8 5 87.260 86.865 6.461 40.582 o
3 -8 6 41.136 40.501 4.547 81.952 o
3 -8 7 13.309 14.777 3.111 175.057 o
3 -8 8 25.220 26.442 4.188 96.603 o
3 -8 9 56.436 58.628 5.803 50.309 o
3 -8 10 47.816 50.551 5.743 51.362 o
3 -7 -12 6.267 7.777 2.812 214.284 o
3 -7 -11 7.355 11.426 2.931 197.148 o
3 -7 -10 47.755 48.996 5.205 62.538 o
3 -7 -9 53.575 54.201 5.145 64.001 o
3 -7 -8 42.861 40.740 4.547 81.952 o
3 -7 -7 97.180 104.393 7.239 32.331 o
3 -7 -6 89.012 89.737 6.461 40.582 o
3 -7 -5 65.809 66.029 3.654 126.876 o
3 -7 -4 137.420 124.869 6.371 41.734 o
3 -7 -3 86.735 80.762 9.811 17.599 o
3 -7 -2 9.516 11.844 1.795 525.948 o
3 -7 -1 41.787 38.634 2.703 231.808 o
3 -7 0 7.020 5.771 1.332 954.821 o
3 -7 1 3.744 3.033 1.163 1253.080 o
3 -7 2 46.420 49.563 3.107 175.462 o
3 -7 3 199.152 197.628 7.508 30.055 o
3 -7 4 147.242 139.570 8.555 23.148 o
3 -7 5 126.688 132.690 8.136 25.592 o
3 -7 6 105.409 104.573 7.119 33.426 o
3 -7 7 139.024 136.938 8.675 22.514 o
3 -7 8 52.504 54.978 5.265 61.125 o
3 -7 9 67.540 70.712 6.162 44.618 o
3 -7 10 44.445 48.817 5.324 59.759 o
3 -7 11 27.804 36.373 5.145 64.001 o
3 -6 -13 48.190 53.782 5.683 52.449 o
3 -6 -12 23.185 26.981 4.307 91.310 o
3 -6 -11 37.267 38.048 4.666 77.803 o
3 -6 -10 50.738 51.150 4.846 72.146 o
3 -6 -9 56.542 63.833 5.444 57.161 o
3 -6 -8 24.630 23.331 3.530 135.982 o
3 -6 -7 43.706 42.487 2.759 222.564 o
3 -6 -6 48.063 47.088 2.912 199.716 o
3 -6 -5 287.600 281.892 14.358 8.218 o
3 -6 -4 95.236 91.314 4.201 95.980 o
3 -6 -3 367.591 378.540 12.836 10.282 o
3 -6 -2 459.883 470.595 15.227 7.306 o
3 -6 -1 90.486 90.283 4.277 92.592 o
3 -6 0 192.963 186.989 7.210 32.587 o
3 -6 1 56.051 54.014 3.127 173.262 o
3 -6 2 189.922 190.416 7.021 34.371 o
3 -6 3 243.935 223.444 8.100 25.820 o
3 -6 8 18.789 17.828 3.171 168.513 o
3 -6 9 76.428 76.755 6.162 44.618 o
3 -6 10 28.012 25.665 4.008 105.447 o
3 -6 11 33.221 34.698 4.726 75.846 o
3 -6 12 13.710 15.195 3.589 131.487 o
3 -5 -13 36.546 38.228 4.786 73.961 o
3 -5 -12 40.802 42.834 4.666 77.803 o
3 -5 -11 27.395 29.733 3.889 112.036 o
3 -5 -10 175.076 172.832 10.170 16.379 o
3 -5 -9 266.190 256.534 9.429 19.056 o
3 -5 -8 67.585 59.944 4.965 68.711 o
3 -5 -7 257.197 254.373 13.460 9.350 o
3 -5 -6 172.166 171.073 6.468 40.489 o
3 -5 -5 51.783 51.729 2.953 194.273 o
3 -5 -4 267.807 271.477 9.495 18.791 o
3 -5 -3 628.816 596.437 19.226 4.583 o
3 -5 -2 317.534 318.716 10.658 14.914 o
3 -5 -1 280.270 282.922 9.877 17.366 o
3 -5 0 220.416 223.775 8.037 26.227 o
3 -5 1 590.986 576.846 18.634 4.879 o
3 -5 2 321.946 324.357 11.358 13.133 o
3 -5 3 213.192 216.355 8.036 26.233 o
3 -5 4 230.852 229.845 12.025 11.716 o
3 -5 5 25.010 28.416 3.290 156.480 o
3 -5 6 39.605 38.826 3.829 115.565 o
3 -5 7 72.590 71.370 5.145 64.001 o
3 -5 8 149.110 141.425 8.196 25.220 o
3 -5 9 112.437 115.042 7.418 30.785 o
3 -5 10 135.772 131.853 8.256 24.856 o
3 -5 11 43.572 42.356 4.666 77.803 o
3 -5 12 8.725 9.811 2.931 197.148 o
3 -5 13 4.753 4.188 2.513 268.341 o
3 -5 14 11.928 12.922 3.410 145.692 o
3 -4 -13 0.219 1.256 1.914 462.259 o
3 -4 -12 27.247 27.041 3.709 123.141 o
3 -4 -11 46.216 45.900 3.088 177.652 o
3 -4 -10 46.324 46.721 2.982 190.503 o
3 -4 -9 113.549 104.681 4.758 74.841 o
3 -4 -8 179.560 183.669 6.874 35.853 o
3 -4 -7 31.084 30.128 2.260 331.537 o
3 -4 -6 182.427 183.389 6.938 35.199 o
3 -4 -5 206.145 206.803 7.805 27.812 o
3 -4 -4 105.577 101.035 4.357 89.261 o
3 -4 -3 379.257 366.689 12.310 11.180 o
3 -4 -2 443.110 447.053 14.403 8.166 o
3 -4 -1 149.702 139.538 5.266 61.080 o
3 -4 0 175.933 186.776 6.916 35.415 o
3 -4 1 312.673 305.918 10.279 16.032 o
3 -4 2 947.608 980.926 30.309 1.844 o
3 -4 3 737.466 737.394 33.262 1.531 o
3 -4 4 344.750 339.056 11.229 13.437 o
3 -4 5 116.612 114.589 4.478 84.465 o
3 -4 6 104.747 109.079 4.497 83.758 o
3 -4 7 69.412 65.244 3.194 166.047 o
3 -4 8 31.582 37.080 2.426 287.775 o
3 -4 9 22.754 24.440 2.169 359.976 o
3 -4 10 12.380 14.470 1.856 492.042 o
3 -4 11 65.903 61.038 8.615 22.828 o
3 -4 12 27.170 28.620 2.783 218.685 o
3 -4 13 11.757 12.888 2.156 364.398 o
3 -4 14 29.038 28.579 3.127 173.262 o
3 -3 -13 0.699 -0.957 1.914 462.259 o
3 -3 -12 6.045 5.605 1.544 711.007 o
3 -3 -11 46.730 47.821 3.065 180.342 o
3 -3 -10 32.698 32.787 2.534 263.852 o
3 -3 -9 13.553 13.400 1.690 592.802 o
3 -3 -8 145.583 149.421 5.771 50.861 o
3 -3 -7 26.414 27.594 2.068 396.273 o
3 -3 -6 57.907 55.492 2.853 208.090 o
3 -3 -5 335.335 328.118 10.956 14.114 o
3 -3 -4 245.092 247.974 8.714 22.311 o
3 -3 -3 246.427 225.674 8.058 26.092 o
3 -3 -2 488.591 492.691 16.096 6.539 o
3 -3 -1 59.250 46.444 2.347 307.422 o
3 -3 0 51.819 54.232 2.622 246.474 o
3 -3 1 287.074 294.937 10.406 15.644 o
3 -3 2 249.698 249.774 8.143 25.548 o
3 -3 3 623.793 628.102 19.253 4.570 o
3 -3 4 290.182 296.324 9.519 18.697 o
3 -3 5 431.704 435.998 13.801 8.895 o
3 -3 6 111.039 106.663 4.487 84.138 o
3 -3 7 192.814 199.326 7.016 34.416 o
3 -3 8 175.920 179.395 6.593 38.978 o
3 -3 9 115.881 121.683 7.358 31.288 o
3 -3 10 77.283 78.817 3.974 107.287 o
3 -3 11 11.389 9.026 1.628 639.018 o
3 -3 12 17.233 20.286 2.284 324.659 o
3 -3 13 68.704 77.503 4.312 91.099 o
3 -3 14 11.737 11.726 2.115 378.682 o
3 -3 15 61.608 66.072 4.371 88.680 o
3 -2 -14 62.581 63.952 5.863 49.287 o
3 -2 -13 30.446 26.622 4.008 105.447 o
3 -2 -12 31.830 28.536 4.068 102.369 o
3 -2 -11 96.944 94.607 4.402 87.416 o
3 -2 -10 116.579 111.129 4.775 74.298 o
3 -2 -9 90.930 91.331 4.135 99.068 o
3 -2 -8 87.057 83.675 3.899 111.434 o
3 -2 -7 13.540 11.212 1.431 827.500 o
3 -2 -6 56.517 56.251 2.819 213.163 o
3 -2 -5 249.201 256.518 8.645 22.670 o
3 -2 -4 344.273 349.623 11.294 13.282 o
3 -2 -3 1230.180 1246.870 38.516 1.142 o
3 -2 -2 587.850 608.262 18.570 4.913 o
3 -2 -1 430.482 437.715 11.111 13.722 o
3 -2 0 336.209 350.085 11.146 13.636 o
3 -2 1 334.388 311.214 10.237 16.166 o
3 -2 2 267.053 263.996 8.949 21.154 o
3 -2 3 273.245 267.822 8.421 23.887 o
3 -2 4 227.358 244.112 7.409 30.864 o
3 -2 6 48.463 47.740 3.470 140.711 o
3 -2 7 81.570 76.812 3.508 137.662 o
3 -2 8 201.480 195.506 9.751 17.816 o
3 -2 9 79.299 79.587 3.677 125.275 o
3 -2 10 104.667 105.678 4.674 77.538 o
3 -2 11 224.526 220.761 8.397 24.027 o
3 -2 12 15.477 18.352 2.901 201.234 o
3 -2 13 8.017 9.450 1.840 500.505 o
3 -2 14 59.417 64.186 3.976 107.178 o
3 -2 15 7.093 8.182 1.945 448.038 o
3 -2 16 30.335 32.087 3.339 151.983 o
3 -1 -15 5.139 2.273 2.632 244.500 o
3 -1 -14 19.575 19.263 3.769 119.262 o
3 -1 -13 0.736 0.000 1.974 434.667 o
3 -1 -12 19.694 15.076 3.051 181.989 o
3 -1 -11 139.609 139.690 8.854 21.610 o
3 -1 -10 177.758 179.448 6.730 37.399 o
3 -1 -9 296.144 293.920 10.012 16.899 o
3 -1 -8 308.309 315.988 11.009 13.977 o
3 -1 -7 217.238 208.784 7.347 31.381 o
3 -1 -6 204.716 200.481 6.862 35.975 o
3 -1 -5 552.575 563.752 18.313 5.051 o
3 -1 -4 470.895 491.284 15.224 7.309 o
3 -1 -3 218.769 231.498 7.710 28.502 o
3 -1 -2 753.282 782.042 24.428 2.839 o
3 -1 -1 639.455 623.503 19.140 4.624 o
3 -1 0 397.131 395.327 9.769 17.750 o
3 -1 1 2055.350 2056.040 92.967 0.196 o
3 -1 2 1541.080 1633.240 49.069 0.704 o
3 -1 3 1030.350 1053.500 32.903 1.565 o
3 -1 4 1033.640 1092.930 33.735 1.489 o
3 -1 5 192.976 195.926 7.379 31.109 o
3 -1 6 78.434 72.504 3.169 168.663 o
3 -1 7 176.101 163.320 8.435 23.809 o
3 -1 8 141.383 142.941 5.245 61.582 o
3 -1 9 155.873 152.469 5.816 50.076 o
3 -1 10 150.345 147.329 5.647 53.121 o
3 -1 11 9.982 12.356 1.728 567.216 o
3 -1 12 84.494 85.658 4.292 91.953 o
3 -1 13 5.067 4.547 1.438 818.949 o
3 -1 14 13.394 13.731 2.091 387.437 o
3 -1 15 19.363 18.755 2.486 274.082 o
3 -1 16 12.684 13.372 2.305 318.810 o
3 0 -15 42.254 43.432 5.803 50.309 o
3 0 -14 26.719 27.459 4.487 84.152 o
3 0 -13 4.614 3.829 2.453 281.590 o
3 0 -12 7.261 6.282 2.513 268.341 o
3 0 -11 7.566 8.256 2.453 281.590 o
3 0 -10 49.195 48.398 4.427 86.441 o
3 0 -9 67.135 61.880 3.381 148.200 o
3 0 -8 2.208 2.707 0.923 1986.910 o
3 0 -6 337.740 341.097 10.725 14.729 o
3 0 -5 212.163 205.481 7.234 32.373 o
3 0 -4 535.901 571.947 18.056 5.196 o
3 0 -3 508.212 507.040 16.067 6.563 o
3 0 -2 449.289 432.928 13.953 8.702 o
3 0 -1 404.028 401.081 12.770 10.389 o
3 0 0 670.273 728.111 21.402 3.699 o
3 0 1 370.786 393.567 12.137 11.500 o
3 0 2 1282.520 1304.870 38.748 1.128 o
3 0 3 1151.050 1212.300 36.591 1.265 o
3 0 4 1330.830 1401.120 41.541 0.982 o
3 0 5 654.018 690.672 30.809 1.785 o
3 0 6 223.815 224.627 8.312 24.519 o
3 0 7 161.348 150.691 5.795 50.448 o
3 0 8 371.183 375.978 12.351 11.105 o
3 0 9 46.119 50.904 2.726 227.929 o
3 0 10 121.910 123.820 5.218 62.220 o
3 0 11 20.725 18.501 1.967 437.994 o
3 0 12 40.313 41.100 2.807 214.988 o
3 0 13 60.607 60.750 3.552 134.284 o
3 0 14 40.938 43.973 3.177 167.862 o
3 0 15 17.738 18.608 2.367 302.268 o
3 0 16 25.945 26.362 2.998 188.504 o
3 1 -14 50.067 47.501 5.623 53.571 o
3 1 -13 13.483 12.204 3.231 162.329 o
3 1 -12 19.383 19.922 3.589 131.487 o
3 1 -11 16.186 13.939 3.051 181.989 o
3 1 -10 76.718 79.686 6.042 46.403 o
3 1 -9 78.961 88.959 6.222 43.764 o
3 1 -7 140.944 146.041 5.355 59.078 o
3 1 -6 153.908 149.341 5.125 64.495 o
3 1 -5 256.719 259.019 8.574 23.044 o
3 1 -4 407.790 426.811 13.498 9.299 o
3 1 -3 616.780 655.180 20.187 4.157 o
3 1 -2 205.352 215.128 10.888 14.290 o
3 1 -1 1211.370 1212.760 51.269 0.645 o
3 1 0 1573.210 1670.650 70.772 0.338 o
3 1 1 175.512 155.244 8.076 25.973 o
3 1 2 1025.530 1046.990 45.287 0.826 o
3 1 3 1400.670 1382.800 40.229 1.047 o
3 1 4 691.024 718.734 21.489 3.669 o
3 1 5 441.896 473.896 14.318 8.264 o
3 1 6 282.215 294.924 9.451 18.966 o
3 1 7 483.491 491.423 16.136 6.506 o
3 1 8 579.621 586.070 18.716 4.836 o
3 1 9 499.270 526.731 16.536 6.195 o
3 1 10 348.812 343.082 11.690 12.398 o
3 1 11 111.203 101.507 4.554 81.689 o
3 1 12 33.688 34.221 2.458 280.504 o
3 1 13 158.422 149.447 6.094 45.616 o
3 1 14 60.593 58.263 3.559 133.728 o
3 1 15 55.108 59.705 5.623 53.571 o
3 1 16 15.422 13.460 3.350 150.942 o
3 1 17 4.003 2.991 2.453 281.590 o
3 2 -14 17.086 20.280 4.248 93.901 o
3 2 -13 67.406 68.020 6.341 42.128 o
3 2 -12 39.894 37.988 4.726 75.846 o
3 2 -11 40.427 40.142 4.726 75.846 o
3 2 -10 261.516 267.654 14.059 8.571 o
3 2 -9 139.908 157.218 9.033 20.760 o
3 2 -8 21.861 20.759 3.350 150.942 o
3 2 -7 53.359 60.243 4.666 77.803 o
3 2 -4 37.210 33.203 3.051 181.989 o
3 2 -3 36.430 34.339 2.991 189.341 o
3 2 0 481.667 475.769 15.017 7.512 o
3 2 1 830.029 844.578 25.995 2.507 o
3 2 2 392.919 414.445 13.981 8.667 o
3 2 3 1338.170 1337.260 41.625 0.978 o
3 2 4 1145.670 1223.460 37.035 1.235 o
3 2 5 75.936 62.126 2.819 213.163 o
3 2 6 196.929 203.395 6.735 37.346 o
3 2 7 525.024 527.003 16.534 6.197 o
3 2 8 349.479 363.070 11.664 12.452 o
3 2 9 475.024 467.702 14.882 7.650 o
3 2 10 100.115 96.982 4.131 99.290 o
3 2 11 12.173 12.612 1.581 677.815 o
3 2 12 30.650 27.402 2.210 346.842 o
3 2 13 90.598 90.813 6.940 35.178 o
3 2 14 43.951 51.449 5.265 61.125 o
3 2 15 35.069 34.578 4.846 72.146 o
3 2 16 37.897 37.869 5.085 65.516 o
3 2 17 18.994 15.435 3.709 123.141 o
3 3 -14 9.109 8.495 3.231 162.329 o
3 3 -13 10.059 8.914 3.111 175.057 o
3 3 -12 25.942 23.989 4.068 102.369 o
3 3 -11 70.589 68.439 5.923 48.296 o
3 3 -10 98.294 101.881 7.239 32.331 o
3 3 -9 371.956 361.937 17.828 5.330 o
3 3 -8 4.313 4.248 1.974 434.667 o
3 3 -7 165.130 169.123 8.914 21.321 o
3 3 -6 414.917 384.670 18.426 4.990 o
3 3 -5 351.633 368.637 18.127 5.156 o
3 3 -4 210.805 248.690 12.025 11.716 o
3 3 -3 103.512 104.513 6.042 46.403 o
3 3 -2 2.509 4.427 1.256 1073.360 o
3 3 -1 338.355 359.185 16.212 6.445 o
3 3 0 136.586 134.701 4.441 85.892 o
3 3 1 245.985 247.009 7.762 28.121 o
3 3 2 560.384 573.973 17.321 5.647 o
3 3 3 814.918 794.855 23.983 2.945 o
3 3 4 494.534 488.724 15.160 7.371 o
3 3 5 164.018 165.033 5.736 51.484 o
3 3 6 91.277 87.894 3.248 160.604 o
3 3 7 69.670 70.557 3.047 182.434 o
3 3 8 332.202 335.214 11.064 13.840 o
3 3 9 235.083 234.286 8.029 26.282 o
3 3 10 38.804 41.395 2.368 302.051 o
3 3 11 1.867 2.692 1.914 462.259 o
3 3 12 126.511 121.324 7.658 28.891 o
3 3 13 32.369 29.673 4.008 105.447 o
3 3 14 67.671 71.191 6.102 45.497 o
3 3 15 26.897 28.656 4.427 86.441 o
3 3 16 1.860 2.572 2.513 268.341 o
3 3 17 3.583 5.683 2.872 205.448 o
3 4 -13 34.983 39.185 5.324 59.759 o
3 4 -12 15.817 12.922 3.350 150.942 o
3 4 -11 9.890 6.521 2.752 223.702 o
3 4 -10 21.087 18.725 3.410 145.692 o
3 4 -9 68.519 70.413 5.863 49.287 o
3 4 -7 1.613 1.795 1.735 562.845 o
3 4 -6 69.876 74.421 5.205 62.538 o
3 4 -5 557.585 562.468 25.246 2.658 o
3 4 -4 373.268 380.004 18.187 5.122 o
3 4 -3 302.554 319.163 15.614 6.949 o
3 4 -2 118.650 118.691 6.461 40.582 o
3 4 -1 204.437 203.881 10.050 16.771 o
3 4 0 474.643 519.100 16.709 6.068 o
3 4 1 336.158 334.689 10.785 14.565 o
3 4 2 386.482 401.373 12.581 10.704 o
3 4 3 285.688 293.138 9.358 19.346 o
3 4 4 826.067 809.592 24.931 2.726 o
3 4 5 362.156 356.555 10.917 14.214 o
3 4 6 358.043 373.415 11.586 12.619 o
3 4 7 344.103 349.432 11.048 13.879 o
3 4 8 345.149 343.935 11.194 13.520 o
3 4 9 395.233 397.114 19.024 4.681 o
3 4 10 123.280 131.554 8.136 25.592 o
3 4 11 12.387 14.836 2.991 189.341 o
3 4 12 97.329 94.941 6.999 34.579 o
3 4 13 47.117 49.355 5.025 67.085 o
3 4 14 20.084 21.716 3.829 115.565 o
3 4 15 32.230 31.527 4.666 77.803 o
3 4 16 9.728 7.358 2.991 189.341 o
3 5 -13 20.133 21.178 4.248 93.901 o
3 5 -12 56.482 67.183 6.461 40.582 o
3 5 -11 35.304 41.757 5.145 64.001 o
3 5 -10 31.352 31.946 4.487 84.152 o
3 5 -9 50.116 51.509 5.145 64.001 o
3 5 -8 6.047 6.641 2.273 327.807 o
3 5 -7 25.417 22.913 3.470 140.711 o
3 5 -6 89.406 86.087 6.461 40.582 o
3 5 -5 27.858 28.776 3.290 156.480 o
3 5 -4 308.376 316.411 15.016 7.513 o
3 5 -3 245.632 243.605 11.726 12.322 o
3 5 -2 210.430 206.155 9.931 17.178 o
3 5 -1 184.194 193.771 9.692 18.037 o
3 5 0 303.901 304.876 10.021 16.869 o
3 5 1 643.954 642.951 19.879 4.287 o
3 5 2 388.765 399.069 12.787 10.360 o
3 5 3 207.228 201.965 6.913 35.451 o
3 5 4 200.176 200.671 6.846 36.147 o
3 5 5 296.534 296.273 9.077 20.560 o
3 5 6 204.269 209.146 10.350 15.816 o
3 5 7 456.927 447.426 20.879 3.886 o
3 5 8 392.236 385.687 18.486 4.958 o
3 5 9 335.798 337.768 16.691 6.081 o
3 5 10 344.452 345.426 17.110 5.787 o
3 5 11 211.386 214.171 11.367 13.112 o
3 5 12 76.153 74.182 6.162 44.618 o
3 5 13 155.959 148.304 9.512 18.724 o
3 5 14 74.623 75.079 6.521 39.841 o
3 5 15 25.145 25.306 4.367 88.826 o
3 5 16 10.199 9.572 3.231 162.329 o
3 6 -12 30.738 32.185 5.025 67.085 o
3 6 -11 98.014 104.932 8.016 26.362 o
3 6 -10 78.901 84.113 6.940 35.178 o
3 6 -9 86.385 86.087 6.760 37.071 o
3 6 -8 79.549 77.652 6.042 46.403 o
3 6 -6 1.321 1.376 1.555 700.226 o
3 6 -3 25.817 20.340 2.692 233.754 o
3 6 -2 40.702 41.877 3.470 140.711 o
3 6 0 52.942 55.011 2.929 197.493 o
3 6 1 262.990 266.037 9.361 19.332 o
3 6 2 323.484 319.631 11.068 13.830 o
3 6 3 525.990 545.416 17.159 5.754 o
3 6 4 151.582 144.715 8.375 24.151 o
3 6 5 184.125 181.028 10.230 16.188 o
3 6 6 294.932 306.719 14.238 8.357 o
3 6 7 155.249 151.056 8.196 25.220 o
3 6 8 124.552 114.264 7.478 30.295 o
3 6 9 204.726 200.890 10.948 14.135 o
3 6 10 78.692 77.891 5.803 50.309 o
3 6 11 93.067 92.010 6.760 37.071 o
3 6 12 31.514 31.468 4.427 86.441 o
3 6 13 82.980 80.105 6.880 35.792 o
3 6 14 106.948 116.239 8.435 23.809 o
3 6 15 63.462 67.063 6.581 39.120 o
3 6 16 29.101 28.117 4.906 70.397 o
3 7 -11 22.407 22.973 4.367 88.826 o
3 7 -10 68.558 68.738 6.461 40.582 o
3 7 -9 86.581 93.326 7.239 32.331 o
3 7 -8 64.609 64.850 5.683 52.449 o
3 7 -7 103.752 105.829 7.239 32.331 o
3 7 -6 62.746 58.389 5.085 65.516 o
3 7 -5 309.004 303.309 15.913 6.690 o
3 7 -4 260.896 257.484 13.401 9.434 o
3 7 -3 199.863 200.052 10.709 14.773 o
3 7 -2 62.495 63.892 4.427 86.441 o
3 7 -1 52.263 52.477 2.741 225.509 o
3 7 0 58.583 66.546 3.056 181.375 o
3 7 1 367.402 350.409 11.557 12.685 o
3 7 4 197.169 187.250 9.991 16.973 o
3 7 5 102.526 101.462 6.162 44.618 o
3 7 6 14.371 12.802 2.692 233.754 o
3 7 7 159.353 152.971 9.273 19.703 o
3 7 8 35.511 37.091 4.188 96.603 o
3 7 9 53.564 57.850 5.205 62.538 o
3 7 10 69.842 72.328 5.923 48.296 o
3 7 11 34.046 35.954 4.547 81.952 o
3 7 12 26.744 21.417 3.769 119.262 o
3 7 13 39.673 39.245 5.085 65.516 o
3 7 14 92.736 95.719 7.598 29.348 o
3 7 15 44.307 47.501 5.803 50.309 o
3 8 -10 32.800 31.348 4.846 72.146 o
3 8 -9 74.426 79.387 6.700 37.735 o
3 8 -8 53.626 50.432 5.205 62.538 o
3 8 -7 46.550 46.483 4.786 73.961 o
3 8 -6 79.126 82.976 5.982 47.335 o
3 8 -5 121.736 121.025 7.837 27.583 o
3 8 -4 180.161 178.396 10.050 16.771 o
3 8 -3 202.435 201.548 10.649 14.940 o
3 8 -2 106.552 107.325 4.820 72.913 o
3 8 -1 106.164 100.770 4.578 80.835 o
3 8 0 163.946 164.011 6.373 41.718 o
3 8 1 284.672 273.935 14.956 7.574 o
3 8 2 149.054 148.903 9.093 20.488 o
3 8 3 106.571 109.837 7.059 33.995 o
3 8 4 39.215 39.005 3.769 119.262 o
3 8 5 76.266 68.020 5.205 62.538 o
3 8 6 246.392 241.511 12.922 10.146 o
3 8 7 154.932 155.543 9.512 18.724 o
3 8 8 82.930 78.549 6.282 42.934 o
3 8 9 107.903 112.709 7.777 28.009 o
3 8 10 138.756 132.451 8.854 21.610 o
3 8 11 46.843 45.526 5.384 58.439 o
3 8 12 12.241 14.836 3.410 145.692 o
3 8 13 34.403 33.980 5.085 65.516 o
3 8 14 33.018 34.339 5.205 62.538 o
3 9 -8 37.316 38.048 4.965 68.711 o
3 9 -7 12.200 12.025 2.991 189.341 o
3 9 -6 50.610 48.936 4.846 72.146 o
3 9 -5 53.459 53.543 4.846 72.146 o
3 9 -4 69.356 68.678 5.324 59.759 o
3 9 -3 62.135 63.901 3.635 128.210 o
3 9 -2 60.389 60.146 3.894 111.742 o
3 9 -1 30.205 28.776 3.589 131.487 o
3 9 0 173.790 162.423 9.751 17.816 o
3 9 1 227.442 213.633 12.144 11.487 o
3 9 2 71.431 76.755 5.923 48.296 o
3 9 3 101.497 96.497 6.700 37.735 o
3 9 4 111.010 102.778 7.059 33.995 o
3 9 5 53.392 51.688 4.786 73.961 o
3 9 6 96.581 96.198 6.820 36.423 o
3 9 7 77.377 80.523 6.282 42.934 o
3 9 8 80.061 78.490 6.222 43.764 o
3 9 9 78.132 84.292 6.760 37.071 o
3 9 10 58.326 61.140 5.982 47.335 o
3 9 11 25.129 19.802 3.948 108.667 o
3 9 12 16.337 13.819 3.589 131.487 o
3 9 13 48.770 53.291 4.262 93.243 o
3 10 -6 22.897 20.340 3.709 123.141 o
3 10 -5 13.294 13.580 3.231 162.329 o
3 10 -4 16.132 14.118 2.931 197.148 o
3 10 -3 19.073 15.973 3.111 175.057 o
3 10 -2 6.872 5.324 2.213 345.765 o
3 10 -1 20.707 15.614 3.051 181.989 o
3 10 0 97.796 94.642 6.999 34.579 o
3 10 1 131.301 130.896 8.854 21.610 o
3 10 2 68.494 73.225 6.042 46.403 o
3 10 3 57.483 55.038 5.085 65.516 o
3 10 4 54.622 49.475 5.025 67.085 o
3 10 5 99.528 108.880 7.658 28.891 o
3 10 6 62.877 62.098 5.743 51.362 o
3 10 7 53.133 54.081 5.623 53.571 o
3 10 8 62.062 66.644 6.042 46.403 o
3 10 9 83.951 91.352 7.239 32.331 o
3 10 10 48.038 49.295 5.623 53.571 o
3 10 11 63.196 67.063 6.521 39.841 o
3 11 -4 54.953 62.277 5.863 49.287 o
3 11 -3 66.992 71.191 6.222 43.764 o
3 11 -2 56.928 63.414 5.683 52.449 o
3 11 -1 47.859 51.269 5.205 62.538 o
3 11 0 52.627 54.021 5.324 59.759 o
3 11 1 44.965 46.842 5.145 64.001 o
3 11 2 25.784 24.588 3.889 112.036 o
3 11 3 28.960 26.024 4.068 102.369 o
3 11 4 12.162 11.008 2.931 197.148 o
3 11 5 19.057 15.495 3.470 140.711 o
3 11 6 42.962 42.954 5.324 59.759 o
3 11 7 21.968 18.785 3.889 112.036 o
3 11 8 16.934 14.956 3.649 127.211 o
3 11 9 30.320 30.211 4.965 68.711 o
3 12 1 39.834 42.535 5.205 62.538 o
3 12 2 54.378 57.312 5.803 50.309 o
3 12 3 38.887 38.347 5.025 67.085 o
3 12 4 40.051 37.091 5.025 67.085 o
3 12 5 40.885 39.663 5.265 61.125 o
4 -9 -6 25.768 27.041 4.487 84.152 o
4 -9 -5 52.618 50.671 5.863 49.287 o
4 -9 -4 52.682 54.380 5.683 52.449 o
4 -9 -3 59.731 56.713 5.982 47.335 o
4 -9 -2 68.246 76.216 6.760 37.071 o
4 -9 -1 101.623 102.567 5.326 59.733 o
4 -9 0 47.898 46.116 3.589 131.523 o
4 -9 1 36.694 37.033 3.335 152.349 o
4 -9 2 40.717 38.514 3.466 141.047 o
4 -9 3 52.380 48.817 5.025 67.085 o
4 -9 4 60.400 58.269 5.743 51.362 o
4 -9 5 90.785 94.642 7.478 30.295 o
4 -8 -8 31.424 35.476 4.965 68.711 o
4 -8 -7 26.258 27.100 4.367 88.826 o
4 -8 -5 69.868 70.413 6.042 46.403 o
4 -8 -4 112.487 123.298 8.196 25.220 o
4 -8 -3 53.391 56.019 3.602 130.585 o
4 -8 -2 106.142 110.170 5.195 62.774 o
4 -8 -1 96.226 92.660 4.681 77.306 o
4 -8 0 34.363 32.195 2.853 208.088 o
4 -8 1 54.742 52.016 3.570 132.936 o
4 -8 2 33.936 37.169 3.092 177.226 o
4 -8 3 15.076 15.674 3.231 162.329 o
4 -8 4 68.964 69.755 5.743 51.362 o
4 -8 5 61.858 58.149 5.504 55.925 o
4 -8 6 58.859 63.833 5.982 47.335 o
4 -8 7 26.473 26.622 4.248 93.901 o
4 -8 8 48.490 53.184 5.982 47.335 o
4 -7 -10 28.266 36.433 4.786 73.961 o
4 -7 -9 35.622 35.356 4.606 79.837 o
4 -7 -8 53.278 56.355 5.623 53.571 o
4 -7 -7 27.037 31.049 4.307 91.310 o
4 -7 -6 10.478 12.025 2.872 205.448 o
4 -7 -5 9.279 8.663 1.710 579.552 o
4 -7 -4 22.780 21.754 2.383 298.311 o
4 -7 -3 40.207 37.920 2.853 208.090 o
4 -7 -2 89.494 88.362 4.397 87.625 o
4 -7 -1 132.424 129.961 5.687 52.387 o
4 -7 0 79.929 85.511 4.314 91.021 o
4 -7 1 32.911 31.835 2.771 220.703 o
4 -7 2 157.594 147.210 6.342 42.126 o
4 -7 3 95.753 96.437 6.820 36.423 o
4 -7 4 85.078 88.899 6.461 40.582 o
4 -7 5 71.792 70.054 5.863 49.287 o
4 -7 6 55.937 59.346 5.384 58.439 o
4 -7 7 32.421 31.886 4.367 88.826 o
4 -7 8 46.353 45.167 5.265 61.125 o
4 -7 9 59.477 62.696 6.042 46.403 o
4 -7 10 75.602 81.720 6.940 35.178 o
4 -6 -11 17.159 14.418 3.350 150.942 o
4 -6 -10 54.982 60.183 5.564 54.729 o
4 -6 -9 66.249 72.028 5.923 48.296 o
4 -6 -8 37.621 37.541 3.530 135.928 o
4 -6 -7 64.800 70.459 4.846 72.146 o
4 -6 -6 37.912 34.156 2.746 224.710 o
4 -6 -5 4.956 5.852 1.436 821.078 o
4 -6 -4 94.438 101.686 4.882 71.066 o
4 -6 -3 14.811 17.124 2.009 419.732 o
4 -6 -2 7.533 8.079 1.521 732.176 o
4 -6 -1 69.262 68.379 3.657 126.641 o
4 -6 0 59.952 59.033 3.342 151.691 o
4 -6 1 20.510 21.674 2.241 337.386 o
4 -6 2 42.943 41.873 2.919 198.846 o
4 -6 3 152.471 154.466 8.615 22.828 o
4 -6 4 128.533 133.049 7.957 26.760 o
4 -6 5 39.277 40.023 4.128 99.423 o
4 -6 6 3.071 3.649 2.034 409.475 o
4 -6 7 6.215 8.555 2.572 256.005 o
4 -6 8 14.273 13.341 3.051 181.989 o
4 -6 9 29.326 30.989 4.606 79.837 o
4 -6 10 35.548 35.895 4.846 72.146 o
4 -6 11 4.606 4.666 2.632 244.500 o
4 -5 -10 57.676 60.422 5.384 58.439 o
4 -5 -9 88.818 97.955 4.864 71.601 o
4 -5 -8 158.688 155.570 6.471 40.463 o
4 -5 -7 157.790 152.966 6.239 43.516 o
4 -5 -6 115.142 113.668 5.096 65.229 o
4 -5 -5 203.480 195.233 7.382 31.091 o
4 -5 -4 184.517 175.786 6.767 36.998 o
4 -5 -3 262.946 265.682 9.412 19.123 o
4 -5 -2 108.794 105.451 4.526 82.689 o
4 -5 -1 68.151 68.772 3.553 134.170 o
4 -5 0 53.081 52.756 3.046 182.621 o
4 -5 1 65.623 63.906 3.363 149.807 o
4 -5 2 30.286 26.706 2.327 312.961 o
4 -5 3 100.598 97.095 6.162 44.618 o
4 -5 4 153.397 149.501 8.256 24.856 o
4 -5 5 150.252 145.373 8.555 23.148 o
4 -5 6 176.029 171.696 9.811 17.599 o
4 -5 7 77.840 75.977 5.982 47.335 o
4 -5 8 68.897 75.977 5.923 48.296 o
4 -5 9 141.781 138.972 8.794 21.905 o
4 -5 10 83.025 82.378 6.521 39.841 o
4 -5 11 39.187 48.458 5.205 62.538 o
4 -5 12 1.941 2.154 2.333 311.212 o
4 -5 13 6.244 7.119 2.991 189.341 o
4 -4 -11 5.410 6.162 2.513 268.341 o
4 -4 -10 48.568 55.908 3.637 128.054 o
4 -4 -9 127.200 129.234 5.602 53.982 o
4 -4 -8 30.739 30.062 2.553 259.974 o
4 -4 -7 122.623 126.934 5.517 55.651 o
4 -4 -6 18.612 19.434 2.068 396.273 o
4 -4 -5 38.416 42.553 2.619 247.052 o
4 -4 -4 87.244 90.246 4.103 100.649 o
4 -4 -3 262.945 253.089 8.925 21.266 o
4 -4 -2 244.513 236.626 8.523 23.320 o
4 -4 -1 152.524 141.079 5.731 51.582 o
4 -4 0 102.001 99.768 4.377 88.432 o
4 -4 1 144.604 145.780 5.710 51.954 o
4 -4 2 36.983 41.706 2.644 242.403 o
4 -4 3 198.469 192.754 10.828 14.449 o
4 -4 4 182.215 168.286 9.392 19.204 o
4 -4 5 78.364 80.165 5.324 59.759 o
4 -4 6 59.729 58.508 4.666 77.803 o
4 -4 7 88.276 88.540 6.102 45.497 o
4 -4 8 85.012 85.668 6.162 44.618 o
4 -4 9 121.371 127.785 8.196 25.220 o
4 -4 10 124.183 125.093 8.196 25.220 o
4 -4 11 101.478 110.256 7.717 28.445 o
4 -4 12 106.581 111.752 8.076 25.973 o
4 -4 13 55.614 60.782 6.222 43.764 o
4 -4 14 31.340 33.741 5.324 59.759 o
4 -3 -13 35.578 37.869 5.265 61.125 o
4 -3 -12 22.878 20.819 3.769 119.262 o
4 -3 -11 19.061 22.015 3.709 123.141 o
4 -3 -10 30.301 30.092 4.068 102.369 o
4 -3 -9 88.851 86.144 4.312 91.099 o
4 -3 -8 95.657 101.930 4.578 80.835 o
4 -3 -7 76.059 71.077 3.711 123.011 o
4 -3 -6 21.161 22.140 2.052 402.267 o
4 -3 -5 44.129 45.335 2.692 233.856 o
4 -3 -4 88.454 88.619 4.036 104.016 o
4 -3 -3 131.363 130.821 5.263 61.151 o
4 -3 -2 235.287 229.427 7.760 28.131 o
4 -3 -1 48.228 48.811 2.703 231.808 o
4 -3 0 47.359 50.742 2.769 221.012 o
4 -3 1 159.235 161.785 5.942 47.974 o
4 -3 2 88.944 95.659 5.683 52.449 o
4 -3 4 172.664 179.772 9.512 18.724 o
4 -3 5 108.276 109.957 6.521 39.841 o
4 -3 6 15.545 13.999 2.572 256.005 o
4 -3 7 7.621 5.025 1.855 492.563 o
4 -3 8 74.339 75.259 5.444 57.161 o
4 -3 9 103.931 99.308 6.700 37.735 o
4 -3 10 156.414 152.193 8.974 21.038 o
4 -3 11 80.869 79.865 6.102 45.497 o
4 -3 12 85.582 90.275 6.700 37.735 o
4 -3 13 68.253 72.507 6.282 42.934 o
4 -3 14 96.524 106.667 7.897 27.167 o
4 -2 -13 64.905 67.542 6.341 42.128 o
4 -2 -12 56.377 50.851 5.564 54.729 o
4 -2 -11 55.624 51.449 5.145 64.001 o
4 -2 -10 69.164 61.140 5.623 53.571 o
4 -2 -9 135.870 142.801 8.675 22.514 o
4 -2 -8 264.528 259.536 9.686 18.057 o
4 -2 -7 38.982 36.228 2.571 256.389 o
4 -2 -6 7.534 7.788 1.336 949.256 o
4 -2 -5 110.128 111.050 4.620 79.358 o
4 -2 -4 157.735 154.675 5.869 49.189 o
4 -2 -3 96.382 95.820 4.172 97.335 o
4 -2 -2 128.355 126.910 4.960 68.873 o
4 -2 -1 73.230 71.730 2.389 296.954 o
4 -2 0 10.952 9.628 1.261 1066.020 o
4 -2 1 156.498 146.689 7.837 27.583 o
4 -2 2 137.952 134.668 4.397 87.627 o
4 -2 3 19.697 26.065 1.675 603.766 o
4 -2 4 89.992 85.989 3.505 137.877 o
4 -2 5 181.102 173.475 5.791 50.523 o
4 -2 6 24.324 26.248 1.940 450.329 o
4 -2 7 11.965 12.771 1.538 716.257 o
4 -2 8 1.238 1.670 0.919 2005.170 o
4 -2 9 59.944 55.761 3.123 173.737 o
4 -2 10 94.204 95.337 4.374 88.531 o
4 -2 11 76.342 74.589 7.119 33.426 o
4 -2 12 28.032 25.622 2.656 240.154 o
4 -2 13 45.947 49.663 3.508 137.662 o
4 -2 14 70.372 79.675 4.586 80.547 o
4 -2 15 101.688 114.183 5.753 51.184 o
4 -1 -13 14.489 16.093 3.649 127.211 o
4 -1 -12 43.517 37.031 4.846 72.146 o
4 -1 -11 70.033 68.080 5.982 47.335 o
4 -1 -10 81.468 80.284 6.401 41.344 o
4 -1 -9 386.419 380.064 19.144 4.623 o
4 -1 -8 733.802 717.892 32.604 1.594 o
4 -1 -7 363.083 367.441 18.246 5.088 o
4 -1 -6 155.715 149.028 5.851 49.488 o
4 -1 -5 600.893 614.368 19.044 4.671 o
4 -1 -4 503.969 511.287 16.300 6.376 o
4 -1 -3 623.936 637.619 20.129 4.181 o
4 -1 -2 408.783 405.287 12.959 10.087 o
4 -1 -1 21.680 19.648 1.123 1343.460 o
4 -1 0 36.600 32.861 1.660 614.923 o
4 -1 1 248.872 249.857 8.483 23.544 o
4 -1 2 79.620 83.180 3.500 138.316 o
4 -1 3 72.859 68.925 2.859 207.292 o
4 -1 4 125.025 123.564 4.917 70.066 o
4 -1 5 540.888 519.296 16.558 6.179 o
4 -1 7 49.459 53.451 2.892 202.567 o
4 -1 8 180.685 178.110 6.747 37.214 o
4 -1 9 50.080 50.671 4.128 99.423 o
4 -1 10 39.052 44.672 2.813 214.114 o
4 -1 11 167.004 167.298 6.578 39.153 o
4 -1 12 4.102 4.073 1.394 871.733 o
4 -1 13 1.076 0.598 1.269 1051.900 o
4 -1 14 39.388 36.024 3.151 170.593 o
4 -1 15 32.580 36.157 3.363 149.807 o
4 0 -13 11.634 11.068 3.290 156.480 o
4 0 -12 5.528 5.743 2.632 244.500 o
4 0 -11 46.868 43.552 4.906 70.397 o
4 0 -10 33.802 31.228 4.128 99.423 o
4 0 -9 25.774 25.904 3.829 115.565 o
4 0 -8 155.072 159.372 9.512 18.724 o
4 0 -7 88.189 86.267 5.803 50.309 o
4 0 -6 3.039 2.393 1.675 603.766 o
4 0 -5 438.168 453.355 15.130 7.401 o
4 0 -4 379.653 378.766 12.311 11.177 o
4 0 -3 602.015 619.902 19.722 4.356 o
4 0 -2 698.823 695.099 22.181 3.443 o
4 0 -1 504.130 477.218 22.314 3.402 o
4 0 0 91.044 82.599 3.458 141.711 o
4 0 1 468.512 486.557 15.605 6.957 o
4 0 2 361.323 362.696 11.797 12.174 o
4 0 3 197.586 201.478 6.951 35.064 o
4 0 4 120.011 125.458 4.417 86.842 o
4 0 5 234.860 248.242 8.755 22.100 o
4 0 6 69.476 64.492 3.088 177.652 o
4 0 8 46.364 41.597 2.622 246.474 o
4 0 9 233.031 240.994 8.777 21.991 o
4 0 10 96.448 99.199 4.436 86.080 o
4 0 11 76.925 82.123 4.165 97.644 o
4 0 12 23.300 22.761 2.662 239.037 o
4 0 13 9.906 10.509 1.856 492.042 o
4 0 14 50.922 54.521 3.631 128.471 o
4 0 15 54.879 61.449 4.427 86.441 o
4 0 16 22.439 25.964 4.547 81.952 o
4 1 -13 16.457 14.896 3.649 127.211 o
4 1 -12 2.776 1.974 2.393 295.845 o
4 1 -11 8.996 9.452 2.931 197.148 o
4 1 -10 39.559 43.014 4.726 75.846 o
4 1 -9 56.718 58.269 5.265 61.125 o
4 1 -8 185.362 180.011 10.469 15.456 o
4 1 -7 43.221 49.894 4.606 79.837 o
4 1 -6 297.232 287.815 13.460 9.350 o
4 1 -5 261.039 256.347 13.042 9.960 o
4 1 -4 426.591 417.514 19.562 4.427 o
4 1 -3 364.796 372.646 17.229 5.707 o
4 1 -2 327.482 354.339 16.033 6.590 o
4 1 -1 298.865 311.385 14.059 8.571 o
4 1 0 279.570 277.348 8.921 21.287 o
4 1 1 248.501 254.155 9.028 20.786 o
4 1 2 441.967 442.311 13.853 8.828 o
4 1 3 139.207 143.997 7.179 32.872 o
4 1 4 129.891 137.357 7.059 33.995 o
4 1 5 95.747 98.610 4.018 104.933 o
4 1 6 83.433 80.809 3.423 144.557 o
4 1 7 0.618 0.894 0.848 2355.770 o
4 1 8 56.649 51.665 2.777 219.743 o
4 1 9 132.298 128.723 5.260 61.222 o
4 1 10 191.528 194.898 7.309 31.711 o
4 1 11 110.824 109.347 4.898 70.607 o
4 1 12 27.439 29.110 2.512 268.516 o
4 1 13 39.130 38.603 2.896 202.006 o
4 1 14 83.069 82.831 4.936 69.547 o
4 1 15 61.437 64.550 6.042 46.403 o
4 1 16 51.858 59.047 6.162 44.618 o
4 2 -13 8.299 8.794 3.290 156.480 o
4 2 -12 35.241 36.971 5.085 65.516 o
4 2 -11 61.084 49.953 5.504 55.925 o
4 2 -10 60.128 55.637 5.384 58.439 o
4 2 -9 56.898 56.355 5.324 59.759 o
4 2 -8 131.325 133.169 8.495 23.475 o
4 2 -7 192.935 183.780 10.649 14.940 o
4 2 -6 64.283 59.286 4.726 75.846 o
4 2 -4 626.306 602.012 27.878 2.180 o
4 2 -3 411.601 411.771 18.845 4.771 o
4 2 -2 182.514 181.507 9.333 19.451 o
4 2 -1 77.732 68.738 4.606 79.837 o
4 2 0 281.033 295.483 9.305 19.565 o
4 2 1 110.304 107.586 4.524 82.776 o
4 2 2 616.166 612.576 19.692 4.369 o
4 2 3 344.444 341.287 11.274 13.330 o
4 2 4 99.550 99.531 4.124 99.596 o
4 2 5 125.705 138.365 5.390 58.304 o
4 2 6 191.811 197.854 7.208 32.607 o
4 2 7 60.820 65.148 2.981 190.619 o
4 2 8 67.575 71.620 3.441 143.077 o
4 2 9 70.811 69.433 3.372 148.980 o
4 2 10 199.111 188.963 7.003 34.539 o
4 2 11 51.266 54.313 3.104 175.845 o
4 2 12 17.055 17.947 1.998 424.518 o
4 2 13 39.487 41.339 4.606 79.837 o
4 2 14 50.414 52.705 5.564 54.729 o
4 2 15 59.940 58.568 5.863 49.287 o
4 2 16 50.434 49.774 5.863 49.287 o
4 3 -13 11.762 8.495 3.290 156.480 o
4 3 -12 7.443 5.923 2.931 197.148 o
4 3 -11 63.802 65.089 6.222 43.764 o
4 3 -10 141.973 139.989 9.452 18.961 o
4 3 -9 94.269 90.514 6.820 36.423 o
4 3 -8 156.698 140.288 9.093 20.488 o
4 3 -7 110.610 102.778 6.820 36.423 o
4 3 -6 377.168 368.757 17.828 5.330 o
4 3 -5 108.727 106.009 6.700 37.735 o
4 3 -4 141.453 134.844 8.136 25.592 o
4 3 -3 659.766 663.810 30.032 1.878 o
4 3 -2 501.885 510.900 22.853 3.244 o
4 3 -1 185.389 182.883 8.914 21.321 o
4 3 0 214.550 216.019 7.614 29.222 o
4 3 1 211.392 217.238 7.043 34.151 o
4 3 2 349.677 337.870 10.871 14.336 o
4 3 3 487.033 482.527 15.185 7.347 o
4 3 4 135.398 132.576 4.944 69.295 o
4 3 5 10.028 9.274 1.207 1162.480 o
4 3 6 13.800 12.543 1.405 857.804 o
4 3 7 61.656 52.983 2.717 229.537 o
4 3 8 23.113 23.163 1.967 438.070 o
4 3 9 46.196 49.156 2.932 197.102 o
4 3 10 34.093 36.668 2.528 265.116 o
4 3 11 17.296 16.990 3.051 181.989 o
4 3 12 1.079 1.496 1.914 462.259 o
4 3 13 28.047 29.972 4.248 93.901 o
4 3 14 23.854 22.614 3.889 112.036 o
4 3 15 59.350 64.251 6.282 42.934 o
4 3 16 40.699 43.193 5.623 53.571 o
4 4 -12 9.163 6.581 3.171 168.513 o
4 4 -11 6.073 6.341 2.991 189.341 o
4 4 -10 25.300 25.784 4.248 93.901 o
4 4 -9 32.145 31.886 4.307 91.310 o
4 4 -8 18.243 20.759 3.589 131.487 o
4 4 -7 68.075 64.491 5.623 53.571 o
4 4 -6 61.854 58.389 4.846 72.146 o
4 4 -5 139.496 141.066 8.076 25.973 o
4 4 -4 346.121 328.555 16.571 6.169 o
4 4 -3 555.921 532.855 24.648 2.789 o
4 4 -2 434.758 438.991 19.742 4.347 o
4 4 -1 429.314 416.198 18.964 4.710 o
4 4 0 281.990 300.683 10.004 16.928 o
4 4 1 389.130 386.309 12.436 10.954 o
4 4 2 604.830 590.901 18.738 4.825 o
4 4 3 453.667 454.739 14.612 7.935 o
4 4 4 421.968 434.575 13.614 9.140 o
4 4 5 215.514 217.187 7.517 29.982 o
4 4 6 102.620 105.174 4.179 97.002 o
4 4 7 134.722 138.868 5.237 61.765 o
4 4 8 169.597 176.350 6.873 35.861 o
4 4 9 113.140 111.572 7.478 30.295 o
4 4 10 36.089 38.407 4.487 84.152 o
4 4 11 32.541 40.860 4.666 77.803 o
4 4 12 17.633 15.614 3.290 156.480 o
4 4 13 9.030 9.931 2.931 197.148 o
4 4 14 9.544 7.837 2.872 205.448 o
4 4 15 30.926 31.527 4.786 73.961 o
4 4 16 18.692 22.554 4.307 91.310 o
4 5 -11 26.776 26.263 4.666 77.803 o
4 5 -10 7.296 9.751 3.051 181.989 o
4 5 -9 43.110 49.355 5.384 58.439 o
4 5 -8 37.824 42.296 4.726 75.846 o
4 5 -7 41.339 43.313 4.666 77.803 o
4 5 -6 47.982 51.509 4.786 73.961 o
4 5 -5 67.675 63.892 4.965 68.711 o
4 5 -4 141.210 140.587 7.897 27.167 o
4 5 -3 247.987 235.349 12.324 11.155 o
4 5 -2 438.941 428.761 19.622 4.400 o
4 5 -1 192.765 199.543 7.021 34.371 o
4 5 0 155.230 157.188 5.791 50.513 o
4 5 1 401.988 385.309 12.391 11.034 o
4 5 2 732.729 738.881 22.649 3.302 o
4 5 3 462.054 461.584 15.073 7.456 o
4 5 4 190.183 188.521 6.343 42.109 o
4 5 5 179.065 174.269 5.971 47.520 o
4 5 6 227.126 240.374 12.264 11.264 o
4 5 7 150.521 138.613 8.256 24.856 o
4 5 8 222.465 210.402 11.426 12.975 o
4 5 9 115.724 113.307 7.538 29.816 o
4 5 10 169.504 160.509 9.811 17.599 o
4 5 11 113.787 109.718 7.957 26.760 o
4 5 12 82.741 92.847 7.179 32.872 o
4 5 13 19.049 18.486 3.709 123.141 o
4 5 14 27.123 23.331 4.248 93.901 o
4 5 15 26.226 28.596 4.786 73.961 o
4 6 -11 22.958 25.246 4.487 84.152 o
4 6 -10 42.001 43.373 5.504 55.925 o
4 6 -9 22.280 20.939 3.889 112.036 o
4 6 -8 55.545 61.559 5.743 51.362 o
4 6 -7 23.826 21.716 3.649 127.211 o
4 6 -6 38.154 39.544 4.367 88.826 o
4 6 -5 48.566 53.902 4.666 77.803 o
4 6 -4 54.370 51.210 4.606 79.837 o
4 6 -2 106.294 105.829 6.401 41.344 o
4 6 -1 34.494 33.002 2.303 319.454 o
4 6 0 3.208 2.815 1.036 1579.160 o
4 6 1 88.730 86.754 3.881 112.487 o
4 6 2 388.679 401.963 13.101 9.871 o
4 6 3 142.941 145.658 5.638 53.291 o
4 6 4 446.626 442.102 21.477 3.673 o
4 6 5 136.476 130.896 7.717 28.445 o
4 6 6 97.763 93.087 6.162 44.618 o
4 6 7 287.374 270.884 14.178 8.427 o
4 6 8 268.156 267.833 13.879 8.794 o
4 6 9 54.844 55.876 5.025 67.085 o
4 6 10 84.418 86.386 6.521 39.841 o
4 6 11 71.437 72.926 6.162 44.618 o
4 6 12 81.043 77.233 6.760 37.071 o
4 6 13 10.781 9.632 2.991 189.341 o
4 6 14 42.767 45.048 5.623 53.571 o
4 6 15 75.170 78.848 7.478 30.295 o
4 7 -10 16.300 13.281 3.589 131.487 o
4 7 -9 16.773 15.495 3.589 131.487 o
4 7 -8 14.418 13.520 3.290 156.480 o
4 7 -7 8.161 9.392 2.752 223.702 o
4 7 -6 31.396 32.245 4.367 88.826 o
4 7 -5 51.335 47.919 4.666 77.803 o
4 7 -4 152.465 154.227 9.273 19.703 o
4 7 -3 215.493 206.753 11.247 13.393 o
4 7 -2 130.903 138.787 5.707 52.023 o
4 7 -1 141.362 139.277 5.657 52.944 o
4 7 0 235.148 232.453 8.195 25.227 o
4 7 1 260.443 257.502 8.822 21.769 o
4 7 2 157.366 150.338 8.914 21.321 o
4 7 3 124.732 116.358 6.999 34.579 o
4 7 4 178.052 174.747 9.153 20.221 o
4 7 6 5.227 6.760 2.094 386.410 o
4 7 7 8.440 10.350 2.572 256.005 o
4 7 8 52.880 47.740 5.025 67.085 o
4 7 9 15.311 15.794 3.290 156.480 o
4 7 10 23.615 23.690 4.008 105.447 o
4 7 11 31.239 31.228 4.487 84.152 o
4 7 12 20.556 19.144 3.889 112.036 o
4 7 13 32.255 25.844 4.427 86.441 o
4 7 14 59.776 66.465 6.581 39.120 o
4 8 -8 73.160 69.276 6.521 39.841 o
4 8 -7 22.054 23.451 3.948 108.667 o
4 8 -6 10.067 12.144 2.991 189.341 o
4 8 -5 125.424 134.006 8.615 22.828 o
4 8 -4 76.489 82.258 5.982 47.335 o
4 8 -3 65.002 67.123 5.324 59.759 o
4 8 -2 183.000 179.258 7.188 32.789 o
4 8 -1 119.565 126.958 5.402 58.047 o
4 8 0 65.507 73.165 5.623 53.571 o
4 8 1 370.197 366.484 18.426 4.990 o
4 8 2 305.869 321.376 16.392 6.305 o
4 8 3 189.853 188.447 10.649 14.940 o
4 8 4 145.704 145.792 8.615 22.828 o
4 8 5 223.384 224.102 11.785 12.197 o
4 8 6 173.304 166.970 9.632 18.261 o
4 8 7 149.340 142.382 9.033 20.760 o
4 8 8 101.928 92.488 7.179 32.872 o
4 8 9 86.881 85.609 6.820 36.423 o
4 8 10 62.490 60.303 5.743 51.362 o
4 8 11 32.479 30.151 4.846 72.146 o
4 8 12 11.414 11.666 3.470 140.711 o
4 8 13 6.311 4.427 2.812 214.284 o
4 9 -7 41.572 46.783 5.444 57.161 o
4 9 -6 8.151 9.751 2.991 189.341 o
4 9 -5 29.860 26.682 4.307 91.310 o
4 9 -4 62.245 62.157 5.623 53.571 o
4 9 -3 29.690 28.234 2.783 218.685 o
4 9 -2 15.304 15.195 3.111 175.057 o
4 9 -1 42.661 39.663 4.427 86.441 o
4 9 0 64.843 68.559 5.444 57.161 o
4 9 1 102.652 99.009 6.940 35.178 o
4 9 2 91.213 91.890 6.880 35.792 o
4 9 3 140.580 141.185 9.033 20.760 o
4 9 4 129.579 127.426 8.136 25.592 o
4 9 5 65.310 67.542 5.743 51.362 o
4 9 6 93.540 98.052 7.179 32.872 o
4 9 7 113.361 112.290 8.016 26.362 o
4 9 8 77.223 84.831 6.820 36.423 o
4 9 9 77.449 85.250 7.119 33.426 o
4 9 10 68.413 72.208 6.581 39.120 o
4 9 11 30.490 34.100 4.965 68.711 o
4 9 12 21.049 21.297 4.367 88.826 o
4 10 -5 26.032 27.340 4.188 96.603 o
4 10 -4 31.666 32.604 4.367 88.826 o
4 10 -3 19.284 18.845 3.649 127.211 o
4 10 -2 6.946 5.564 2.393 295.845 o
4 10 0 15.688 13.401 3.051 181.989 o
4 10 1 30.161 25.425 4.128 99.423 o
4 10 2 25.387 26.502 4.068 102.369 o
4 10 3 54.209 53.782 5.384 58.439 o
4 10 4 97.743 102.718 7.239 32.331 o
4 10 5 74.439 71.131 5.982 47.335 o
4 10 6 84.465 85.549 6.940 35.178 o
4 10 7 70.387 77.592 6.760 37.071 o
4 10 8 40.138 41.458 5.265 61.125 o
4 10 9 68.996 74.302 6.940 35.178 o
4 10 10 64.437 67.422 6.820 36.423 o
4 11 -2 64.120 68.798 6.401 41.344 o
4 11 -1 47.819 56.773 5.803 50.309 o
4 11 0 43.635 46.483 5.324 59.759 o
4 11 1 31.992 28.835 4.427 86.441 o
4 11 2 10.829 9.392 2.991 189.341 o
4 11 3 8.862 11.247 3.051 181.989 o
4 11 4 7.712 7.837 2.812 214.284 o
4 11 5 34.124 35.476 4.846 72.146 o
4 11 6 14.453 12.444 3.350 150.942 o
4 11 7 13.756 13.939 3.649 127.211 o
4 11 8 29.638 30.092 5.145 64.001 o
5 -8 -4 27.674 26.263 4.188 96.603 o
5 -8 -3 44.213 47.753 3.739 121.162 o
5 -8 -2 28.079 28.411 3.046 182.621 o
5 -8 -1 43.801 46.701 3.637 128.054 o
5 -8 0 26.149 26.810 2.980 190.733 o
5 -8 1 26.812 28.548 3.151 170.593 o
5 -8 2 16.654 18.067 3.589 131.487 o
5 -8 3 6.220 4.248 2.453 281.590 o
5 -8 4 31.965 33.980 4.965 68.711 o
5 -8 5 70.992 72.926 6.581 39.120 o
5 -7 -7 46.217 52.346 5.444 57.161 o
5 -7 -6 19.971 21.357 3.769 119.262 o
5 -7 -5 20.376 21.650 2.580 254.422 o
5 -7 -4 9.839 9.095 1.882 478.255 o
5 -7 -3 39.081 37.085 3.273 158.113 o
5 -7 -2 69.577 72.978 4.272 92.832 o
5 -7 -1 49.695 50.035 3.573 132.713 o
5 -7 0 45.272 47.875 3.532 135.797 o
5 -7 1 59.181 60.348 3.934 109.458 o
5 -7 2 67.961 72.986 6.162 44.618 o
5 -7 3 59.799 63.653 5.803 50.309 o
5 -7 4 29.268 30.929 4.307 91.310 o
5 -7 5 67.073 73.105 6.282 42.934 o
5 -7 6 63.941 65.807 6.042 46.403 o
5 -7 7 22.417 21.836 3.948 108.667 o
5 -7 8 27.637 28.117 4.547 81.952 o
5 -6 -8 30.697 34.094 3.718 122.534 o
5 -6 -7 56.515 57.089 3.739 121.162 o
5 -6 -6 30.709 30.226 2.940 196.026 o
5 -6 -5 22.736 23.067 2.622 246.474 o
5 -6 -4 25.540 33.094 2.897 201.792 o
5 -6 -3 24.823 29.108 2.749 224.231 o
5 -6 -2 71.103 71.750 4.040 103.811 o
5 -6 -1 102.683 104.700 5.097 65.202 o
5 -6 0 48.278 48.126 3.383 147.992 o
5 -6 1 37.801 36.449 3.087 177.752 o
5 -6 2 49.611 54.679 5.145 64.001 o
5 -6 3 60.783 64.909 5.444 57.161 o
5 -6 4 58.191 58.448 5.324 59.759 o
5 -6 5 55.953 55.457 5.384 58.439 o
5 -6 6 48.755 50.731 5.265 61.125 o
5 -6 7 9.804 7.957 2.692 233.754 o
5 -6 8 14.886 13.460 3.290 156.480 o
5 -6 9 13.841 12.922 3.231 162.329 o
5 -6 10 10.811 9.033 3.171 168.513 o
5 -5 -9 28.189 30.989 4.487 84.152 o
5 -5 -8 31.972 32.245 4.487 84.152 o
5 -5 -7 88.041 91.532 4.736 75.543 o
5 -5 -6 76.068 72.522 3.976 107.178 o
5 -5 -5 9.303 7.756 1.625 641.611 o
5 -5 -4 108.512 101.664 4.864 71.601 o
5 -5 -3 113.847 110.081 5.032 66.910 o
5 -5 -2 122.578 117.912 5.265 61.103 o
5 -5 -1 205.079 195.165 7.550 29.719 o
5 -5 0 88.260 87.624 4.335 90.167 o
5 -5 1 27.420 32.438 2.749 224.231 o
5 -5 2 75.128 75.020 5.803 50.309 o
5 -5 3 54.021 57.431 5.025 67.085 o
5 -5 4 66.860 61.619 5.504 55.925 o
5 -5 5 59.002 53.782 5.145 64.001 o
5 -5 6 106.375 113.965 7.897 27.167 o
5 -5 7 49.435 50.731 5.085 65.516 o
5 -5 8 22.583 22.195 3.769 119.262 o
5 -5 9 43.296 44.210 4.965 68.711 o
5 -5 10 57.178 53.004 5.504 55.925 o
5 -5 11 23.051 25.844 4.307 91.310 o
5 -4 -10 17.480 15.973 3.530 135.982 o
5 -4 -9 17.506 18.904 3.530 135.982 o
5 -4 -8 51.059 54.141 5.324 59.759 o
5 -4 -7 70.161 69.755 5.863 49.287 o
5 -4 -6 49.511 47.522 3.189 166.629 o
5 -4 -5 2.523 3.231 1.293 1013.240 o
5 -4 -4 10.727 11.720 1.703 583.811 o
5 -4 -3 98.233 103.725 4.651 78.318 o
5 -4 -2 51.282 49.152 3.038 183.575 o
5 -4 -1 103.843 100.633 4.648 78.415 o
5 -4 0 189.719 179.782 6.914 35.439 o
5 -4 1 84.570 83.411 4.081 101.736 o
5 -4 2 244.383 247.015 13.520 9.268 o
5 -4 3 387.275 373.363 18.366 5.022 o
5 -4 4 166.107 172.174 9.871 17.387 o
5 -4 5 161.615 163.440 9.751 17.816 o
5 -4 6 181.025 173.969 10.050 16.771 o
5 -4 7 154.299 155.424 9.572 18.490 o
5 -4 8 42.063 41.638 4.606 79.837 o
5 -4 9 48.839 56.235 5.265 61.125 o
5 -4 10 61.379 67.302 5.923 48.296 o
5 -4 11 49.635 53.782 5.504 55.925 o
5 -4 12 66.917 72.088 6.760 37.071 o
5 -3 -11 6.282 6.820 2.931 197.148 o
5 -3 -10 19.109 17.768 3.589 131.487 o
5 -3 -9 33.230 36.313 4.547 81.952 o
5 -3 -8 24.801 28.656 4.008 105.447 o
5 -3 -7 119.909 118.512 7.837 27.583 o
5 -3 -6 61.343 62.337 5.265 61.125 o
5 -3 -5 0.245 0.637 1.029 1599.310 o
5 -3 -4 6.241 4.726 1.250 1083.990 o
5 -3 -3 70.935 73.944 3.729 121.814 o
5 -3 -2 62.267 63.270 3.329 152.863 o
5 -3 -1 52.520 51.006 3.014 186.520 o
5 -3 0 8.252 7.771 2.124 375.602 o
5 -3 2 42.171 46.364 4.188 96.603 o
5 -3 3 183.004 189.464 10.529 15.281 o
5 -3 4 225.934 205.676 10.888 14.290 o
5 -3 5 132.080 131.374 7.957 26.760 o
5 -3 6 179.444 172.234 9.991 16.973 o
5 -3 7 160.410 158.534 9.512 18.724 o
5 -3 8 77.334 81.660 6.102 45.497 o
5 -3 9 97.101 92.907 6.820 36.423 o
5 -3 10 102.661 104.034 7.418 30.785 o
5 -3 11 82.558 86.984 6.760 37.071 o
5 -3 12 59.416 62.516 5.923 48.296 o
5 -3 13 63.238 71.550 6.401 41.344 o
5 -2 -11 10.563 7.837 3.111 175.057 o
5 -2 -10 27.236 23.571 4.008 105.447 o
5 -2 -9 42.237 41.877 5.025 67.085 o
5 -2 -8 23.978 21.178 3.530 135.982 o
5 -2 -7 34.981 36.493 4.307 91.310 o
5 -2 -6 47.054 47.979 4.606 79.837 o
5 -2 -5 68.113 67.422 5.265 61.125 o
5 -2 -4 16.053 14.124 1.694 590.266 o
5 -2 -3 69.958 72.104 3.575 132.532 o
5 -2 -2 116.286 120.879 4.954 69.023 o
5 -2 -1 55.721 58.741 3.092 177.226 o
5 -2 0 55.861 52.047 4.606 79.837 o
5 -2 2 1.809 2.991 1.555 700.226 o
5 -2 3 73.496 71.969 5.504 55.925 o
5 -2 4 113.545 110.555 6.700 37.735 o
5 -2 6 116.372 118.871 7.179 32.872 o
5 -2 7 78.756 71.969 5.564 54.729 o
5 -2 8 87.479 82.438 5.923 48.296 o
5 -2 9 66.154 60.123 5.205 62.538 o
5 -2 10 116.959 112.230 7.538 29.816 o
5 -2 11 90.748 97.334 6.999 34.579 o
5 -2 12 49.292 49.475 5.025 67.085 o
5 -2 13 14.834 12.623 3.111 175.057 o
5 -2 14 29.973 33.861 4.666 77.803 o
5 -1 -12 49.557 47.919 6.102 45.497 o
5 -1 -11 32.447 31.408 5.205 62.538 o
5 -1 -10 68.019 66.704 6.341 42.128 o
5 -1 -9 111.532 117.555 8.316 24.499 o
5 -1 -8 111.409 116.897 8.196 25.220 o
5 -1 -7 181.178 173.132 10.589 15.109 o
5 -1 -6 83.320 80.284 6.222 43.764 o
5 -1 -5 103.465 92.309 6.162 44.618 o
5 -1 -4 232.129 231.460 11.726 12.322 o
5 -1 -3 133.961 130.276 5.170 63.375 o
5 -1 -2 371.061 359.822 11.742 12.288 o
5 -1 -1 188.723 183.960 9.333 19.451 o
5 -1 0 111.960 114.085 6.700 37.735 o
5 -1 1 137.195 136.818 7.658 28.891 o
5 -1 2 19.140 23.511 2.991 189.341 o
5 -1 3 138.005 121.742 8.016 26.362 o
5 -1 4 199.657 211.957 11.127 13.682 o
5 -1 5 22.930 21.896 2.931 197.148 o
5 -1 6 58.868 55.397 4.726 75.846 o
5 -1 7 121.216 124.765 6.072 45.947 o
5 -1 8 54.570 58.535 3.299 155.683 o
5 -1 9 97.763 93.697 4.399 87.528 o
5 -1 10 174.059 170.634 8.884 21.465 o
5 -1 11 110.321 111.213 7.299 31.803 o
5 -1 12 75.535 81.481 6.282 42.934 o
5 -1 13 8.852 9.033 2.632 244.500 o
5 -1 14 10.707 9.512 2.872 205.448 o
5 0 -12 30.297 27.340 4.547 81.952 o
5 0 -11 49.931 54.620 5.982 47.335 o
5 0 -10 38.164 39.424 5.205 62.538 o
5 0 -9 93.372 90.155 7.179 32.872 o
5 0 -8 78.045 79.865 6.341 42.128 o
5 0 -7 13.202 12.862 2.931 197.148 o
5 0 -6 130.831 128.862 8.615 22.828 o
5 0 -2 211.848 207.275 7.543 29.772 o
5 0 -1 232.861 229.797 8.016 26.364 o
5 0 0 60.642 61.253 2.860 207.048 o
5 0 1 177.051 166.024 6.730 37.401 o
5 0 2 553.703 536.022 17.189 5.734 o
5 0 3 345.942 348.722 11.329 13.201 o
5 0 4 664.138 656.000 21.297 3.735 o
5 0 5 471.012 471.263 15.036 7.493 o
5 0 6 36.343 42.529 2.515 267.922 o
5 0 7 117.252 112.806 5.054 66.326 o
5 0 8 134.366 128.632 5.330 59.642 o
5 0 9 45.483 47.620 4.188 96.603 o
5 0 10 42.206 44.358 2.982 190.503 o
5 0 11 143.751 140.472 5.920 48.331 o
5 0 12 63.572 70.373 4.040 103.811 o
5 0 13 47.342 52.154 3.550 134.399 o
5 0 14 40.404 41.818 3.446 142.673 o
5 0 15 48.595 52.346 5.743 51.362 o
5 1 -12 3.597 2.812 2.812 214.284 o
5 1 -11 8.587 7.358 3.051 181.989 o
5 1 -10 30.606 28.895 4.726 75.846 o
5 1 -9 45.567 52.167 5.623 53.571 o
5 1 -8 98.264 98.890 7.358 31.288 o
5 1 -7 61.739 64.072 5.564 54.729 o
5 1 -6 23.120 22.195 3.589 131.487 o
5 1 -5 239.569 223.922 12.144 11.487 o
5 1 -4 29.591 32.185 3.829 115.565 o
5 1 -3 10.620 10.888 2.513 268.341 o
5 1 -2 32.812 40.082 3.889 112.036 o
5 1 -1 11.989 9.997 1.351 928.087 o
5 1 0 6.289 5.025 1.795 525.948 o
5 1 1 25.799 22.561 1.782 533.255 o
5 1 2 53.424 47.880 2.512 268.516 o
5 1 3 103.028 102.660 4.055 103.026 o
5 1 4 215.296 227.597 7.655 28.908 o
5 1 5 263.315 257.143 8.925 21.266 o
5 1 6 126.634 131.075 7.299 31.803 o
5 1 7 79.479 71.729 5.205 62.538 o
5 1 8 208.805 209.309 7.825 27.671 o
5 1 9 235.948 238.277 8.733 22.211 o
5 1 10 87.848 84.174 4.201 95.980 o
5 1 11 83.362 85.713 4.328 90.425 o
5 1 12 65.975 71.276 3.951 108.523 o
5 1 13 47.832 50.937 3.517 136.971 o
5 1 14 43.129 47.381 5.145 64.001 o
5 1 15 47.628 52.227 5.683 52.449 o
5 2 -11 52.215 55.158 6.162 44.618 o
5 2 -10 59.619 60.123 6.102 45.497 o
5 2 -9 83.990 91.950 7.239 32.331 o
5 2 -8 77.426 76.336 6.282 42.934 o
5 2 -7 142.150 135.023 8.555 23.148 o
5 2 -6 10.630 12.623 2.812 214.284 o
5 2 -5 63.886 67.781 5.504 55.925 o
5 2 -4 240.237 233.075 11.785 12.197 o
5 2 -3 104.630 101.941 6.521 39.841 o
5 2 -2 171.197 174.866 9.931 17.178 o
5 2 -1 161.823 151.365 5.791 50.513 o
5 2 0 16.446 17.116 1.696 588.943 o
5 2 1 34.439 32.916 2.180 356.390 o
5 2 2 1.872 1.554 0.891 2133.020 o
5 2 3 26.986 24.266 1.879 479.706 o
5 2 4 6.291 7.920 1.267 1055.410 o
5 2 5 109.390 101.853 4.185 96.711 o
5 2 6 180.398 188.182 7.598 29.348 o
5 2 7 38.541 34.731 2.359 304.495 o
5 2 8 184.890 183.988 6.909 35.495 o
5 2 9 332.698 332.315 11.184 13.544 o
5 2 10 221.584 230.229 8.383 24.104 o
5 2 11 91.618 88.049 4.335 90.150 o
5 2 12 70.243 69.695 5.863 49.287 o
5 2 13 36.257 36.912 4.726 75.846 o
5 2 14 22.196 25.066 4.188 96.603 o
5 2 15 12.686 12.324 3.350 150.942 o
5 3 -11 48.939 50.013 5.923 48.296 o
5 3 -10 129.172 140.467 9.512 18.724 o
5 3 -9 105.037 103.915 7.897 27.167 o
5 3 -8 128.659 116.358 8.256 24.856 o
5 3 -7 193.948 195.506 11.307 13.251 o
5 3 -6 138.483 130.537 8.256 24.856 o
5 3 -5 74.764 75.977 6.162 44.618 o
5 3 -4 144.491 141.784 8.495 23.475 o
5 3 -3 169.619 162.363 8.854 21.610 o
5 3 -2 94.881 85.728 5.863 49.287 o
5 3 -1 245.046 243.881 8.711 22.323 o
5 3 0 146.689 145.361 5.499 56.028 o
5 3 1 8.031 8.849 1.352 927.230 o
5 3 2 60.388 60.077 3.088 177.652 o
5 3 3 226.952 211.807 7.720 28.425 o
5 3 4 228.685 227.818 8.650 22.641 o
5 3 5 43.821 45.453 2.777 219.743 o
5 3 8 4.587 5.414 1.236 1109.700 o
5 3 9 100.905 103.433 4.557 81.580 o
5 3 10 50.072 49.654 4.906 70.397 o
5 3 11 52.415 52.765 4.965 68.711 o
5 3 12 121.534 118.213 8.136 25.592 o
5 3 13 54.095 58.269 5.803 50.309 o
5 3 14 49.455 57.132 6.042 46.403 o
5 3 15 32.332 28.716 4.965 68.711 o
5 4 -10 58.923 62.516 6.521 39.841 o
5 4 -9 33.603 37.809 5.025 67.085 o
5 4 -8 62.121 63.234 5.743 51.362 o
5 4 -7 90.207 96.796 7.119 33.426 o
5 4 -6 73.038 75.020 6.042 46.403 o
5 4 -5 42.631 43.074 4.606 79.837 o
5 4 -4 158.193 154.885 9.273 19.703 o
5 4 -3 216.242 217.880 11.666 12.448 o
5 4 -2 100.899 93.625 6.521 39.841 o
5 4 -1 130.322 128.904 5.330 59.642 o
5 4 0 206.647 200.183 7.382 31.091 o
5 4 1 56.903 56.765 3.003 187.913 o
5 4 2 139.222 134.207 5.306 60.179 o
5 4 3 308.569 301.394 10.255 16.109 o
5 4 4 274.674 264.827 9.342 19.413 o
5 4 5 192.183 176.779 6.631 38.525 o
5 4 6 60.975 61.770 3.296 155.911 o
5 4 7 20.302 21.818 1.954 443.919 o
5 4 8 17.701 14.836 2.872 205.448 o
5 4 9 85.547 80.165 6.341 42.128 o
5 4 10 39.793 43.133 4.846 72.146 o
5 4 11 56.661 58.987 5.324 59.759 o
5 4 12 22.738 24.289 4.068 102.369 o
5 4 13 72.822 78.310 6.581 39.120 o
5 4 14 18.119 18.426 3.829 115.565 o
5 4 15 44.944 49.774 6.042 46.403 o
5 5 -10 37.738 38.048 5.504 55.925 o
5 5 -9 46.044 41.458 5.384 58.439 o
5 5 -8 58.794 60.662 5.863 49.287 o
5 5 -7 85.702 80.763 6.521 39.841 o
5 5 -6 119.417 127.186 8.016 26.362 o
5 5 -5 52.885 52.227 5.025 67.085 o
5 5 -4 99.199 91.471 6.401 41.344 o
5 5 -3 304.547 305.583 14.896 7.635 o
5 5 -2 111.680 118.097 5.033 66.867 o
5 5 -1 40.173 42.720 2.834 210.895 o
5 5 0 34.077 40.561 2.664 238.705 o
5 5 1 27.853 27.958 2.198 350.502 o
5 5 2 62.080 61.971 3.202 165.272 o
5 5 3 223.028 231.544 8.345 24.327 o
5 5 4 17.159 16.755 1.763 544.966 o
5 5 5 137.458 129.988 5.128 64.432 o
5 5 6 162.219 166.671 9.273 19.703 o
5 5 7 83.506 81.301 6.042 46.403 o
5 5 8 112.989 104.633 7.418 30.785 o
5 5 9 167.104 156.740 10.050 16.771 o
5 5 10 83.936 83.335 6.700 37.735 o
5 5 11 60.344 66.225 6.102 45.497 o
5 5 12 21.197 18.665 3.709 123.141 o
5 5 13 36.633 36.612 5.205 62.538 o
5 5 14 30.158 28.058 4.726 75.846 o
5 6 -9 44.023 46.962 5.683 52.449 o
5 6 -8 76.147 78.310 6.880 35.792 o
5 6 -7 89.184 85.489 7.059 33.995 o
5 6 -6 36.152 32.544 4.427 86.441 o
5 6 -5 28.931 30.391 4.188 96.603 o
5 6 -4 62.409 64.192 5.384 58.439 o
5 6 -3 160.258 155.543 9.033 20.760 o
5 6 -2 152.804 154.931 6.196 44.124 o
5 6 -1 62.041 60.334 3.426 144.359 o
5 6 0 65.501 63.628 3.508 137.662 o
5 6 1 40.787 41.567 2.703 231.808 o
5 6 2 49.413 47.394 2.827 211.966 o
5 6 3 228.322 233.817 8.614 22.829 o
5 6 4 91.811 89.796 6.461 40.582 o
5 6 5 16.553 16.691 2.872 205.448 o
5 6 6 57.609 58.807 5.025 67.085 o
5 6 7 117.285 122.700 7.777 28.009 o
5 6 8 130.883 129.699 8.435 23.809 o
5 6 9 115.368 113.188 8.076 25.973 o
5 6 10 90.983 86.386 6.880 35.792 o
5 6 11 109.876 104.752 7.837 27.583 o
5 6 12 38.157 37.270 5.324 59.759 o
5 6 13 21.724 18.426 4.068 102.369 o
5 6 14 23.116 24.468 4.606 79.837 o
5 7 -8 53.840 53.962 5.863 49.287 o
5 7 -7 73.995 74.182 6.401 41.344 o
5 7 -6 52.590 64.192 5.923 48.296 o
5 7 -5 23.705 25.665 4.068 102.369 o
5 7 -4 57.326 51.090 4.965 68.711 o
5 7 -3 96.553 89.222 4.674 77.538 o
5 7 -2 114.752 118.522 5.433 57.399 o
5 7 -1 65.867 66.735 3.697 123.955 o
5 7 0 38.990 35.505 2.741 225.509 o
5 7 1 90.889 85.548 4.309 91.231 o
5 7 2 165.990 167.089 9.512 18.724 o
5 7 3 31.127 27.759 3.829 115.565 o
5 7 4 41.217 38.228 4.248 93.901 o
5 7 5 4.320 4.068 2.034 409.475 o
5 7 6 1.632 1.855 1.914 462.259 o
5 7 7 4.647 4.008 2.213 345.765 o
5 7 8 11.135 10.828 2.872 205.448 o
5 7 9 25.214 27.280 4.307 91.310 o
5 7 10 20.517 21.297 4.008 105.447 o
5 7 11 31.274 31.587 4.846 72.146 o
5 7 12 37.836 35.296 5.265 61.125 o
5 7 13 19.026 21.238 4.248 93.901 o
5 8 -6 126.857 137.895 9.033 20.760 o
5 8 -5 117.902 131.853 8.615 22.828 o
5 8 -4 140.385 148.439 6.514 39.923 o
5 8 -3 201.400 200.654 8.034 26.244 o
5 8 -2 166.482 172.318 7.019 34.389 o
5 8 -1 66.419 69.755 5.803 50.309 o
5 8 0 60.931 62.875 5.623 53.571 o
5 8 1 62.947 66.225 5.623 53.571 o
5 8 2 124.021 128.383 8.435 23.809 o
5 8 3 71.281 70.712 5.923 48.296 o
5 8 4 120.435 116.119 7.957 26.760 o
5 8 5 124.121 120.606 8.076 25.973 o
5 8 6 69.365 65.807 5.803 50.309 o
5 8 7 102.042 97.813 7.418 30.785 o
5 8 8 79.474 77.173 6.700 37.735 o
5 8 9 16.752 16.392 3.709 123.141 o
5 8 10 36.983 33.262 5.025 67.085 o
5 8 11 28.583 25.126 4.367 88.826 o
5 8 12 11.079 14.059 3.829 115.565 o
5 9 -5 15.449 15.121 2.410 291.653 o
5 9 -4 49.188 54.620 5.384 58.439 o
5 9 -3 68.282 72.806 6.162 44.618 o
5 9 -2 94.750 94.463 7.299 31.803 o
5 9 -1 123.351 128.862 8.615 22.828 o
5 9 0 65.517 67.302 5.982 47.335 o
5 9 1 74.728 72.208 6.222 43.764 o
5 9 2 127.965 135.741 8.914 21.321 o
5 9 3 85.730 91.711 7.059 33.995 o
5 9 4 49.356 48.817 5.145 64.001 o
5 9 5 59.218 58.089 5.623 53.571 o
5 9 6 58.467 55.637 5.623 53.571 o
5 9 7 59.954 65.388 6.102 45.497 o
5 9 8 78.474 75.558 6.820 36.423 o
5 9 9 103.924 112.111 8.675 22.514 o
5 9 10 69.168 73.883 7.179 32.872 o
5 9 11 37.575 34.818 5.683 52.449 o
5 10 -2 20.825 20.400 3.769 119.262 o
5 10 -1 48.124 57.671 5.564 54.729 o
5 10 0 32.198 34.698 4.606 79.837 o
5 10 1 22.641 20.759 3.889 112.036 o
5 10 2 48.696 52.944 5.504 55.925 o
5 10 3 92.291 96.257 7.538 29.816 o
5 10 4 60.436 59.226 5.863 49.287 o
5 10 5 28.148 25.844 4.487 84.152 o
5 10 6 37.380 35.895 4.965 68.711 o
5 10 7 22.629 21.238 4.128 99.423 o
5 10 8 26.902 22.793 4.367 88.826 o
5 10 9 42.961 45.706 5.923 48.296 o
6 -7 -1 20.658 20.539 2.638 243.523 o
6 -7 0 20.943 18.954 2.662 239.037 o
6 -7 1 28.126 30.032 4.846 72.146 o
6 -7 2 12.502 13.760 3.410 145.692 o
6 -7 3 4.473 4.188 2.572 256.005 o
6 -6 -5 81.742 88.361 7.358 31.288 o
6 -6 -4 24.412 28.946 3.107 175.462 o
6 -6 -3 29.180 35.849 3.304 155.153 o
6 -6 -2 46.594 52.806 3.824 115.854 o
6 -6 -1 57.963 64.597 4.188 96.593 o
6 -6 0 47.088 53.603 5.623 53.571 o
6 -6 1 34.629 38.407 4.666 77.803 o
6 -6 2 24.759 25.007 4.068 102.369 o
6 -6 3 27.305 26.562 4.307 91.310 o
6 -6 4 23.376 19.084 3.769 119.262 o
6 -6 5 34.767 36.373 4.906 70.397 o
6 -6 6 12.637 16.930 3.649 127.211 o
6 -5 -6 71.436 70.533 6.282 42.934 o
6 -5 -5 118.447 119.589 8.495 23.475 o
6 -5 -4 50.775 54.560 5.504 55.925 o
6 -5 -3 54.905 50.649 3.608 130.157 o
6 -5 -2 67.416 68.169 4.143 98.697 o
6 -5 -1 73.038 71.999 4.270 92.914 o
6 -5 0 66.506 69.576 6.042 46.403 o
6 -5 1 17.506 20.101 3.649 127.211 o
6 -5 2 10.654 8.854 2.692 233.754 o
6 -5 3 16.443 18.546 3.589 131.487 o
6 -5 4 24.071 28.058 4.188 96.603 o
6 -5 5 46.752 47.800 5.205 62.538 o
6 -5 6 27.394 27.818 4.367 88.826 o
6 -5 7 6.913 8.675 2.931 197.148 o
6 -5 8 11.011 11.068 3.231 162.329 o
6 -5 9 8.028 8.555 3.051 181.989 o
6 -4 -8 8.556 11.546 3.231 162.329 o
6 -4 -7 19.087 21.118 3.889 112.036 o
6 -4 -6 16.679 16.093 3.410 145.692 o
6 -4 -5 21.148 20.939 3.709 123.141 o
6 -4 -4 71.505 69.396 5.923 48.296 o
6 -4 -3 47.299 50.215 3.772 119.087 o
6 -4 -2 139.771 146.526 6.373 41.718 o
6 -4 -1 167.511 170.806 7.120 33.415 o
6 -4 0 159.160 156.799 9.871 17.387 o
6 -4 1 146.812 139.869 9.033 20.760 o
6 -4 2 78.052 82.797 6.521 39.841 o
6 -4 3 46.539 39.663 4.606 79.837 o
6 -4 4 87.803 84.292 6.700 37.735 o
6 -4 5 92.469 96.257 7.059 33.995 o
6 -4 6 126.810 127.545 8.495 23.475 o
6 -4 7 55.450 55.098 5.504 55.925 o
6 -4 8 26.084 30.391 4.487 84.152 o
6 -4 9 21.746 23.690 3.948 108.667 o
6 -4 10 14.844 12.144 3.231 162.329 o
6 -3 -8 33.916 39.783 5.085 65.516 o
6 -3 -7 24.660 30.151 4.547 81.952 o
6 -3 -6 37.641 41.997 4.906 70.397 o
6 -3 -5 3.374 3.589 2.273 327.807 o
6 -3 -4 0.822 0.718 1.855 492.563 o
6 -3 -3 46.747 46.842 4.666 77.803 o
6 -3 -2 36.181 36.246 3.159 169.746 o
6 -3 -1 98.071 95.898 6.940 35.178 o
6 -3 0 126.917 125.511 8.196 25.220 o
6 -3 1 70.758 73.285 5.743 51.362 o
6 -3 2 117.396 113.905 7.658 28.891 o
6 -3 3 89.383 93.266 6.880 35.792 o
6 -3 4 64.662 60.961 5.504 55.925 o
6 -3 5 64.698 60.243 5.444 57.161 o
6 -3 6 62.343 56.534 5.384 58.439 o
6 -3 8 11.197 10.230 2.812 214.284 o
6 -3 9 42.026 44.689 5.025 67.085 o
6 -3 10 44.741 53.064 5.504 55.925 o
6 -3 11 27.557 30.391 4.547 81.952 o
6 -2 -9 17.542 18.964 4.068 102.369 o
6 -2 -8 61.697 65.687 6.461 40.582 o
6 -2 -7 62.792 67.003 6.162 44.618 o
6 -2 -6 72.128 67.661 6.162 44.618 o
6 -2 -5 89.551 88.600 6.999 34.579 o
6 -2 -4 73.353 78.908 6.521 39.841 o
6 -2 -3 31.148 28.536 4.008 105.447 o
6 -2 -2 23.575 22.494 3.649 127.211 o
6 -2 -1 51.736 51.030 4.846 72.146 o
6 -2 0 90.849 82.019 6.102 45.497 o
6 -2 1 43.955 45.227 4.487 84.152 o
6 -2 2 40.054 37.390 4.068 102.369 o
6 -2 3 87.730 93.326 6.521 39.841 o
6 -2 4 117.052 107.205 7.119 33.426 o
6 -2 5 156.054 159.073 9.572 18.490 o
6 -2 6 72.850 68.379 5.683 52.449 o
6 -2 7 39.557 37.988 4.248 93.901 o
6 -2 8 2.402 0.479 1.735 562.845 o
6 -2 9 8.716 5.324 2.393 295.845 o
6 -2 10 27.405 30.809 4.427 86.441 o
6 -2 11 19.862 23.331 3.829 115.565 o
6 -2 12 10.046 6.162 2.632 244.500 o
6 -1 -9 18.406 15.734 3.649 127.211 o
6 -1 -8 29.402 29.733 4.547 81.952 o
6 -1 -7 59.097 58.269 5.743 51.362 o
6 -1 -6 70.713 65.687 5.982 47.335 o
6 -1 -5 62.710 58.568 5.384 58.439 o
6 -1 -4 130.074 128.503 8.555 23.148 o
6 -1 -3 211.128 218.777 12.025 11.716 o
6 -1 -2 122.378 121.922 7.897 27.167 o
6 -1 -1 111.035 105.889 7.358 31.288 o
6 -1 0 96.501 94.881 6.521 39.841 o
6 -1 1 58.030 58.030 4.846 72.146 o
6 -1 2 15.584 15.554 2.991 189.341 o
6 -1 3 22.579 18.486 2.991 189.341 o
6 -1 5 117.061 118.033 7.478 30.295 o
6 -1 6 137.902 130.058 8.196 25.220 o
6 -1 7 64.359 64.790 5.384 58.439 o
6 -1 8 18.987 19.742 3.290 156.480 o
6 -1 9 22.805 22.015 3.589 131.487 o
6 -1 10 60.619 62.816 5.444 57.161 o
6 -1 11 23.973 26.323 4.008 105.447 o
6 -1 12 1.875 1.795 2.154 365.241 o
6 -1 13 2.972 2.393 2.333 311.212 o
6 0 -9 10.206 8.136 3.231 162.329 o
6 0 -8 18.851 19.323 3.948 108.667 o
6 0 -7 13.697 13.879 3.231 162.329 o
6 0 -6 47.663 49.714 5.145 64.001 o
6 0 -5 13.357 15.734 3.231 162.329 o
6 0 -4 7.983 8.435 2.513 268.341 o
6 0 -3 78.583 84.891 6.461 40.582 o
6 0 -2 327.981 327.359 16.392 6.305 o
6 0 -1 186.241 190.361 10.768 14.610 o
6 0 0 436.245 418.950 20.639 3.977 o
6 0 1 431.562 413.386 20.161 4.168 o
6 0 2 175.421 170.858 9.871 17.387 o
6 0 3 253.143 249.886 13.520 9.268 o
6 0 4 416.899 411.890 19.622 4.400 o
6 0 5 105.735 100.744 6.641 38.418 o
6 0 6 196.043 179.772 10.170 16.379 o
6 0 7 212.864 220.632 11.247 13.393 o
6 0 8 82.365 87.104 5.982 47.335 o
6 0 9 28.290 29.793 3.829 115.565 o
6 0 10 69.492 68.977 5.564 54.729 o
6 0 11 73.586 82.019 6.341 42.128 o
6 0 12 18.755 16.870 3.231 162.329 o
6 0 13 7.300 8.435 2.752 223.702 o
6 1 -9 12.555 14.597 3.769 119.262 o
6 1 -8 14.936 18.246 3.948 108.667 o
6 1 -7 8.088 7.179 3.051 181.989 o
6 1 -6 15.688 12.384 3.171 168.513 o
6 1 -5 1.996 1.615 2.154 365.241 o
6 1 -4 7.938 6.880 2.453 281.590 o
6 1 -3 13.580 7.358 2.333 311.212 o
6 1 -2 64.170 68.379 5.384 58.439 o
6 1 -1 168.148 171.809 7.027 34.306 o
6 1 0 77.125 79.516 4.018 104.933 o
6 1 1 76.419 72.276 3.687 124.637 o
6 1 2 98.167 95.195 4.207 95.699 o
6 1 3 25.082 23.824 2.104 382.797 o
6 1 4 291.176 274.499 9.934 17.166 o
6 1 5 279.152 275.184 9.854 17.447 o
6 1 6 79.359 78.878 4.101 100.745 o
6 1 7 69.652 66.988 3.659 126.540 o
6 1 8 77.275 78.204 3.954 108.374 o
6 1 9 48.922 48.338 4.487 84.152 o
6 1 10 139.399 129.188 7.538 29.816 o
6 1 11 94.248 96.192 4.800 73.528 o
6 1 12 78.751 83.092 5.324 59.759 o
6 1 13 49.768 57.192 7.957 26.760 o
6 2 -9 39.131 41.817 5.923 48.296 o
6 2 -8 48.187 48.517 5.803 50.309 o
6 2 -7 12.633 10.768 3.171 168.513 o
6 2 -6 51.197 51.329 5.444 57.161 o
6 2 -5 31.245 30.271 4.307 91.310 o
6 2 -4 4.938 5.265 2.393 295.845 o
6 2 -3 16.821 21.417 3.530 135.982 o
6 2 -2 55.058 53.662 4.965 68.711 o
6 2 -1 25.096 19.108 1.926 456.903 o
6 2 0 22.098 23.951 2.127 374.466 o
6 2 1 73.712 74.895 3.620 129.308 o
6 2 2 67.341 66.180 3.364 149.668 o
6 2 3 158.261 144.921 5.599 54.037 o
6 2 4 180.849 190.899 9.931 17.178 o
6 2 5 265.246 263.825 12.922 10.146 o
6 2 6 127.939 120.785 7.059 33.995 o
6 2 7 77.570 78.711 3.954 108.374 o
6 2 8 49.409 49.700 3.056 181.375 o
6 2 9 51.754 50.854 3.207 164.671 o
6 2 10 41.278 35.458 2.886 203.346 o
6 2 11 57.334 57.013 5.324 59.759 o
6 2 13 23.312 24.767 4.307 91.310 o
6 2 14 14.427 13.341 3.410 145.692 o
6 3 -9 16.355 19.144 4.307 91.310 o
6 3 -8 49.060 51.928 5.982 47.335 o
6 3 -7 59.052 57.132 5.982 47.335 o
6 3 -6 33.576 29.553 4.487 84.152 o
6 3 -5 84.654 78.430 6.521 39.841 o
6 3 -4 24.545 24.767 4.008 105.447 o
6 3 -3 30.483 28.019 2.630 244.842 o
6 3 -2 143.586 141.001 5.961 47.683 o
6 3 -1 160.716 157.458 6.381 41.608 o
6 3 0 18.953 17.898 2.001 423.096 o
6 3 1 21.835 22.570 2.152 365.661 o
6 3 2 18.219 19.795 2.072 394.789 o
6 3 3 143.874 139.670 5.520 55.592 o
6 3 4 141.184 139.062 5.668 52.732 o
6 3 5 93.916 94.742 4.352 89.463 o
6 3 6 142.507 142.056 5.537 55.253 o
6 3 7 120.149 119.734 5.172 63.343 o
6 3 8 105.575 111.266 4.997 67.856 o
6 3 9 65.590 64.192 5.444 57.161 o
6 3 10 38.762 38.108 4.726 75.846 o
6 3 11 55.368 53.064 5.564 54.729 o
6 3 12 27.341 25.246 4.427 86.441 o
6 3 13 9.844 10.649 3.171 168.513 o
6 3 14 3.358 3.111 2.692 233.754 o
6 4 -8 7.026 9.692 3.410 145.692 o
6 4 -7 37.043 43.313 5.384 58.439 o
6 4 -6 27.629 32.305 4.666 77.803 o
6 4 -5 8.720 7.179 2.692 233.754 o
6 4 -4 6.263 8.854 2.692 233.754 o
6 4 -3 28.753 30.913 2.991 189.341 o
6 4 -2 119.595 120.646 5.475 56.515 o
6 4 -1 160.715 159.283 6.472 40.447 o
6 4 0 153.734 144.948 6.028 46.623 o
6 4 1 82.960 76.974 3.976 107.142 o
6 4 2 73.269 73.293 3.806 116.921 o
6 4 3 182.666 172.621 6.704 37.694 o
6 4 4 167.504 169.374 6.553 39.449 o
6 4 5 115.070 112.533 5.006 67.595 o
6 4 6 91.114 95.858 4.366 88.879 o
6 4 7 73.044 75.917 5.623 53.571 o
6 4 8 103.268 103.257 7.179 32.872 o
6 4 9 145.247 147.945 9.153 20.221 o
6 4 10 67.300 66.943 6.102 45.497 o
6 4 11 42.652 45.885 5.444 57.161 o
6 4 12 69.228 67.482 6.461 40.582 o
6 4 13 18.959 16.212 3.769 119.262 o
6 5 -8 19.450 18.665 4.128 99.423 o
6 5 -7 12.226 10.290 3.231 162.329 o
6 5 -6 29.214 29.194 4.487 84.152 o
6 5 -5 25.988 27.998 4.307 91.310 o
6 5 -4 13.123 13.042 3.111 175.057 o
6 5 -3 21.287 19.524 2.298 320.748 o
6 5 -2 50.995 51.559 3.400 146.514 o
6 5 -1 38.915 40.023 3.003 187.801 o
6 5 0 29.926 30.378 2.601 250.352 o
6 5 1 7.703 8.467 1.628 639.018 o
6 5 2 20.270 23.419 2.263 330.842 o
6 5 3 60.791 53.524 3.250 160.403 o
6 5 4 111.985 112.143 4.997 67.856 o
6 5 5 55.882 52.047 4.786 73.961 o
6 5 6 89.281 93.326 6.820 36.423 o
6 5 7 59.982 63.533 5.444 57.161 o
6 5 8 54.710 55.756 5.324 59.759 o
6 5 9 114.325 112.948 8.016 26.362 o
6 5 10 98.617 102.240 7.598 29.348 o
6 5 11 76.103 79.147 7.059 33.995 o
6 5 12 113.945 121.264 8.974 21.038 o
6 5 13 51.716 50.133 5.863 49.287 o
6 6 -7 30.652 26.502 4.547 81.952 o
6 6 -6 10.597 9.692 3.171 168.513 o
6 6 -5 7.845 9.751 3.051 181.989 o
6 6 -4 14.726 15.702 2.325 313.271 o
6 6 -3 22.640 23.929 2.644 242.403 o
6 6 -2 25.193 24.992 2.622 246.474 o
6 6 -1 65.401 64.986 3.891 111.890 o
6 6 0 33.991 37.408 2.853 208.090 o
6 6 1 18.164 17.747 2.111 380.182 o
6 6 2 27.475 28.107 2.504 270.204 o
6 6 3 101.503 103.257 7.119 33.426 o
6 6 4 67.287 60.542 5.265 61.125 o
6 6 5 64.599 56.055 5.085 65.516 o
6 6 6 56.448 50.492 4.965 68.711 o
6 6 7 65.341 57.970 5.384 58.439 o
6 6 8 57.042 60.183 5.683 52.449 o
6 6 9 70.585 67.661 6.222 43.764 o
6 6 10 58.007 57.252 5.982 47.335 o
6 6 11 62.975 68.200 6.461 40.582 o
6 6 12 31.221 32.126 5.265 61.125 o
6 7 -5 27.126 23.870 4.248 93.901 o
6 7 -4 6.936 9.223 2.043 405.690 o
6 7 -3 35.019 34.105 3.194 166.103 o
6 7 -2 34.739 34.695 3.151 170.593 o
6 7 -1 43.745 45.760 3.405 146.108 o
6 7 0 46.378 43.203 3.277 157.797 o
6 7 1 25.607 28.835 4.068 102.369 o
6 7 2 11.264 11.367 2.872 205.448 o
6 7 3 74.640 80.583 6.521 39.841 o
6 7 4 58.029 60.243 5.564 54.729 o
6 7 5 46.995 49.774 5.025 67.085 o
6 7 6 11.385 11.606 3.051 181.989 o
6 7 7 11.695 10.170 2.991 189.341 o
6 7 8 12.754 9.931 2.991 189.341 o
6 7 9 12.060 11.546 3.231 162.329 o
6 7 10 23.251 20.280 4.128 99.423 o
6 7 11 28.963 29.912 5.265 61.125 o
6 8 -4 75.009 81.922 4.927 69.788 o
6 8 -3 55.218 59.980 4.143 98.697 o
6 8 -2 47.300 42.296 5.085 65.516 o
6 8 -1 33.176 34.578 4.726 75.846 o
6 8 0 41.378 40.621 4.786 73.961 o
6 8 1 30.068 28.776 4.487 84.152 o
6 8 2 2.434 2.034 2.094 386.410 o
6 8 3 19.221 13.999 3.290 156.480 o
6 8 4 58.311 55.696 5.623 53.571 o
6 8 5 48.963 47.441 5.205 62.538 o
6 8 6 29.418 27.459 4.427 86.441 o
6 8 7 33.832 38.347 5.025 67.085 o
6 8 8 38.534 35.775 5.085 65.516 o
6 8 9 40.002 35.416 5.444 57.161 o
6 8 10 59.813 66.285 6.820 36.423 o
6 9 -1 29.341 31.288 4.726 75.846 o
6 9 0 48.629 50.492 5.743 51.362 o
6 9 1 74.956 86.685 7.299 31.803 o
6 9 2 47.941 49.714 5.743 51.362 o
6 9 3 32.196 31.826 4.786 73.961 o
6 9 4 88.095 82.199 7.119 33.426 o
6 9 5 80.515 81.900 7.059 33.995 o
6 9 6 29.228 30.451 4.846 72.146 o
6 9 7 33.786 31.527 5.205 62.538 o
6 9 8 54.763 59.585 6.341 42.128 o
7 -5 0 28.740 27.818 4.547 81.952 o
7 -5 1 14.126 14.836 3.589 131.487 o
7 -5 2 13.909 16.093 3.649 127.211 o
7 -5 3 13.684 17.469 3.769 119.262 o
7 -4 -3 29.355 34.997 5.025 67.085 o
7 -4 -2 14.893 13.640 3.470 140.711 o
7 -4 -1 27.168 31.886 4.666 77.803 o
7 -4 0 44.437 49.774 5.743 51.362 o
7 -4 1 38.930 38.826 4.965 68.711 o
7 -4 2 24.185 23.272 4.068 102.369 o
7 -4 3 20.220 16.691 3.530 135.982 o
7 -4 4 21.246 18.725 3.709 123.141 o
7 -4 5 46.531 45.347 5.265 61.125 o
7 -4 6 46.685 49.475 5.564 54.729 o
7 -3 -5 21.891 25.784 4.487 84.152 o
7 -3 -4 20.618 21.597 4.008 105.447 o
7 -3 -3 11.698 11.367 3.231 162.329 o
7 -3 -2 20.324 19.084 3.709 123.141 o
7 -3 -1 21.620 18.725 3.709 123.141 o
7 -3 0 25.740 27.399 4.427 86.441 o
7 -3 1 13.705 13.161 3.231 162.329 o
7 -3 2 18.154 16.751 3.470 140.711 o
7 -3 3 10.954 11.187 3.051 181.989 o
7 -3 4 4.464 4.248 2.393 295.845 o
7 -3 5 13.815 13.700 3.171 168.513 o
7 -3 6 37.269 39.005 4.786 73.961 o
7 -3 7 19.579 17.828 3.709 123.141 o
7 -3 8 32.188 35.715 4.906 70.397 o
7 -2 -6 54.049 61.978 6.401 41.344 o
7 -2 -5 57.044 57.013 6.222 43.764 o
7 -2 -4 59.804 63.115 6.282 42.934 o
7 -2 -3 27.382 27.459 4.367 88.826 o
7 -2 -2 46.082 47.859 5.324 59.759 o
7 -2 -1 75.792 80.404 6.700 37.735 o
7 -2 0 80.471 82.199 6.700 37.735 o
7 -2 1 32.779 34.160 4.726 75.846 o
7 -2 2 10.360 9.871 2.872 205.448 o
7 -2 3 7.144 8.794 2.752 223.702 o
7 -2 4 19.785 22.973 3.829 115.565 o
7 -2 5 9.489 9.692 2.812 214.284 o
7 -2 6 15.307 14.059 3.171 168.513 o
7 -2 7 11.193 8.196 2.692 233.754 o
7 -2 8 3.641 2.393 2.213 345.765 o
7 -2 9 12.702 13.101 3.231 162.329 o
7 -1 -6 37.334 42.715 5.623 53.571 o
7 -1 -5 38.333 42.655 5.623 53.571 o
7 -1 -4 54.279 51.030 5.683 52.449 o
7 -1 -3 31.722 33.262 4.726 75.846 o
7 -1 -2 28.994 23.391 4.008 105.447 o
7 -1 -1 63.378 56.893 5.564 54.729 o
7 -1 0 74.428 77.413 6.282 42.934 o
7 -1 1 60.819 57.371 5.504 55.925 o
7 -1 2 28.119 26.383 4.128 99.423 o
7 -1 3 8.699 6.820 2.572 256.005 o
7 -1 4 5.100 4.965 2.273 327.807 o
7 -1 5 51.551 54.081 5.085 65.516 o
7 -1 6 35.807 42.774 4.726 75.846 o
7 -1 7 7.225 6.700 2.513 268.341 o
7 -1 8 0.457 0.060 1.914 462.259 o
7 -1 9 5.211 5.803 2.513 268.341 o
7 -1 10 6.797 7.658 2.692 233.754 o
7 0 -6 60.156 64.550 6.461 40.582 o
7 0 -5 72.780 80.284 7.119 33.426 o
7 0 -4 59.548 64.012 6.162 44.618 o
7 0 -3 55.149 59.166 5.803 50.309 o
7 0 -2 31.216 34.339 4.606 79.837 o
7 0 -1 112.202 111.991 8.076 25.973 o
7 0 0 121.114 120.307 8.076 25.973 o
7 0 1 74.458 72.926 6.042 46.403 o
7 0 2 80.847 73.883 6.102 45.497 o
7 0 3 86.924 89.437 6.760 37.071 o
7 0 4 78.159 75.797 6.042 46.403 o
7 0 5 107.705 105.111 7.358 31.288 o
7 0 6 83.146 87.882 6.461 40.582 o
7 0 7 63.751 69.875 5.803 50.309 o
7 0 8 15.696 18.605 3.350 150.942 o
7 0 9 5.311 7.478 2.572 256.005 o
7 0 10 18.974 20.580 3.589 131.487 o
7 0 11 8.107 10.290 2.931 197.148 o
7 1 -6 28.278 32.843 5.205 62.538 o
7 1 -5 62.497 64.610 6.401 41.344 o
7 1 -4 45.638 44.330 5.324 59.759 o
7 1 -3 64.886 70.533 6.461 40.582 o
7 1 -2 58.384 56.534 5.623 53.571 o
7 1 -1 69.648 74.900 6.222 43.764 o
7 1 0 138.294 128.562 8.675 22.514 o
7 1 1 79.637 79.028 6.102 45.497 o
7 1 2 7.365 7.777 2.453 281.590 o
7 1 3 7.230 7.478 2.453 281.590 o
7 1 4 50.487 53.842 5.025 67.085 o
7 1 5 81.302 82.857 6.341 42.128 o
7 1 6 37.418 43.732 4.606 79.837 o
7 1 7 13.854 15.136 2.991 189.341 o
7 1 8 44.825 43.971 4.666 77.803 o
7 1 9 39.682 45.646 4.786 73.961 o
7 1 10 51.715 56.833 5.324 59.759 o
7 1 11 53.273 54.021 5.444 57.161 o
7 2 -6 33.676 34.219 5.205 62.538 o
7 2 -5 33.779 38.467 5.145 64.001 o
7 2 -4 61.103 62.995 6.102 45.497 o
7 2 -3 27.662 37.330 4.786 73.961 o
7 2 -2 45.601 46.723 5.205 62.538 o
7 2 -1 66.745 70.413 6.162 44.618 o
7 2 0 67.419 69.276 5.863 49.287 o
7 2 1 72.112 75.199 6.042 46.403 o
7 2 2 17.724 16.631 3.111 175.057 o
7 2 3 1.386 0.000 1.735 562.845 o
7 2 4 36.240 34.698 4.068 102.369 o
7 2 5 69.083 68.499 5.384 58.439 o
7 2 6 41.624 39.723 4.367 88.826 o
7 2 7 14.021 10.948 2.632 244.500 o
7 2 8 9.591 8.914 2.513 268.341 o
7 2 9 7.784 7.777 2.333 311.212 o
7 3 -6 24.304 22.015 4.248 93.901 o
7 3 -5 27.076 26.442 4.307 91.310 o
7 3 -4 52.590 56.534 5.743 51.362 o
7 3 -3 52.592 60.901 6.042 46.403 o
7 3 -2 86.110 96.142 5.443 57.186 o
7 3 -1 152.440 153.105 7.149 33.147 o
7 3 0 135.788 151.415 9.213 19.959 o
7 3 1 126.548 140.707 8.675 22.514 o
7 3 2 89.916 95.240 6.641 38.418 o
7 3 3 36.183 40.561 4.487 84.152 o
7 3 4 64.701 51.974 6.670 38.075 o
7 3 5 71.721 68.571 4.427 86.441 o
7 3 6 24.659 26.289 2.664 238.705 o
7 3 7 25.565 23.086 2.606 249.378 o
7 3 8 7.496 6.591 1.882 478.255 o
7 3 9 6.167 3.709 2.513 268.341 o
7 3 10 10.433 6.341 2.812 214.284 o
7 3 11 17.913 17.349 3.649 127.211 o
7 4 -5 18.271 18.204 2.546 261.256 o
7 4 -4 18.498 18.508 2.517 267.469 o
7 4 -3 32.507 35.178 3.211 164.298 o
7 4 -2 37.824 41.668 4.756 74.895 o
7 4 -1 86.725 88.928 4.663 77.921 o
7 4 0 106.515 105.445 5.136 64.212 o
7 4 1 136.983 139.274 6.090 45.682 o
7 4 2 152.100 162.144 7.029 34.285 o
7 4 3 121.837 124.828 5.563 54.750 o
7 4 4 143.996 143.524 6.218 43.817 o
7 4 5 184.360 191.398 7.738 28.292 o
7 4 6 69.837 72.262 4.489 84.089 o
7 4 7 40.025 39.364 4.786 73.961 o
7 4 8 12.725 11.127 3.111 175.057 o
7 4 9 13.452 11.666 3.231 162.329 o
7 4 10 17.505 16.990 3.769 119.262 o
7 4 11 12.199 10.589 3.410 145.692 o
7 5 -5 24.018 23.519 3.023 185.428 o
7 5 -4 38.057 42.505 3.697 123.955 o
7 5 -3 42.433 49.007 3.697 123.955 o
7 5 -2 36.855 40.673 3.358 150.234 o
7 5 -1 39.497 48.535 3.584 131.906 o
7 5 0 37.440 39.153 3.194 166.103 o
7 5 1 46.189 49.246 3.405 146.108 o
7 5 2 47.001 55.400 3.531 135.913 o
7 5 3 50.267 56.126 5.055 66.294 o
7 5 4 46.774 48.517 4.846 72.146 o
7 5 5 108.606 107.564 7.777 28.009 o
7 5 6 130.102 130.357 8.734 22.206 o
7 5 7 61.726 62.636 5.982 47.335 o
7 5 8 60.151 57.013 5.982 47.335 o
7 5 9 36.510 30.510 4.786 73.961 o
7 5 10 47.557 48.398 5.803 50.309 o
7 5 11 61.818 68.559 6.999 34.579 o
7 6 -3 17.683 19.533 2.665 238.525 o
7 6 -2 38.862 39.538 3.485 139.477 o
7 6 -1 29.308 29.739 3.045 182.726 o
7 6 0 22.501 20.403 2.580 254.422 o
7 6 1 31.404 28.280 3.000 188.249 o
7 6 2 51.567 48.458 5.145 64.001 o
7 6 3 16.845 16.272 3.231 162.329 o
7 6 4 25.022 25.306 4.008 105.447 o
7 6 5 70.342 63.773 5.863 49.287 o
7 6 6 117.516 128.263 8.675 22.514 o
7 6 7 62.823 61.798 6.042 46.403 o
7 6 8 41.065 38.407 5.265 61.125 o
7 6 9 51.242 52.227 5.982 47.335 o
7 6 10 23.835 26.921 4.606 79.837 o
7 7 -2 46.574 56.169 4.061 102.724 o
7 7 -1 71.034 81.685 5.432 57.407 o
7 7 0 43.437 43.193 5.205 62.538 o
7 7 1 52.049 58.448 5.982 47.335 o
7 7 2 80.716 91.711 7.299 31.803 o
7 7 3 50.721 49.594 5.504 55.925 o
7 7 4 29.107 24.468 4.188 96.603 o
7 7 5 26.792 22.853 4.068 102.369 o
7 7 6 38.402 34.698 5.085 65.516 o
7 7 7 28.302 27.220 4.666 77.803 o
7 7 8 20.921 24.468 4.307 91.310 o
7 8 1 45.909 49.056 5.743 51.362 o
7 8 2 42.546 44.689 5.384 58.439 o
7 8 3 38.251 38.826 5.145 64.001 o
7 8 4 31.051 26.562 4.726 75.846 o
7 8 5 57.513 55.995 6.162 44.618 o
7 8 6 38.874 37.809 5.265 61.125 o
8 -1 0 13.341 13.161 3.410 145.692 o
8 -1 1 23.830 25.186 4.367 88.826 o
8 -1 2 16.395 15.495 3.649 127.211 o
8 -1 3 20.029 26.921 4.427 86.441 o
8 -1 4 11.141 11.726 3.290 156.480 o
8 -1 5 22.027 25.964 4.367 88.826 o
8 0 -1 19.168 16.990 3.829 115.565 o
8 0 0 13.052 14.418 3.470 140.711 o
8 0 1 18.594 16.930 3.589 131.487 o
8 0 2 16.787 15.674 3.470 140.711 o
8 0 3 8.763 6.162 2.752 223.702 o
8 0 4 9.488 13.580 3.350 150.942 o
8 0 5 15.085 17.529 3.589 131.487 o
8 0 6 56.955 66.046 6.341 42.128 o
8 1 -2 12.768 14.059 3.649 127.211 o
8 1 -1 35.182 38.407 5.324 59.759 o
8 1 0 42.225 43.373 5.324 59.759 o
8 1 1 42.555 42.116 5.145 64.001 o
8 1 2 24.390 28.835 4.427 86.441 o
8 1 3 17.002 16.811 3.470 140.711 o
8 1 4 8.208 10.110 2.991 189.341 o
8 1 5 8.652 11.068 3.051 181.989 o
8 1 6 11.083 11.546 3.111 175.057 o
8 1 7 35.754 39.723 4.846 72.146 o
8 2 -2 1.548 5.504 2.872 205.448 o
8 2 -1 0.645 0.120 2.333 311.212 o
8 2 0 3.971 4.188 2.572 256.005 o
8 2 1 2.693 2.752 2.333 311.212 o
8 2 2 2.882 2.213 2.213 345.765 o
8 2 3 5.624 6.341 2.572 256.005 o
8 2 4 2.951 6.222 2.513 268.341 o
8 2 5 17.758 16.870 3.470 140.711 o
8 2 6 13.624 13.879 3.171 168.513 o
8 2 7 12.627 14.238 3.290 156.480 o
8 3 -1 34.309 37.390 5.205 62.538 o
8 3 0 25.302 26.083 4.367 88.826 o
8 3 1 9.483 9.213 2.991 189.341 o
8 3 2 4.785 4.606 2.513 268.341 o
8 3 3 6.316 4.367 2.453 281.590 o
8 3 4 9.071 12.683 3.051 181.989 o
8 3 5 6.170 8.914 2.812 214.284 o
8 3 6 18.136 15.495 3.231 162.329 o
8 4 0 72.103 78.549 6.880 35.792 o
8 4 1 37.395 36.373 4.906 70.397 o
8 4 2 23.785 26.682 4.307 91.310 o
8 4 3 31.613 31.049 4.666 77.803 o
8 4 4 20.147 21.178 3.709 123.141 o
8 5 2 41.487 44.020 4.081 101.707 o
8 5 3 39.046 36.852 5.743 51.362 o
8 5 4 33.553 33.861 5.504 55.925 o
8 5 5 17.465 14.956 3.829 115.565 o
;
_olex2_submission_special_instructions 'No special instructions were received'
loop_
_space_group_symop_id
_space_group_symop_operation_xyz
1 x,y,z
loop_
_atom_site_label
_atom_site_type_symbol
_atom_site_fract_x
_atom_site_fract_y
_atom_site_fract_z
_atom_site_U_iso_or_equiv
_atom_site_adp_type
_atom_site_occupancy
_atom_site_refinement_flags_posn
Co1 Co 0.82480(4) 0.42336(2) 1.134791(16) 0.01922(5) Uani 1.000000 D
N1 N 0.8037(3) 1.19317(15) 1.16262(12) 0.0284(3) Uani 1.000000 .
N2 N 0.8311(2) 0.66163(15) 1.10430(11) 0.0208(3) Uani 1.000000 .
H2 H 0.9647(2) 0.67888(15) 1.06921(11) 0.0250(3) Uiso 1.000000 R
N3 N 0.9542(3) 0.38733(17) 0.97306(12) 0.0324(4) Uani 1.000000 .
N4 N 1.1771(3) 0.18898(16) 0.61942(10) 0.0457(4) Uani 1.000000 .
H4 H 1.0437(3) 0.16199(16) 0.63125(10) 0.0548(4) Uiso 1.000000 R
O1 O 0.51505(19) 0.49804(12) 1.09702(9) 0.0291(3) Uani 1.000000 .
O2 O 0.29362(17) 0.69292(12) 1.04120(10) 0.0400(3) Uani 1.000000 .
O3 O 0.9411(2) 0.30446(18) 0.44837(10) 0.0573(4) Uani 1.000000 .
O4 O 1.2600(2) 0.35389(15) 0.35815(9) 0.0490(3) Uani 1.000000 .
O5 O 1.1283(2) 0.39616(14) 1.17792(9) 0.0312(3) Uani 1.000000 D
H5a H 1.237(2) 0.430(2) 1.1470(14) 0.0467(4) Uiso 1.000000 DR
H5b H 1.146(3) 0.389(2) 1.2418(11) 0.0467(4) Uiso 1.000000 DR
O6 O 0.6866(2) 0.42956(14) 1.29968(10) 0.0306(3) Uani 1.000000 .
H6a H 0.5693(2) 0.39021(14) 1.31255(10) 0.0367(3) Uiso 1.000000 R
H6b H 0.7753(2) 0.38521(14) 1.33623(10) 0.0459(4) Uiso 1.000000 R
C1 C 0.8441(3) 0.3154(2) 0.92121(14) 0.0443(4) Uani 1.000000 .
H1 H 0.7187(3) 0.2785(2) 0.95663(14) 0.0531(5) Uiso 1.000000 R
C2 C 1.1343(3) 0.4363(2) 0.92028(13) 0.0413(4) Uani 1.000000 .
H2a H 1.2153(3) 0.4845(2) 0.95512(13) 0.0496(5) Uiso 1.000000 R
C3 C 1.2080(3) 0.4197(2) 0.81716(14) 0.0494(5) Uani 1.000000 .
H3 H 1.3347(3) 0.4571(2) 0.78405(14) 0.0592(6) Uiso 1.000000 R
C4 C 1.0936(4) 0.3472(2) 0.76248(14) 0.0501(5) Uani 1.000000 .
C5 C 0.9078(4) 0.2932(2) 0.81762(15) 0.0557(5) Uani 1.000000 .
H5 H 0.8262(4) 0.2423(2) 0.78505(15) 0.0668(6) Uiso 1.000000 R
C6 C 1.1619(5) 0.3382(2) 0.64725(15) 0.0694(7) Uani 1.000000 .
H6c H 1.3030(5) 0.3730(2) 0.62593(15) 0.0833(9) Uiso 1.000000 R
H6d H 1.0569(5) 0.4022(2) 0.60941(15) 0.0833(9) Uiso 1.000000 R
C7 C 1.2687(3) 0.1812(2) 0.50924(12) 0.0383(4) Uani 1.000000 .
H7 H 1.4185(3) 0.2053(2) 0.49985(12) 0.0459(4) Uiso 1.000000 R
C8 C 1.1447(3) 0.28942(19) 0.43323(12) 0.0372(4) Uani 1.000000 .
C9 C 1.2828(3) 0.0236(2) 0.48458(12) 0.0446(4) Uani 1.000000 .
C10 C 1.4617(4) -0.0777(3) 0.50463(18) 0.0649(6) Uani 1.000000 .
H10 H 1.5734(4) -0.0482(3) 0.53251(18) 0.0779(7) Uiso 1.000000 R
C11 C 1.4783(5) -0.2201(3) 0.4845(2) 0.0830(8) Uani 1.000000 .
H11 H 1.6006(5) -0.2855(3) 0.4987(2) 0.0996(10) Uiso 1.000000 R
C12 C 1.3171(6) -0.2672(3) 0.44371(19) 0.0820(9) Uani 1.000000 .
H12 H 1.3289(6) -0.3642(3) 0.43032(19) 0.0983(10) Uiso 1.000000 R
C13 C 1.1366(5) -0.1693(3) 0.42267(18) 0.0722(7) Uani 1.000000 .
H13 H 1.0252(5) -0.2008(3) 0.39576(18) 0.0866(8) Uiso 1.000000 R
C14 C 1.1203(4) -0.0247(2) 0.44132(15) 0.0556(5) Uani 1.000000 .
H14 H 0.9999(4) 0.0410(2) 0.42492(15) 0.0667(6) Uiso 1.000000 R
C15 C 0.9868(3) 1.09936(17) 1.14073(14) 0.0374(4) Uani 1.000000 .
H15 H 1.1169(3) 1.13751(17) 1.11492(14) 0.0448(4) Uiso 1.000000 R
C16 C 0.9902(3) 0.94937(16) 1.15483(15) 0.0394(4) Uani 1.000000 .
H16 H 1.1205(3) 0.88860(16) 1.13834(15) 0.0472(5) Uiso 1.000000 R
C17 C 0.8000(3) 0.88928(15) 1.19345(11) 0.0281(3) Uani 1.000000 .
C18 C 0.6125(3) 0.98539(16) 1.21851(12) 0.0339(3) Uani 1.000000 .
H18 H 0.4813(3) 0.94972(16) 1.24602(12) 0.0406(4) Uiso 1.000000 R
C19 C 0.6215(3) 1.13508(16) 1.20238(14) 0.0353(3) Uani 1.000000 .
H19 H 0.4942(3) 1.19802(16) 1.22017(14) 0.0424(4) Uiso 1.000000 R
C20 C 0.7959(3) 0.72506(15) 1.20573(12) 0.0300(3) Uani 1.000000 .
H20a H 0.6557(3) 0.70364(15) 1.24427(12) 0.0360(4) Uiso 1.000000 R
H20b H 0.9085(3) 0.67766(15) 1.24640(12) 0.0360(4) Uiso 1.000000 R
C21 C 0.4744(2) 0.63263(15) 1.06094(11) 0.0251(3) Uani 1.000000 .
C22 C 0.6630(2) 0.72584(14) 1.03874(11) 0.0240(3) Uani 1.000000 .
H22 H 0.6047(2) 0.82355(14) 1.05915(11) 0.0288(3) Uiso 1.000000 R
C23 C 0.7557(3) 0.74408(17) 0.92334(12) 0.0323(3) Uani 1.000000 .
C24 C 0.9285(3) 0.8268(2) 0.89016(16) 0.0518(5) Uani 1.000000 .
H24 H 0.9857(3) 0.8683(2) 0.93878(16) 0.0621(6) Uiso 1.000000 R
C25 C 1.0158(4) 0.8478(3) 0.7860(2) 0.0744(7) Uani 1.000000 .
H25 H 1.1285(4) 0.9051(3) 0.7647(2) 0.0893(9) Uiso 1.000000 R
C26 C 0.9364(5) 0.7842(3) 0.71417(18) 0.0820(8) Uani 1.000000 .
H26 H 0.9988(5) 0.7953(3) 0.64448(18) 0.0984(10) Uiso 1.000000 R
C27 C 0.7669(5) 0.7049(3) 0.74447(17) 0.0794(8) Uani 1.000000 .
H27 H 0.7111(5) 0.6638(3) 0.69519(17) 0.0952(9) Uiso 1.000000 R
C28 C 0.6758(4) 0.6848(2) 0.84917(14) 0.0516(5) Uani 1.000000 .
H28 H 0.5593(4) 0.6305(2) 0.86903(14) 0.0619(6) Uiso 1.000000 R
loop_
_atom_site_aniso_label
_atom_site_aniso_U_11
_atom_site_aniso_U_22
_atom_site_aniso_U_33
_atom_site_aniso_U_12
_atom_site_aniso_U_13
_atom_site_aniso_U_23
Co1 0.02110(8) 0.01375(7) 0.02302(8) -0.00298(5) -0.00301(6) -0.00232(5)
N1 0.0323(8) 0.0191(7) 0.0335(8) -0.0034(7) -0.0028(7) -0.0046(6)
N2 0.0194(7) 0.0176(6) 0.0261(7) -0.0044(6) -0.0042(6) -0.0016(5)
N3 0.0397(9) 0.0293(7) 0.0292(8) -0.0048(6) -0.0043(6) -0.0072(6)
N4 0.0657(10) 0.0468(8) 0.0241(7) -0.0056(7) -0.0039(7) -0.0073(6)
O1 0.0231(5) 0.0258(6) 0.0384(6) -0.0076(4) -0.0036(5) 0.0004(5)
O2 0.0215(5) 0.0379(6) 0.0613(8) -0.0018(5) -0.0110(5) -0.0044(5)
O3 0.0371(7) 0.0853(11) 0.0419(7) -0.0006(7) -0.0045(6) 0.0102(7)
O4 0.0438(7) 0.0716(9) 0.0305(6) -0.0169(6) -0.0056(5) 0.0082(6)
O5 0.0259(6) 0.0389(7) 0.0287(6) -0.0107(5) -0.0064(5) 0.0061(5)
O6 0.0310(6) 0.0291(6) 0.0310(6) -0.0064(5) -0.0032(5) 0.0002(5)
C1 0.0536(11) 0.0474(10) 0.0360(9) -0.0185(8) -0.0025(8) -0.0114(8)
C2 0.0452(10) 0.0460(9) 0.0355(9) -0.0135(8) 0.0010(7) -0.0145(7)
C3 0.0557(12) 0.0536(11) 0.0376(9) -0.0167(9) 0.0090(8) -0.0101(8)
C4 0.0813(14) 0.0395(9) 0.0280(8) -0.0083(9) -0.0016(9) -0.0057(7)
C5 0.0827(15) 0.0562(12) 0.0374(10) -0.0267(11) -0.0113(10) -0.0155(8)
C6 0.126(2) 0.0499(11) 0.0314(10) -0.0224(13) 0.0049(12) -0.0101(9)
C7 0.0408(9) 0.0495(10) 0.0237(7) -0.0022(8) -0.0047(7) -0.0056(7)
C8 0.0385(9) 0.0494(10) 0.0236(7) -0.0043(7) -0.0025(6) -0.0075(7)
C9 0.0554(11) 0.0525(11) 0.0215(7) -0.0021(9) 0.0032(7) -0.0046(7)
C10 0.0710(15) 0.0661(14) 0.0559(13) 0.0099(12) -0.0163(11) -0.0136(11)
C11 0.105(2) 0.0616(15) 0.0718(17) 0.0224(15) -0.0097(16) -0.0119(13)
C12 0.135(3) 0.0615(15) 0.0437(12) -0.0151(17) 0.0067(15) -0.0065(11)
C13 0.103(2) 0.0696(15) 0.0502(13) -0.0345(15) -0.0033(13) -0.0139(11)
C14 0.0653(13) 0.0633(13) 0.0408(10) -0.0131(11) -0.0093(9) -0.0083(9)
C15 0.0301(8) 0.0251(7) 0.0571(11) -0.0075(6) 0.0004(7) -0.0092(7)
C16 0.0316(8) 0.0221(7) 0.0645(12) 0.0002(6) -0.0070(8) -0.0097(7)
C17 0.0383(8) 0.0188(6) 0.0293(7) -0.0049(6) -0.0092(6) -0.0045(5)
C18 0.0351(8) 0.0249(7) 0.0399(9) -0.0096(6) 0.0065(7) -0.0060(6)
C19 0.0323(8) 0.0224(7) 0.0490(9) -0.0019(6) 0.0028(7) -0.0090(6)
C20 0.0436(9) 0.0194(6) 0.0282(7) -0.0075(6) -0.0060(6) -0.0024(5)
C21 0.0219(7) 0.0267(7) 0.0269(7) -0.0034(5) -0.0019(5) -0.0060(5)
C22 0.0237(7) 0.0184(6) 0.0299(7) -0.0025(5) -0.0050(5) -0.0016(5)
C23 0.0314(8) 0.0310(7) 0.0312(8) -0.0020(6) -0.0057(6) 0.0067(6)
C24 0.0482(11) 0.0568(12) 0.0481(11) -0.0197(9) -0.0062(9) 0.0156(9)
C25 0.0650(15) 0.0855(17) 0.0596(14) -0.0203(13) 0.0072(12) 0.0302(13)
C26 0.0902(19) 0.100(2) 0.0375(12) -0.0048(16) 0.0123(12) 0.0210(13)
C27 0.112(2) 0.0937(19) 0.0338(11) -0.0179(17) -0.0115(13) -0.0044(12)
C28 0.0624(12) 0.0600(12) 0.0343(9) -0.0159(10) -0.0087(9) -0.0013(8)
loop_
_atom_type_symbol
_atom_type_scat_dispersion_real
_atom_type_scat_dispersion_imag
_atom_type_scat_Cromer_Mann_a1
_atom_type_scat_Cromer_Mann_a2
_atom_type_scat_Cromer_Mann_a3
_atom_type_scat_Cromer_Mann_a4
_atom_type_scat_Cromer_Mann_b1
_atom_type_scat_Cromer_Mann_b2
_atom_type_scat_Cromer_Mann_b3
_atom_type_scat_Cromer_Mann_b4
_atom_type_scat_Cromer_Mann_c
_atom_type_scat_source
_atom_type_scat_dispersion_source
H 0.00000 0.00000 0.49300 0.32291 0.14019 0.04081 10.51090 26.12570 3.14236
57.79970 0.0030380000826
'International Tables Volume C Table 6.1.1.4 (pp. 500-502)'
'Henke, Gullikson and Davis, At. Data and Nucl. Data Tables, 1993, 54, 2'
C 0.00347 0.00161 2.31000 1.02000 1.58860 0.86500 20.84390 10.20750 0.56870
51.65120 0.215599998832
'International Tables Volume C Table 6.1.1.4 (pp. 500-502)'
'Henke, Gullikson and Davis, At. Data and Nucl. Data Tables, 1993, 54, 2'
Co 0.35655 0.96576 12.28410 7.34090 4.00340 2.34880 4.27910 0.27840 13.53590
71.16920 1.01180005074
'International Tables Volume C Table 6.1.1.4 (pp. 500-502)'
'Henke, Gullikson and Davis, At. Data and Nucl. Data Tables, 1993, 54, 2'
O 0.01158 0.00611 3.04850 2.28680 1.54630 0.86700 13.27710 5.70110 0.32390
32.90890 0.250800013542
'International Tables Volume C Table 6.1.1.4 (pp. 500-502)'
'Henke, Gullikson and Davis, At. Data and Nucl. Data Tables, 1993, 54, 2'
N 0.00653 0.00323 12.21260 3.13220 2.01250 1.16630 0.00570 9.89330 28.99750
0.58260 -11.5290002823
'International Tables Volume C Table 6.1.1.4 (pp. 500-502)'
'Henke, Gullikson and Davis, At. Data and Nucl. Data Tables, 1993, 54, 2'
loop_
_diffrn_refln_index_h
_diffrn_refln_index_k
_diffrn_refln_index_l
_diffrn_refln_intensity_net
_diffrn_refln_intensity_u
-1 0 0 39103 1767
-1 0 0 40480 1740
1 0 0 41764 1740
1 0 0 41597 1747
-2 0 0 9553 414
-2 0 0 10150 404
2 0 0 8922 403
2 0 0 8907 408
-3 0 0 10944 516
-3 0 0 11199 501
3 0 0 12041 501
3 0 0 12303 511
-4 0 0 1551 99
-4 0 0 1559 79
4 0 0 1440 89
4 0 0 1334 76
-5 0 0 887 83
-5 0 0 881 60
5 0 0 1020 61
5 0 0 1030 77
-6 0 0 7346 362
6 0 0 7003 345
-7 0 0 1987 149
7 0 0 2011 135
-8 0 0 260 69
8 0 0 241 58
8 -1 0 220 57
-8 1 0 248 67
7 -1 0 1294 105
-7 1 0 1262 118
6 -1 0 1586 109
-6 1 0 1552 119
5 -1 0 1907 112
-5 1 0 1704 121
-5 1 0 1759 99
4 -1 0 562 34
4 -1 0 522 48
-4 1 0 347 53
3 -1 0 6724 276
3 -1 0 6602 289
3 -1 0 6487 284
-3 1 0 5608 294
2 -1 0 21845 952
2 -1 0 21965 954
2 -1 0 21844 956
-2 1 0 23729 963
1 -1 0 2915 139
1 -1 0 3314 139
0 -1 0 7029 306
-1 -1 0 49136 2160
-1 -1 0 48348 2212
-1 -1 0 49752 2143
1 1 0 50201 2113
1 1 0 51258 2130
-2 -1 0 6128 269
-2 -1 0 6284 263
-2 -1 0 6146 276
2 1 0 5897 270
-3 -1 0 27026 1191
-3 -1 0 27864 1184
3 1 0 27926 1183
-4 -1 0 4253 201
-4 -1 0 4333 224
4 1 0 4635 215
4 1 0 4637 207
-5 -1 0 45 17
-5 -1 0 33 30
5 1 0 84 30
-6 -1 0 1117 102
6 1 0 1335 94
6 1 0 1323 96
-7 -1 0 2327 160
7 1 0 2149 145
-8 -1 0 704 104
8 1 0 725 89
7 -2 0 1374 112
-7 2 0 1363 122
6 -2 0 1371 102
-6 2 0 1330 114
-6 2 0 1380 90
5 -2 0 870 77
-5 2 0 1162 93
4 -2 0 169 28
4 -2 0 149 32
-4 2 0 116 35
3 -2 0 5876 262
3 -2 0 5827 265
-3 2 0 5577 273
2 -2 0 5427 244
2 -2 0 5417 244
1 -2 0 48275 2022
-1 2 0 46123 1981
-1 2 0 45875 1980
-1 2 0 46549 2028
0 -2 0 56697 2487
0 -2 0 58766 2474
-1 -2 0 37044 1617
-1 -2 0 36165 1579
-1 -2 0 37244 1606
1 2 0 37318 1585
-2 -2 0 5267 236
-2 -2 0 5438 220
-2 -2 0 5217 231
2 2 0 4558 227
-3 -2 0 7931 343
-3 -2 0 8022 356
-3 -2 0 8055 365
3 2 0 8094 356
3 2 0 7808 354
-4 -2 0 4126 204
-4 -2 0 4524 231
4 2 0 4873 218
4 2 0 5006 222
-5 -2 0 278 52
5 2 0 279 36
5 2 0 297 46
-6 -2 0 326 63
6 2 0 415 58
6 2 0 391 45
-7 -2 0 1154 112
7 2 0 1158 98
-8 -2 0 10 40
8 2 0 70 43
7 -3 0 458 74
-7 3 0 398 79
6 -3 0 2098 137
-6 3 0 2051 149
-6 3 0 2113 125
5 -3 0 165 38
5 -3 0 94 29
-5 3 0 196 47
4 -3 0 809 67
4 -3 0 881 64
-4 3 0 803 76
3 -3 0 906 63
3 -3 0 907 61
2 -3 0 7589 343
2 -3 0 7799 345
-2 3 0 7769 350
1 -3 0 2509 122
1 -3 0 2496 125
-1 3 0 2736 129
-1 3 0 2700 116
0 -3 0 65776 2849
0 -3 0 65528 2848
0 -3 0 68149 2894
-1 -3 0 10957 492
-1 -3 0 11158 483
-1 -3 0 11720 489
1 3 0 11132 483
-2 -3 0 15951 670
-2 -3 0 15857 657
-2 -3 0 15098 673
2 3 0 14815 664
-3 -3 0 1783 104
-3 -3 0 1847 111
-3 -3 0 1797 88
3 3 0 2257 104
3 3 0 2246 106
-4 -3 0 3779 193
4 3 0 3587 179
4 3 0 3635 181
-5 -3 0 2077 140
5 3 0 2458 129
5 3 0 2400 131
-6 -3 0 408 63
6 3 0 303 50
6 3 0 296 45
-7 -3 0 2281 164
7 3 0 2531 154
-8 -3 0 526 88
8 3 0 436 73
7 -4 0 832 96
-7 4 0 744 104
6 -4 0 2621 165
-6 4 0 2825 159
-6 4 0 2816 184
5 -4 0 3018 166
5 -4 0 2993 161
-5 4 0 2780 176
4 -4 0 1637 102
4 -4 0 1699 105
-4 4 0 1755 117
3 -4 0 3113 164
3 -4 0 3131 163
-3 4 0 3531 178
2 -4 0 11079 513
2 -4 0 10872 516
-2 4 0 13149 526
1 -4 0 506 40
1 -4 0 464 34
0 -4 0 32788 1422
0 -4 0 32663 1403
0 -4 0 33423 1423
0 4 0 32649 1410
-1 -4 0 26493 1176
-1 -4 0 27636 1172
1 4 0 27950 1166
-2 -4 0 20490 857
-2 -4 0 19306 838
-2 -4 0 19396 850
2 4 0 19366 843
-3 -4 0 8898 381
-3 -4 0 9180 409
3 4 0 8738 393
3 4 0 8614 397
-4 -4 0 4778 249
4 4 0 5033 235
4 4 0 5019 238
-5 -4 0 3273 189
5 4 0 3291 175
5 4 0 3399 174
-6 -4 0 2443 160
6 4 0 2330 143
6 4 0 2508 142
-7 -4 0 1709 139
7 4 0 1750 124
7 4 0 1774 119
-8 -4 0 1392 133
8 4 0 1313 115
7 -5 0 465 76
-7 5 0 534 95
6 -5 0 1163 101
-6 5 0 1211 96
-6 5 0 1245 118
5 -5 0 1444 101
5 -5 0 1486 104
-5 5 0 1358 116
4 -5 0 899 72
4 -5 0 864 72
-4 5 0 811 81
3 -5 0 3769 189
3 -5 0 3711 191
-3 5 0 3795 201
2 -5 0 5959 283
2 -5 0 5710 277
-2 5 0 6147 261
-2 5 0 6350 291
1 -5 0 340 30
1 -5 0 410 39
-1 5 0 347 27
-1 5 0 275 36
0 -5 0 1980 96
0 -5 0 1991 109
0 -5 0 1996 102
0 5 0 1786 96
-1 -5 0 9089 434
1 5 0 9862 426
1 5 0 9956 420
-2 -5 0 436 34
-2 -5 0 426 47
2 5 0 579 44
2 5 0 574 38
-3 -5 0 4913 223
-3 -5 0 5058 250
3 5 0 5106 241
3 5 0 5087 233
-4 -5 0 2272 146
4 5 0 2615 134
4 5 0 2641 140
-5 -5 0 771 77
5 5 0 678 62
5 5 0 678 64
-6 -5 0 387 69
6 5 0 499 62
6 5 0 516 61
-7 -5 0 612 90
7 5 0 649 75
7 5 0 660 76
6 -6 0 896 94
-6 6 0 827 104
-6 6 0 953 90
5 -6 0 843 81
5 -6 0 764 79
-5 6 0 924 96
4 -6 0 1003 79
4 -6 0 970 79
-4 6 0 744 85
3 -6 0 3143 168
3 -6 0 3107 173
-3 6 0 3528 186
2 -6 0 7816 352
2 -6 0 7866 345
-2 6 0 6935 355
1 -6 0 4805 240
-1 6 0 5312 248
-1 6 0 4930 226
0 -6 0 1165 72
0 -6 0 1122 65
0 -6 0 1151 80
0 6 0 1063 66
-1 -6 0 7178 324
-1 -6 0 7048 338
-1 -6 0 7287 320
1 6 0 7205 327
2 6 0 1058 63
2 6 0 1107 72
-3 -6 0 1178 60
-3 -6 0 1236 88
3 6 0 919 73
3 6 0 920 66
4 6 0 44 25
4 6 0 50 24
-5 -6 0 1199 99
5 6 0 1065 81
5 6 0 1062 85
-6 -6 0 561 79
6 6 0 637 66
6 6 0 612 69
-7 -6 0 429 81
7 6 0 345 61
7 6 0 337 61
6 -7 0 271 59
6 -7 0 360 66
-6 7 0 331 75
-6 7 0 345 64
5 -7 0 780 83
5 -7 0 820 84
-5 7 0 867 99
4 -7 0 1478 101
4 -7 0 1375 103
-4 7 0 1313 115
3 -7 0 89 32
3 -7 0 103 31
2 -7 0 4105 225
2 -7 0 4327 220
-2 7 0 5198 241
1 -7 0 3105 156
1 -7 0 3182 166
-1 7 0 3217 173
-1 7 0 3032 150
0 -7 0 5088 253
0 -7 0 5004 242
0 -7 0 4979 233
0 7 0 5014 235
-1 -7 0 8342 382
-1 -7 0 8445 398
1 7 0 8574 384
1 7 0 8420 375
-2 -7 0 5375 265
-2 -7 0 5324 244
2 7 0 5173 242
2 7 0 5138 253
-3 -7 0 879 82
-3 -7 0 805 67
3 7 0 1070 76
3 7 0 1145 69
-4 -7 0 3485 209
4 7 0 3887 188
4 7 0 3884 200
-5 -7 0 605 79
5 7 0 618 62
5 7 0 561 68
-6 -7 0 786 95
6 7 0 748 76
6 7 0 692 79
-7 -7 0 862 106
7 7 0 722 87
5 -8 0 445 72
5 -8 0 451 69
-5 8 0 380 78
4 -8 0 529 63
4 -8 0 550 73
-4 8 0 468 77
3 -8 0 2052 121
3 -8 0 2017 129
-3 8 0 1766 133
2 -8 0 2162 123
2 -8 0 2155 133
-2 8 0 2202 141
1 -8 0 3766 183
1 -8 0 3617 193
-1 8 0 3649 201
0 -8 0 2847 164
0 -8 0 2771 153
0 -8 0 2716 142
0 8 0 2889 146
0 8 0 2902 162
-1 -8 0 1485 95
-1 -8 0 1472 109
1 8 0 1638 90
1 8 0 1779 100
-2 -8 0 6319 289
-2 -8 0 6143 312
2 8 0 6250 299
2 8 0 6145 285
-3 -8 0 2900 170
3 8 0 2741 157
3 8 0 2742 145
-4 -8 0 1099 102
4 8 0 1223 94
-5 -8 0 1064 104
5 8 0 1051 94
-6 -8 0 610 90
6 8 0 679 80
4 -9 0 737 88
4 -9 0 798 82
-4 9 0 888 104
3 -9 0 1680 126
3 -9 0 1874 120
-3 9 0 1975 141
2 -9 0 989 88
-2 9 0 1123 97
1 -9 0 2434 143
1 -9 0 2350 131
-1 9 0 2362 152
0 -9 0 3967 202
0 9 0 3803 211
0 9 0 3763 193
-1 -9 0 3960 201
-1 -9 0 3931 219
1 9 0 3911 201
-2 -9 0 2470 135
-2 -9 0 2469 159
2 9 0 2507 144
-3 -9 0 3018 181
3 9 0 2715 163
-4 -9 0 819 92
4 9 0 1146 91
-5 -9 0 1210 118
5 9 0 1125 100
-6 -9 0 923 111
6 9 0 844 96
3 -10 0 169 51
-3 10 0 142 53
2 -10 0 591 76
-2 10 0 580 78
1 -10 0 982 87
-1 10 0 983 95
0 -10 0 2147 131
0 10 0 1926 137
-1 -10 0 1503 100
-1 -10 0 1372 113
1 10 0 1351 97
-2 -10 0 1456 117
2 10 0 1399 103
-3 -10 0 1804 137
3 10 0 1582 117
-4 -10 0 233 57
4 10 0 224 51
-5 -10 0 394 79
5 10 0 580 77
2 -11 0 60 40
-2 11 0 182 56
1 -11 0 197 49
-1 11 0 251 59
0 -11 0 368 61
0 11 0 458 72
-1 -11 0 803 77
-1 -11 0 773 90
1 11 0 685 72
-2 -11 0 1166 111
2 11 0 1103 95
-3 -11 0 876 100
3 11 0 903 89
-4 -11 0 784 102
4 11 0 777 89
0 -12 0 590 79
0 12 0 610 85
-1 -12 0 85 45
1 12 0 49 38
-2 -12 0 485 84
2 12 0 451 72
2 12 -1 905 91
-2 -12 1 778 103
1 12 -1 416 72
0 12 -1 324 69
0 -12 1 383 64
4 11 -1 949 97
-4 -11 1 951 108
3 11 -1 857 87
-3 -11 1 721 93
2 11 -1 1725 122
-2 -11 1 1788 140
1 11 -1 773 79
-1 -11 1 1002 99
-1 -11 1 973 83
0 11 -1 897 93
0 -11 1 912 86
-1 11 -1 308 63
1 -11 1 275 54
-2 11 -1 909 99
2 -11 1 741 91
5 10 -1 964 93
-5 -10 1 658 94
-4 -10 1 269 63
3 10 -1 261 51
-3 -10 1 192 53
2 10 -1 1083 87
-2 -10 1 1065 100
1 10 -1 1107 88
-1 -10 1 1299 92
-1 -10 1 1381 111
0 10 -1 1183 101
0 -10 1 1288 95
-1 10 -1 923 89
1 -10 1 813 80
-2 10 -1 538 77
2 -10 1 553 71
-3 10 -1 259 63
3 -10 1 241 56
6 9 -1 523 79
-6 -9 1 587 94
5 9 -1 2154 144
-5 -9 1 2001 156
4 9 -1 663 74
-4 -9 1 601 78
3 9 -1 481 60
-3 -9 1 441 66
2 9 -1 3868 194
-2 -9 1 3496 206
-2 -9 1 3424 181
1 9 -1 4019 211
1 9 -1 3964 205
-1 -9 1 4328 211
-1 -9 1 4399 231
0 9 -1 2376 133
0 9 -1 2281 148
0 -9 1 2519 142
0 -9 1 2547 134
-1 9 -1 3959 219
1 -9 1 3789 199
1 -9 1 4093 211
-2 9 -1 1243 103
2 -9 1 1259 90
2 -9 1 1126 94
-3 9 -1 1489 120
3 -9 1 1294 100
3 -9 1 1380 109
-4 9 -1 818 96
4 -9 1 607 82
4 -9 1 629 76
6 8 -1 578 79
-6 -8 1 519 89
5 8 -1 1166 97
-5 -8 1 1044 104
4 8 -1 2135 123
4 8 -1 2107 133
-4 -8 1 2032 145
3 8 -1 1679 113
3 8 -1 1689 104
-3 -8 1 2105 131
2 8 -1 3981 196
2 8 -1 3906 185
-2 -8 1 3594 205
-2 -8 1 3511 182
1 8 -1 2061 115
1 8 -1 2009 109
-1 -8 1 1917 126
-1 -8 1 1916 112
0 8 -1 763 61
0 8 -1 711 70
0 -8 1 1019 65
0 -8 1 965 71
0 -8 1 994 80
-1 8 -1 3393 193
1 -8 1 3718 190
-2 8 -1 3242 182
2 -8 1 3136 176
2 -8 1 3124 167
-3 8 -1 1933 138
3 -8 1 2183 128
3 -8 1 2132 135
-4 8 -1 1003 99
4 -8 1 901 82
4 -8 1 831 87
-5 8 -1 496 88
5 -8 1 470 75
5 -8 1 484 74
7 7 -1 1395 117
7 7 -1 1318 144
-7 -7 1 1395 134
6 7 -1 786 80
6 7 -1 742 81
-6 -7 1 993 102
5 7 -1 1107 90
5 7 -1 1123 85
-5 -7 1 961 97
4 7 -1 2361 139
4 7 -1 2299 129
-4 -7 1 2218 146
3 7 -1 879 62
3 7 -1 875 68
-3 -7 1 656 73
2 7 -1 3723 179
2 7 -1 3647 186
-2 -7 1 3655 197
-2 -7 1 3662 176
1 7 -1 5078 238
1 7 -1 5096 243
-1 -7 1 5210 239
-1 -7 1 5074 241
-1 -7 1 5178 257
0 7 -1 6645 317
0 -7 1 7191 335
0 -7 1 7217 319
0 -7 1 6886 323
-1 7 -1 481 52
-1 7 -1 442 37
1 -7 1 320 49
1 -7 1 323 41
-2 7 -1 3022 165
2 -7 1 2818 158
2 -7 1 2768 151
-3 7 -1 3 25
3 -7 1 61 27
3 -7 1 40 28
-4 7 -1 432 69
4 -7 1 510 66
4 -7 1 552 65
-5 7 -1 1039 105
5 -7 1 972 93
5 -7 1 1043 93
-6 7 -1 389 79
-6 7 -1 524 77
6 -7 1 502 81
7 6 -1 543 73
7 6 -1 444 71
-7 -6 1 544 88
6 6 -1 1066 93
6 6 -1 1105 91
-6 -6 1 1212 110
5 6 -1 1009 80
5 6 -1 1008 82
-5 -6 1 955 91
4 6 -1 573 56
4 6 -1 531 53
-4 -6 1 470 61
-3 -6 1 1221 85
-3 -6 1 1248 91
2 6 -1 2659 152
-2 -6 1 3321 166
-2 -6 1 3470 173
-2 -6 1 3334 152
-1 -6 1 5406 255
-1 -6 1 5500 263
-1 -6 1 5360 248
-1 6 -1 8641 420
-1 6 -1 8832 404
1 -6 1 9640 413
1 -6 1 9774 419
2 -6 1 181 32
2 -6 1 165 34
-3 6 -1 1030 83
3 -6 1 885 72
3 -6 1 922 76
4 -6 1 350 54
4 -6 1 373 52
-5 6 -1 852 90
5 -6 1 633 72
5 -6 1 582 74
-6 6 -1 580 72
-6 6 -1 527 91
6 -6 1 642 78
7 5 -1 843 89
7 5 -1 783 81
-7 -5 1 810 103
6 5 -1 694 71
6 5 -1 642 71
-6 -5 1 728 86
5 5 -1 693 67
5 5 -1 734 67
-5 -5 1 826 81
4 5 -1 3335 164
4 5 -1 3336 168
-4 -5 1 2957 167
-4 -5 1 3020 177
3 5 -1 3239 162
-3 -5 1 3254 146
-3 -5 1 3305 175
-3 -5 1 3283 169
-2 -5 1 1215 64
-2 -5 1 1205 81
1 5 -1 4270 208
-1 -5 1 4544 220
-1 -5 1 4918 217
0 -5 1 326 28
-1 5 -1 18897 830
1 -5 1 19269 826
1 -5 1 19018 815
1 -5 1 18855 821
-2 5 -1 7305 350
-2 5 -1 7446 325
2 -5 1 7799 347
2 -5 1 7625 343
-3 5 -1 9779 450
3 -5 1 9763 440
3 -5 1 9518 441
-4 5 -1 791 82
4 -5 1 1032 79
4 -5 1 1103 80
-5 5 -1 651 78
5 -5 1 564 66
5 -5 1 520 64
-6 5 -1 375 57
-6 5 -1 405 80
6 -5 1 336 61
-7 5 -1 253 69
-7 5 -1 271 57
7 -5 1 248 60
7 4 -1 1523 115
7 4 -1 1454 106
-7 -4 1 1414 128
6 4 -1 2552 154
6 4 -1 2762 152
-6 -4 1 2622 171
5 4 -1 2165 125
5 4 -1 2144 127
-5 -4 1 2198 141
4 4 -1 6957 317
-4 -4 1 6969 333
-4 -4 1 6601 320
3 4 -1 3408 168
-3 -4 1 3595 181
-3 -4 1 3412 173
2 4 -1 9707 413
-2 -4 1 8913 422
-2 -4 1 9390 404
-2 -4 1 9527 419
1 4 -1 16182 698
-1 -4 1 16645 704
-1 -4 1 15704 706
-1 -4 1 16333 696
0 -4 1 34802 1720
0 -4 1 41737 1728
0 -4 1 42040 1735
0 -4 1 41179 1726
-1 4 -1 19203 861
1 -4 1 20033 856
1 -4 1 20387 859
1 -4 1 19970 850
-2 4 -1 5942 312
2 -4 1 7227 310
2 -4 1 7305 313
-3 4 -1 5053 251
3 -4 1 5188 243
3 -4 1 5037 243
-4 4 -1 2374 146
4 -4 1 2487 136
4 -4 1 2386 134
-5 4 -1 1262 105
-5 4 -1 1327 93
5 -4 1 1376 98
5 -4 1 1411 95
-6 4 -1 2466 147
-6 4 -1 2508 168
6 -4 1 2338 151
-7 4 -1 596 96
7 -4 1 649 83
8 3 -1 625 87
-8 -3 1 758 101
7 3 -1 2680 162
7 3 -1 2441 153
-7 -3 1 2567 175
6 3 -1 2632 147
6 3 -1 2632 155
-6 -3 1 2637 170
5 3 -1 4045 209
5 3 -1 4106 203
-5 -3 1 4123 222
4 3 -1 3057 149
-4 -3 1 2675 146
-4 -3 1 2728 156
3 3 -1 6004 271
-3 -3 1 5954 281
-3 -3 1 5812 273
2 3 -1 12229 589
-2 -3 1 14343 600
-2 -3 1 13648 595
-2 -3 1 14324 580
1 3 -1 13458 569
-1 -3 1 13026 575
-1 -3 1 12955 572
-1 -3 1 13444 566
0 -3 1 16122 697
0 -3 1 16432 702
0 -3 1 16296 698
0 -3 1 16250 698
-1 3 -1 12983 553
1 -3 1 12225 550
1 -3 1 12852 542
1 -3 1 12698 549
-2 3 -1 5732 260
2 -3 1 5584 256
2 -3 1 5514 255
-3 3 -1 6006 259
3 -3 1 4877 246
3 -3 1 4982 246
-4 3 -1 2392 149
4 -3 1 2691 142
4 -3 1 2717 139
-5 3 -1 736 79
-5 3 -1 720 61
-6 3 -1 1148 106
-6 3 -1 1172 88
6 -3 1 1225 96
-7 3 -1 189 58
7 -3 1 220 54
8 2 -1 2 39
-8 -2 1 47 48
7 2 -1 1177 103
-7 -2 1 1296 118
6 2 -1 359 57
6 2 -1 297 39
-6 -2 1 315 62
5 2 -1 2428 140
5 2 -1 2617 134
-5 -2 1 2509 153
4 2 -1 1149 77
-4 -2 1 1135 72
-4 -2 1 1160 85
-3 -2 1 84 25
-3 -2 1 115 21
2 2 -1 7171 341
-2 -2 1 8052 348
-2 -2 1 8090 344
1 2 -1 3784 166
-1 -2 1 3771 168
-1 -2 1 3480 169
-1 -2 1 3822 161
0 -2 1 14217 602
0 -2 1 14289 602
0 -2 1 14263 606
0 -2 1 13533 603
-1 2 -1 84249 3617
1 -2 1 82248 3604
1 -2 1 84254 3566
1 -2 1 85009 3615
-2 2 -1 21286 899
2 -2 1 21021 894
2 -2 1 20125 893
-3 2 -1 5293 250
3 -2 1 5190 243
3 -2 1 5214 241
-4 2 -1 2450 141
-4 2 -1 2365 126
4 -2 1 2452 131
-5 2 -1 225 36
-5 2 -1 213 47
-6 2 -1 595 78
6 -2 1 756 75
-7 2 -1 462 78
7 -2 1 571 79
8 1 -1 642 89
-8 -1 1 514 92
7 1 -1 1252 104
-7 -1 1 1260 116
6 1 -1 2910 160
6 1 -1 2826 173
-6 -1 1 2340 164
5 1 -1 177 29
5 1 -1 149 36
4 1 -1 5205 235
-4 -1 1 4673 225
-4 -1 1 4819 243
-4 -1 1 4786 216
3 1 -1 20272 857
-3 -1 1 19327 852
-3 -1 1 19815 865
-3 -1 1 19867 843
2 1 -1 13903 569
-2 -1 1 12826 573
-2 -1 1 12938 567
-2 -1 1 12951 558
1 1 -1 18549 823
-1 -1 1 19821 828
-1 -1 1 19594 847
0 -1 1 21346 912
0 -1 1 21053 915
0 -1 1 21530 919
1 -1 1 10048 430
1 -1 1 9734 430
1 -1 1 10220 429
-2 1 -1 6269 284
2 -1 1 6049 279
2 -1 1 6310 278
2 -1 1 6606 271
-3 1 -1 36159 1566
-3 1 -1 39040 1588
3 -1 1 34368 1554
-4 1 -1 4614 221
4 -1 1 4144 193
4 -1 1 4214 209
-5 1 -1 2144 117
-5 1 -1 2078 136
5 -1 1 2287 128
-6 1 -1 878 88
-6 1 -1 845 67
6 -1 1 970 81
-7 1 -1 1040 107
7 -1 1 959 92
-8 1 -1 413 82
8 -1 1 421 73
8 0 -1 284 64
-8 0 1 341 77
7 0 -1 1872 135
-7 0 1 2091 152
6 0 -1 3182 180
-6 0 1 3223 193
5 0 -1 3809 198
5 0 -1 3868 182
-5 0 1 3879 181
-5 0 1 3768 209
4 0 -1 7977 373
-4 0 1 7982 359
-4 0 1 8431 362
-4 0 1 8303 384
3 0 -1 6728 307
3 0 -1 6682 297
-3 0 1 6829 300
-3 0 1 6959 316
2 0 -1 3546 159
2 0 -1 3523 151
-2 0 1 3135 152
-2 0 1 3436 163
1 0 -1 49773 2072
1 0 -1 48658 2082
-1 0 1 46846 2103
-1 0 1 49197 2081
0 0 -1 38833 1711
0 0 1 39360 1713
0 0 1 42146 1710
-1 0 -1 98604 4708
-1 0 -1 100000 4161
1 0 1 93124 4664
-2 0 -1 29629 1238
2 0 1 26882 1198
2 0 1 27469 1198
-3 0 -1 6266 285
-3 0 -1 6321 297
3 0 1 6541 291
3 0 1 6614 283
-4 0 -1 8180 383
-4 0 -1 8642 368
4 0 1 8097 374
4 0 1 8167 364
-5 0 -1 2824 163
-5 0 -1 2778 140
5 0 1 2648 150
5 0 1 2873 137
-6 0 -1 7155 353
6 0 1 6910 337
-7 0 -1 1241 113
7 0 1 1219 101
-8 0 -1 328 73
8 0 1 283 60
7 -1 -1 951 93
-7 1 1 991 107
6 -1 -1 1770 123
-6 1 1 2060 139
5 -1 -1 3075 156
-5 1 1 2666 138
-5 1 1 2508 161
4 -1 -1 365 45
4 -1 -1 317 26
4 -1 -1 324 34
3 -1 -1 10512 449
3 -1 -1 10328 456
-3 1 1 10473 465
-3 1 1 9853 443
2 -1 -1 4531 221
2 -1 -1 4425 223
-2 1 1 5533 233
-2 1 1 5446 217
1 -1 -1 1659 80
1 -1 -1 1594 79
-1 1 1 1671 84
-1 1 1 1827 75
0 -1 -1 64942 2860
0 -1 -1 64644 2784
0 -1 -1 64024 2774
0 1 1 65431 2855
0 1 1 66161 2772
-1 -1 -1 11850 479
1 1 1 10772 476
1 1 1 10751 474
-2 -1 -1 13679 624
-2 -1 -1 14259 616
2 1 1 14861 619
2 1 1 14834 618
-3 -1 -1 2915 130
-3 -1 -1 2874 144
3 1 1 2595 135
-4 -1 -1 5011 231
-4 -1 -1 4802 209
4 1 1 4185 210
4 1 1 4314 217
-5 -1 -1 284 34
-5 -1 -1 285 52
5 1 1 362 48
5 1 1 386 38
-6 -1 -1 1345 106
6 1 1 1218 92
6 1 1 1200 83
-7 -1 -1 1182 111
7 1 1 1321 102
-8 -1 -1 831 103
8 1 1 704 86
7 -2 -1 1344 112
-7 2 1 1292 121
6 -2 -1 853 81
-6 2 1 827 93
5 -2 -1 933 78
5 -2 -1 1017 69
-5 2 1 1033 91
4 -2 -1 1250 81
4 -2 -1 1141 59
4 -2 -1 1239 73
-4 2 1 969 86
3 -2 -1 7431 330
3 -2 -1 7261 311
3 -2 -1 7264 325
-3 2 1 7100 338
2 -2 -1 2192 102
2 -2 -1 2074 101
-2 2 1 1817 107
1 -2 -1 6543 298
1 -2 -1 6385 295
-1 2 1 7491 304
-1 2 1 6783 291
0 -2 -1 26341 1182
0 -2 -1 27128 1184
0 -2 -1 26846 1199
0 2 1 30405 1200
1 2 1 2442 114
1 2 1 2490 109
-2 -2 -1 7874 317
-2 -2 -1 7584 329
2 2 1 6884 322
2 2 1 6979 319
-3 -2 -1 14002 624
-3 -2 -1 14438 608
3 2 1 14175 615
3 2 1 14060 614
-4 -2 -1 2415 127
-4 -2 -1 2209 101
4 2 1 1764 105
4 2 1 1834 109
5 2 1 538 48
5 2 1 566 56
-6 -2 -1 1019 98
6 2 1 1243 81
6 2 1 1263 91
-7 -2 -1 1226 114
7 2 1 1257 101
-8 -2 -1 62 46
8 2 1 46 39
7 -3 -1 313 62
-7 3 1 366 75
6 -3 -1 1603 116
-6 3 1 1691 133
5 -3 -1 864 75
5 -3 -1 843 68
-5 3 1 992 91
4 -3 -1 829 66
4 -3 -1 804 62
-4 3 1 810 78
3 -3 -1 756 56
3 -3 -1 795 55
-3 3 1 701 64
2 -3 -1 995 61
2 -3 -1 957 59
-2 3 1 1022 67
1 -3 -1 2706 120
-1 3 1 2211 109
0 -3 -1 19022 823
0 -3 -1 19639 830
0 -3 -1 19161 828
0 3 1 19023 820
-1 -3 -1 25082 1091
1 3 1 25501 1085
1 3 1 25656 1082
-2 -3 -1 2404 101
-2 -3 -1 2495 116
2 3 1 1999 102
2 3 1 1834 106
-3 -3 -1 3656 172
-3 -3 -1 3597 191
3 3 1 4078 185
3 3 1 4177 182
-4 -3 -1 3074 150
-4 -3 -1 3038 176
4 3 1 3653 166
4 3 1 3609 167
-5 -3 -1 243 47
5 3 1 143 33
5 3 1 152 31
6 3 1 393 49
6 3 1 357 53
-7 -3 -1 2107 155
7 3 1 2352 145
-8 -3 -1 191 60
8 3 1 154 50
7 -4 -1 533 78
-7 4 1 347 78
6 -4 -1 2889 173
6 -4 -1 2824 164
-6 4 1 3012 193
5 -4 -1 1703 113
5 -4 -1 1663 107
-5 4 1 1720 126
4 -4 -1 2388 137
4 -4 -1 2329 134
-4 4 1 2616 153
3 -4 -1 2341 125
3 -4 -1 2324 124
-3 4 1 2213 135
2 -4 -1 10495 461
2 -4 -1 10430 465
-2 4 1 10439 472
1 -4 -1 3923 194
-1 4 1 4355 183
-1 4 1 4114 199
0 -4 -1 26209 1153
0 -4 -1 26179 1146
0 -4 -1 26655 1143
0 4 1 28096 1150
-1 -4 -1 45685 2039
-1 -4 -1 47627 2049
1 4 1 48232 2019
1 4 1 48308 2028
-2 -4 -1 12099 545
-2 -4 -1 12310 529
2 4 1 12511 530
2 4 1 12192 538
-3 -4 -1 5503 244
-3 -4 -1 5494 266
3 4 1 5545 258
3 4 1 5641 252
-4 -4 -1 6297 309
-4 -4 -1 6126 276
4 4 1 6500 292
4 4 1 6413 296
-5 -4 -1 802 80
5 4 1 969 72
5 4 1 929 70
-6 -4 -1 1475 114
6 4 1 1272 94
6 4 1 1301 94
-7 -4 -1 2221 162
7 4 1 2298 142
7 4 1 2359 146
-8 -4 -1 745 100
8 4 1 608 82
6 -5 -1 1184 103
6 -5 -1 1221 99
-6 5 1 1413 126
5 -5 -1 3245 177
5 -5 -1 3280 180
-5 5 1 3055 195
4 -5 -1 1141 84
4 -5 -1 1158 84
-4 5 1 1215 99
3 -5 -1 4663 235
3 -5 -1 4792 232
-3 5 1 5020 249
2 -5 -1 1316 87
2 -5 -1 1397 82
-2 5 1 1574 97
1 -5 -1 361 39
1 -5 -1 334 31
-1 5 1 424 29
0 -5 -1 12738 571
0 -5 -1 12750 562
0 -5 -1 13283 580
0 5 1 13425 567
-1 -5 -1 4260 205
-1 -5 -1 4189 192
1 5 1 4012 185
1 5 1 4119 194
-2 -5 -1 11003 501
-2 -5 -1 10773 482
2 5 1 11210 491
2 5 1 11304 480
-3 -5 -1 10209 458
-3 -5 -1 10623 485
3 5 1 10780 465
3 5 1 10713 475
-4 -5 -1 5862 306
4 5 1 6418 297
4 5 1 6462 289
5 5 1 457 51
5 5 1 478 53
-6 -5 -1 103 43
6 5 1 137 38
6 5 1 146 39
-7 -5 -1 634 91
7 5 1 831 80
7 5 1 815 81
6 -6 -1 1062 99
6 -6 -1 1097 99
-6 6 1 1185 120
5 -6 -1 1723 121
5 -6 -1 1776 120
-5 6 1 1794 138
4 -6 -1 1109 88
4 -6 -1 1173 85
-4 6 1 1034 97
3 -6 -1 1575 94
3 -6 -1 1432 97
-3 6 1 1355 104
2 -6 -1 6726 308
2 -6 -1 6804 317
-2 6 1 6577 323
1 -6 -1 2739 136
1 -6 -1 2874 127
-1 6 1 2255 138
-1 6 1 2167 118
0 -6 -1 3108 147
0 -6 -1 3035 166
0 -6 -1 3187 158
0 6 1 3194 152
-1 -6 -1 12191 553
-1 -6 -1 11793 538
1 6 1 12393 530
1 6 1 12578 540
-2 -6 -1 3890 192
-2 -6 -1 3905 173
2 6 1 3218 177
2 6 1 3445 167
-3 -6 -1 4961 242
-3 -6 -1 4812 213
3 6 1 4395 227
3 6 1 4493 216
-4 -6 -1 1496 108
4 6 1 1483 88
4 6 1 1409 96
-5 -6 -1 640 75
5 6 1 713 62
5 6 1 673 66
-6 -6 -1 193 54
6 6 1 270 46
6 6 1 328 55
-7 -6 -1 578 87
7 6 1 508 73
7 6 1 436 69
6 -7 -1 312 60
6 -7 -1 374 65
-6 7 1 358 79
5 -7 -1 862 86
5 -7 -1 811 83
-5 7 1 794 98
4 -7 -1 2176 137
4 -7 -1 2169 132
-4 7 1 2089 150
3 -7 -1 680 62
3 -7 -1 602 66
-3 7 1 836 81
2 -7 -1 620 61
1 -7 -1 731 66
1 -7 -1 741 55
-1 7 1 964 76
0 -7 -1 3878 190
0 -7 -1 3846 178
0 -7 -1 3880 201
0 7 1 3554 182
-1 -7 -1 9741 457
-1 -7 -1 9617 441
1 7 1 9892 431
1 7 1 10096 443
-2 -7 -1 4643 223
-2 -7 -1 4504 201
2 7 1 3815 192
2 7 1 3784 205
-3 -7 -1 5760 292
-3 -7 -1 5753 265
3 7 1 5802 281
3 7 1 5906 266
-4 -7 -1 3791 224
4 7 1 4289 201
4 7 1 4322 217
-5 -7 -1 1452 117
5 7 1 1437 99
5 7 1 1422 105
-6 -7 -1 576 82
6 7 1 482 68
-7 -7 -1 978 112
7 7 1 977 100
5 -8 -1 785 85
5 -8 -1 776 87
-5 8 1 652 96
4 -8 -1 1487 106
4 -8 -1 1617 116
-4 8 1 1406 127
3 -8 -1 1071 89
3 -8 -1 1101 81
-3 8 1 942 95
2 -8 -1 3239 182
2 -8 -1 3399 170
-2 8 1 3226 189
1 -8 -1 1385 85
1 -8 -1 1485 99
-1 8 1 1446 106
0 -8 -1 1484 83
0 -8 -1 1547 96
0 8 1 1365 100
0 8 1 1397 87
-1 -8 -1 3602 207
-1 -8 -1 3771 193
1 8 1 3976 194
1 8 1 3999 183
-2 -8 -1 2408 130
-2 -8 -1 2505 152
2 8 1 2429 139
-3 -8 -1 5279 267
-3 -8 -1 5257 268
3 8 1 4579 250
-4 -8 -1 6292 324
4 8 1 6126 308
-5 -8 -1 1049 103
5 8 1 1107 94
-6 -8 -1 459 80
6 8 1 481 75
-7 -8 -1 702 105
7 8 1 820 96
4 -9 -1 1689 129
4 -9 -1 1737 123
-4 9 1 1841 147
3 -9 -1 2465 153
3 -9 -1 2179 141
-3 9 1 2381 164
2 -9 -1 1051 91
-2 9 1 1217 102
1 -9 -1 2052 130
-1 9 1 2017 138
0 -9 -1 2235 130
0 9 1 2005 135
0 9 1 2009 118
-1 -9 -1 2531 142
-1 -9 -1 2438 158
1 9 1 2611 144
-2 -9 -1 2512 164
2 9 1 2746 152
-3 -9 -1 4034 222
3 9 1 3571 203
-4 -9 -1 1495 123
4 9 1 1655 116
-5 -9 -1 1294 120
5 9 1 1207 104
-6 -9 -1 1464 135
6 9 1 1449 122
3 -10 -1 975 97
-3 10 1 976 106
2 -10 -1 486 70
-2 10 1 622 81
1 -10 -1 761 79
-1 10 1 866 89
0 -10 -1 1830 122
0 10 1 1846 132
-1 -10 -1 2048 125
-1 -10 -1 2008 142
1 10 1 1937 123
-2 -10 -1 475 71
2 10 1 451 61
-3 -10 -1 2614 170
3 10 1 2188 148
-4 -10 -1 520 78
4 10 1 425 69
-5 -10 -1 279 68
5 10 1 347 65
2 -11 -1 187 53
-2 11 1 251 63
1 -11 -1 374 63
0 -11 -1 528 67
0 11 1 391 68
-1 -11 -1 1192 96
-1 -11 -1 1136 111
1 11 1 1355 111
1 11 1 1325 98
-2 -11 -1 329 68
2 11 1 305 55
-3 -11 -1 898 100
3 11 1 783 86
-4 -11 -1 491 85
4 11 1 482 74
0 -12 -1 367 64
0 12 1 227 61
-1 -12 -1 260 54
1 12 1 259 62
-2 -12 -1 153 57
2 12 1 262 56
-3 -12 -1 875 108
3 12 1 711 87
1 12 -2 706 90
4 11 -2 1150 107
-4 -11 2 1188 121
3 11 -2 1060 95
-3 -11 2 926 103
2 11 -2 1074 91
-2 -11 2 892 101
1 11 -2 994 86
-1 -11 2 1060 102
0 11 -2 1055 99
0 -11 2 1148 96
-1 11 -2 889 95
1 -11 2 833 89
-2 11 -2 1027 106
2 -11 2 957 97
5 10 -2 341 63
-5 -10 2 211 62
4 10 -2 93 40
-4 -10 2 200 56
3 10 -2 89 37
-3 -10 2 191 54
2 10 -2 68 31
-2 -10 2 28 34
1 10 -2 657 65
-1 -10 2 636 78
-1 -10 2 559 62
0 10 -2 839 85
0 -10 2 1046 84
-1 10 -2 205 50
1 -10 2 261 50
-2 10 -2 715 85
2 -10 2 816 86
2 -10 2 752 74
-3 10 -2 293 65
3 -10 2 404 66
3 -10 2 399 66
5 9 -2 1579 122
-5 -9 2 1582 137
4 9 -2 254 52
-4 -9 2 158 49
3 9 -2 1005 82
3 9 -2 1006 107
-3 -9 2 760 85
2 9 -2 846 67
2 9 -2 883 73
-2 -9 2 727 80
1 9 -2 996 71
1 9 -2 930 73
-1 -9 2 842 71
-1 -9 2 852 84
0 9 -2 3113 175
0 9 -2 2867 157
0 -9 2 3042 165
-1 9 -2 2969 172
1 -9 2 2844 157
1 -9 2 2781 163
-2 9 -2 1356 105
2 -9 2 1206 100
2 -9 2 1195 92
-3 9 -2 593 76
3 -9 2 591 66
3 -9 2 567 74
-4 9 -2 663 92
4 -9 2 681 80
4 -9 2 597 84
6 8 -2 707 85
-6 -8 2 796 99
5 8 -2 2765 169
5 8 -2 2980 163
-5 -8 2 2615 180
4 8 -2 3071 167
4 8 -2 2912 173
-4 -8 2 3219 191
3 8 -2 1731 116
3 8 -2 1849 112
-3 -8 2 2035 130
2 8 -2 3690 178
-2 -8 2 3522 188
-2 -8 2 3389 195
-2 -8 2 3448 172
1 8 -2 845 63
1 8 -2 829 65
-1 -8 2 865 64
-1 -8 2 906 70
-1 -8 2 950 80
0 8 -2 1675 96
0 -8 2 1443 95
0 -8 2 1729 103
0 -8 2 1734 112
-1 8 -2 3438 196
1 -8 2 3757 187
1 -8 2 3799 193
-2 8 -2 3300 191
2 -8 2 3586 183
2 -8 2 3471 188
-3 8 -2 2310 150
3 -8 2 2310 139
3 -8 2 2317 145
4 -8 2 576 69
4 -8 2 671 78
-5 8 -2 394 67
-5 8 -2 325 71
5 -8 2 302 60
7 7 -2 919 96
7 7 -2 958 96
-7 -7 2 849 112
6 7 -2 559 74
6 7 -2 600 75
-6 -7 2 753 90
5 7 -2 1972 126
5 7 -2 1991 131
-5 -7 2 2098 145
4 7 -2 2328 132
4 7 -2 2311 138
-4 -7 2 2399 144
-4 -7 2 2205 147
3 7 -2 1068 74
-3 -7 2 1010 87
-3 -7 2 999 81
2 7 -2 6554 304
-2 -7 2 6624 298
-2 -7 2 6550 321
-2 -7 2 6640 315
1 7 -2 1344 75
-1 -7 2 933 69
0 -7 2 1464 87
0 -7 2 1413 96
0 -7 2 1449 90
-1 7 -2 5816 283
-1 7 -2 5574 264
1 -7 2 5858 279
1 -7 2 6007 275
-2 7 -2 1735 114
2 -7 2 1778 107
2 -7 2 1830 113
-3 7 -2 795 77
3 -7 2 849 72
3 -7 2 805 75
-4 7 -2 2468 159
4 -7 2 2391 147
4 -7 2 2532 153
-5 7 -2 1285 104
-5 7 -2 1256 114
5 -7 2 1220 103
-6 7 -2 139 57
-6 7 -2 220 54
6 -7 2 230 57
7 6 -2 638 80
7 6 -2 685 85
-7 -6 2 768 102
6 6 -2 412 63
6 6 -2 423 61
5 6 -2 2627 148
5 6 -2 2553 145
-5 -6 2 2149 153
4 6 -2 1769 107
-4 -6 2 1781 120
-4 -6 2 1660 112
3 6 -2 700 58
-3 -6 2 747 68
-3 -6 2 658 63
2 6 -2 450 43
-2 -6 2 544 55
-2 -6 2 494 50
-2 -6 2 527 39
-1 -6 2 7041 330
-1 -6 2 6602 315
-1 -6 2 7171 325
-1 -6 2 7275 320
0 -6 2 2580 135
0 -6 2 2656 134
0 -6 2 2568 133
0 -6 2 2664 142
-1 6 -2 949 74
1 -6 2 1241 68
1 -6 2 1186 74
1 -6 2 1196 78
-2 6 -2 6470 322
2 -6 2 6768 316
2 -6 2 7143 321
-3 6 -2 2776 168
3 -6 2 3168 168
3 -6 2 3197 164
-4 6 -2 538 68
4 -6 2 717 69
4 -6 2 682 69
-5 6 -2 1014 89
-5 6 -2 1075 102
5 -6 2 914 86
-6 6 -2 395 76
-6 6 -2 438 66
6 -6 2 418 68
7 5 -2 708 82
7 5 -2 653 77
-7 -5 2 676 97
6 5 -2 848 78
6 5 -2 877 83
-6 -5 2 899 95
5 5 -2 2011 120
5 5 -2 1937 118
-5 -5 2 1692 117
-5 -5 2 1855 132
4 5 -2 7167 328
-4 -5 2 6781 333
-4 -5 2 7104 344
3 5 -2 3446 166
-3 -5 2 3155 175
-3 -5 2 3281 171
2 5 -2 7269 315
-2 -5 2 6919 320
-2 -5 2 6609 323
-2 -5 2 6861 303
1 5 -2 9438 430
-1 -5 2 9725 435
-1 -5 2 9813 440
-1 -5 2 9916 432
-1 -5 2 9882 428
0 -5 2 2117 113
0 -5 2 2038 108
0 -5 2 2040 107
0 -5 2 2098 107
-1 5 -2 4650 217
1 -5 2 4545 215
1 -5 2 4352 211
1 -5 2 4472 206
-2 5 -2 13290 580
2 -5 2 12949 574
2 -5 2 13008 577
2 -5 2 12712 558
-3 5 -2 5980 278
3 -5 2 5448 270
3 -5 2 5396 267
4 -5 2 420 55
4 -5 2 470 55
-5 5 -2 1294 106
-5 5 -2 1301 97
5 -5 2 1254 97
-6 5 -2 157 53
-6 5 -2 126 40
6 -5 2 148 45
-7 5 -2 290 72
-7 5 -2 225 55
7 -5 2 269 61
7 4 -2 782 87
7 4 -2 623 72
-7 -4 2 640 92
6 4 -2 2039 127
6 4 -2 1992 132
-6 -4 2 2146 148
5 4 -2 1565 109
-5 -4 2 1792 111
-5 -4 2 1874 125
4 4 -2 7338 330
-4 -4 2 6842 331
-4 -4 2 7019 341
3 4 -2 1984 108
-3 -4 2 1969 111
-3 -4 2 1882 115
2 4 -2 7659 319
-2 -4 2 6972 306
-2 -4 2 6829 324
-2 -4 2 6801 321
1 4 -2 20923 903
-1 -4 2 21161 909
-1 -4 2 21174 898
-1 -4 2 20761 906
0 -4 2 15257 656
0 -4 2 15110 660
0 -4 2 15265 655
0 -4 2 15000 656
-1 4 -2 27682 1223
1 -4 2 29380 1224
1 -4 2 28823 1215
1 -4 2 28158 1221
-2 4 -2 26983 1158
2 -4 2 27188 1155
2 -4 2 26259 1139
2 -4 2 26878 1156
-3 4 -2 16083 722
3 -4 2 16669 717
3 -4 2 16116 716
-4 4 -2 631 67
4 -4 2 714 63
4 -4 2 680 62
-5 4 -2 4405 238
-5 4 -2 4614 226
5 -4 2 4129 226
-6 4 -2 1451 104
-6 4 -2 1520 121
6 -4 2 1384 109
-7 4 -2 383 63
-7 4 -2 426 84
7 -4 2 389 68
7 3 -2 1597 121
7 3 -2 1620 138
-7 -3 2 1309 124
6 3 -2 2425 138
6 3 -2 2278 144
-6 -3 2 2516 162
5 3 -2 1433 98
-5 -3 2 1406 107
-5 -3 2 1431 94
4 3 -2 8540 382
-4 -3 2 8358 381
-4 -3 2 8060 391
3 3 -2 74 21
-3 -3 2 24 16
-3 -3 2 44 21
2 3 -2 14803 592
2 3 -2 14897 608
-2 -3 2 13164 611
-2 -3 2 12926 608
1 3 -2 15836 656
-1 -3 2 15481 649
-1 -3 2 14645 656
-1 -3 2 14788 658
0 -3 2 9210 400
0 -3 2 9095 399
0 -3 2 9178 399
-1 3 -2 10313 469
1 -3 2 11061 463
1 -3 2 10768 470
1 -3 2 10909 470
-2 3 -2 6653 309
2 -3 2 6744 293
2 -3 2 6989 307
2 -3 2 6824 308
-3 3 -2 3488 193
3 -3 2 4254 193
3 -3 2 4094 192
-4 3 -2 1390 90
-4 3 -2 1414 100
4 -3 2 1599 95
-5 3 -2 779 64
-5 3 -2 747 77
5 -3 2 775 70
-6 3 -2 1988 123
-6 3 -2 1936 138
6 -3 2 1904 128
-7 3 -2 285 65
7 -3 2 280 58
8 2 -2 92 48
-8 -2 2 45 48
7 2 -2 781 87
-7 -2 2 806 97
6 2 -2 897 83
-6 -2 2 994 95
5 2 -2 2923 166
-5 -2 2 3157 179
-5 -2 2 3055 159
4 2 -2 3034 156
-4 -2 2 3095 166
-4 -2 2 2829 151
-3 -2 2 68 19
-3 -2 2 124 28
2 2 -2 7542 331
-2 -2 2 7127 330
-2 -2 2 7627 335
1 2 -2 8383 365
1 2 -2 8400 358
-1 -2 2 8281 366
0 -2 2 2128 100
0 -2 2 2236 100
0 -2 2 2115 101
0 -2 2 2139 100
-1 2 -2 41453 2017
1 -2 2 37151 1644
1 -2 2 37600 1630
1 -2 2 36711 1637
-2 2 -2 17762 826
2 -2 2 19690 826
2 -2 2 19028 825
2 -2 2 20199 817
-3 2 -2 4939 221
-3 2 -2 5067 227
3 -2 2 4423 204
3 -2 2 4401 220
-4 2 -2 1766 108
-4 2 -2 1757 119
4 -2 2 2263 95
4 -2 2 2233 116
-5 2 -2 73 34
-5 2 -2 50 23
5 -2 2 50 26
-6 2 -2 592 60
-6 2 -2 544 73
6 -2 2 625 68
-7 2 -2 141 50
7 -2 2 165 48
8 1 -2 235 61
-8 -1 2 264 73
7 1 -2 945 94
-7 -1 2 1020 106
6 1 -2 1143 90
-6 -1 2 896 94
5 1 -2 670 65
-5 -1 2 691 55
4 1 -2 5923 268
-4 -1 2 5450 245
-4 -1 2 5475 275
-4 -1 2 5556 259
3 1 -2 3596 182
-3 -1 2 3815 190
-3 -1 2 4031 180
2 1 -2 4037 158
2 1 -2 4073 172
-2 -1 2 3381 168
-2 -1 2 3160 173
1 1 -2 34405 1437
1 1 -2 36198 1442
-1 -1 2 32424 1461
-1 -1 2 31882 1463
0 -1 2 3531 160
0 -1 2 3631 157
0 -1 2 3706 161
-1 1 -2 7173 308
-1 1 -2 7143 306
1 -1 2 7023 304
1 -1 2 6904 307
-2 1 -2 40947 1782
-2 1 -2 42478 1819
2 -1 2 40757 1783
2 -1 2 42200 1801
-3 1 -2 27291 1170
-3 1 -2 26641 1162
3 -1 2 27316 1154
3 -1 2 27285 1166
-4 1 -2 1463 82
-4 1 -2 1401 93
4 -1 2 1320 86
4 -1 2 1437 73
-5 1 -2 249 34
5 -1 2 393 50
-6 1 -2 270 43
-6 1 -2 215 50
6 -1 2 260 50
-7 1 -2 528 77
7 -1 2 441 69
-8 1 -2 322 72
8 -1 2 259 61
7 0 -2 574 77
-7 0 2 615 88
6 0 -2 5472 274
-6 0 2 5291 288
5 0 -2 3543 188
5 0 -2 3398 170
-5 0 2 3770 201
4 0 -2 11700 517
4 0 -2 11532 532
-4 0 2 12299 524
-4 0 2 12268 546
3 0 -2 7253 324
3 0 -2 7219 336
-3 0 2 7481 329
-3 0 2 7876 347
2 0 -2 3744 160
2 0 -2 3842 151
-2 0 2 2838 152
-2 0 2 3108 162
1 0 -2 55530 2456
1 0 -2 56831 2472
-1 0 2 60613 2483
-1 0 2 57477 2498
0 0 -2 15901 680
0 0 -2 16164 688
0 0 2 15742 680
0 0 2 16279 689
0 0 2 15113 674
-1 0 -2 32113 1381
-1 0 -2 31016 1392
1 0 2 32986 1383
1 0 2 32046 1375
-2 0 -2 13005 570
-2 0 -2 13371 568
2 0 2 12891 568
2 0 2 13451 565
-3 0 -2 20342 915
-3 0 -2 21401 924
3 0 2 21968 913
3 0 2 21651 919
-4 0 -2 5927 278
-4 0 -2 6514 295
4 0 2 6111 284
4 0 2 6017 274
-5 0 -2 9284 406
-5 0 -2 8892 424
5 0 2 8817 413
5 0 2 9090 400
-6 0 -2 3071 156
-6 0 -2 3013 179
6 0 2 2856 165
-7 0 -2 1334 114
7 0 2 1235 102
-8 0 -2 294 69
8 0 2 262 58
7 -1 -2 391 67
-7 1 2 609 89
6 -1 -2 2038 132
-6 1 2 2016 143
5 -1 -2 5945 269
5 -1 -2 6092 287
-5 1 2 5543 297
4 -1 -2 6638 312
4 -1 -2 6897 301
-4 1 2 6567 297
-4 1 2 6653 324
3 -1 -2 13198 574
3 -1 -2 12941 581
-3 1 2 13491 571
-3 1 2 13415 592
2 -1 -2 2254 121
2 -1 -2 2290 117
-2 1 2 3007 116
1 -1 -2 412 29
1 -1 -2 381 27
-1 1 2 559 35
0 -1 -2 12153 520
0 -1 -2 12277 520
0 1 2 12276 531
0 1 2 11918 520
-1 -1 -2 37916 1553
-1 -1 -2 36500 1543
1 1 2 34233 1520
1 1 2 33815 1526
-2 -1 -2 5888 282
2 1 2 6454 278
2 1 2 6615 277
-3 -1 -2 17394 764
-3 -1 -2 17735 754
3 1 2 17501 757
-4 -1 -2 7169 323
-4 -1 -2 7039 338
4 1 2 7455 325
4 1 2 7329 330
-5 -1 -2 687 53
-5 -1 -2 675 70
5 1 2 802 55
5 1 2 798 65
-6 -1 -2 1561 116
6 1 2 1540 94
6 1 2 1652 106
-7 -1 -2 88 45
7 1 2 130 41
-8 -1 -2 372 76
8 1 2 482 74
7 -2 -2 800 89
-7 2 2 803 99
6 -2 -2 376 61
-6 2 2 403 72
5 -2 -2 2032 123
5 -2 -2 2011 112
-5 2 2 1990 137
4 -2 -2 2123 122
4 -2 -2 2120 113
-4 2 2 2110 134
-4 2 2 2194 101
3 -2 -2 10204 437
3 -2 -2 10130 441
-3 2 2 9303 449
-3 2 2 9912 425
2 -2 -2 3374 155
2 -2 -2 3283 156
-2 2 2 3445 166
-2 2 2 3173 146
1 -2 -2 10901 453
-1 2 2 10123 447
-1 2 2 10303 457
0 -2 -2 34241 1484
0 -2 -2 33664 1511
0 -2 -2 33685 1521
0 2 2 37735 1513
-1 -2 -2 1858 82
-1 -2 -2 1746 86
1 2 2 1586 82
1 2 2 1639 75
-2 -2 -2 6744 316
-2 -2 -2 6644 307
2 2 2 7344 312
2 2 2 7475 307
-3 -2 -2 7873 341
-3 -2 -2 8077 329
3 2 2 6987 330
3 2 2 6867 331
-4 -2 -2 10941 480
-4 -2 -2 10620 460
4 2 2 10260 465
4 2 2 10219 466
-5 -2 -2 79 32
-5 -2 -2 81 22
5 2 2 31 24
5 2 2 22 19
-6 -2 -2 966 94
6 2 2 1124 85
6 2 2 1092 75
-7 -2 -2 281 61
7 2 2 278 52
-8 -2 -2 68 46
8 2 2 37 37
7 -3 -2 319 62
-7 3 2 380 81
6 -3 -2 600 71
6 -3 -2 613 79
-6 3 2 504 81
5 -3 -2 1070 75
5 -3 -2 1042 83
-5 3 2 1043 96
4 -3 -2 3858 186
4 -3 -2 3813 181
-4 3 2 3160 194
3 -3 -2 8427 381
3 -3 -2 8036 380
-3 3 2 8911 396
2 -3 -2 197 25
2 -3 -2 199 26
-2 3 2 164 30
-2 3 2 152 14
1 -3 -2 2773 132
1 -3 -2 2728 127
-1 3 2 2761 125
0 -3 -2 11064 503
0 -3 -2 11619 508
0 -3 -2 11121 494
0 3 2 12617 501
-1 -3 -2 12783 561
-1 -3 -2 12773 554
1 3 2 13215 546
1 3 2 12677 556
-2 -3 -2 2080 93
-2 -3 -2 1928 103
2 3 2 1819 90
2 3 2 1891 98
-3 -3 -2 8942 419
-3 -3 -2 8881 402
3 3 2 9747 413
3 3 2 9442 406
-4 -3 -2 5347 269
-4 -3 -2 5406 247
4 3 2 5820 259
4 3 2 5470 255
-5 -3 -2 1147 89
5 3 2 968 73
5 3 2 1038 73
-6 -3 -2 302 58
6 3 2 324 50
6 3 2 337 48
-7 -3 -2 1460 124
7 3 2 1592 111
-8 -3 -2 72 47
8 3 2 77 42
7 -4 -2 228 58
-7 4 2 257 70
6 -4 -2 2426 145
6 -4 -2 2476 157
-6 4 2 2583 177
5 -4 -2 863 75
5 -4 -2 783 69
-5 4 2 803 87
4 -4 -2 3910 200
4 -4 -2 4001 203
-4 4 2 4123 221
3 -4 -2 7561 342
3 -4 -2 7384 339
-3 4 2 7326 355
2 -4 -2 4792 234
2 -4 -2 4808 231
-2 4 2 5261 245
-2 4 2 5200 218
1 -4 -2 1049 55
1 -4 -2 1050 62
-1 4 2 883 64
-1 4 2 916 51
0 -4 -2 53942 2370
0 -4 -2 55051 2341
0 -4 -2 56835 2396
0 4 2 52940 2358
-1 -4 -2 18813 880
1 4 2 21744 884
1 4 2 21028 871
-2 -4 -2 12904 563
-2 -4 -2 12468 548
2 4 2 12567 544
2 4 2 12799 556
-3 -4 -2 6370 290
-3 -4 -2 6512 310
3 4 2 6674 302
3 4 2 6742 293
-4 -4 -2 9835 431
-4 -4 -2 10040 459
4 4 2 9939 447
4 4 2 9817 439
-5 -4 -2 2167 140
5 4 2 2265 128
5 4 2 2223 123
-6 -4 -2 1399 111
6 4 2 1220 91
6 4 2 1230 89
-7 -4 -2 2335 171
7 4 2 2590 154
7 4 2 2825 157
-8 -4 -2 549 91
8 4 2 446 72
6 -5 -2 1092 100
6 -5 -2 1180 96
-6 5 2 1194 120
5 -5 -2 1972 126
5 -5 -2 1970 123
-5 5 2 1898 144
4 -5 -2 1780 107
4 -5 -2 1745 107
-4 5 2 1468 117
3 -5 -2 5225 249
3 -5 -2 5431 255
-3 5 2 5039 265
2 -5 -2 7482 355
2 -5 -2 7480 348
-2 5 2 8016 336
-2 5 2 8020 366
1 -5 -2 604 38
-1 5 2 468 47
-1 5 2 433 34
0 -5 -2 2883 127
0 -5 -2 2792 139
0 -5 -2 2645 145
0 5 2 2762 133
-1 -5 -2 9987 450
-1 -5 -2 9880 438
1 5 2 9829 426
1 5 2 10021 439
-2 -5 -2 6616 323
-2 -5 -2 6762 308
2 5 2 7117 302
2 5 2 7178 317
-3 -5 -2 6352 317
-3 -5 -2 6872 296
3 5 2 6651 296
3 5 2 6692 309
-4 -5 -2 11689 551
-4 -5 -2 11704 521
4 5 2 12315 530
4 5 2 12388 541
-5 -5 -2 960 89
5 5 2 1000 72
5 5 2 1077 80
-6 -5 -2 452 69
6 5 2 358 54
6 5 2 419 53
-7 -5 -2 744 95
7 5 2 927 82
7 5 2 925 85
-8 -5 -2 690 100
8 5 2 784 88
8 5 2 648 108
6 -6 -2 925 93
6 -6 -2 841 88
-6 6 2 821 109
5 -6 -2 1214 95
5 -6 -2 1184 96
-5 6 2 1197 116
4 -6 -2 152 37
4 -6 -2 115 35
-4 6 2 159 48
3 -6 -2 7685 363
3 -6 -2 8034 357
-3 6 2 7332 372
2 -6 -2 3263 167
-2 6 2 3050 174
1 -6 -2 5315 240
1 -6 -2 5198 226
-1 6 2 4695 223
-1 6 2 4486 242
0 -6 -2 1917 93
0 -6 -2 1882 106
0 -6 -2 1838 114
0 6 2 1907 99
-1 -6 -2 9921 448
-1 -6 -2 9814 461
1 6 2 10353 436
1 6 2 10174 449
-2 -6 -2 2180 141
2 6 2 2706 121
2 6 2 2794 137
-3 -6 -2 5992 258
-3 -6 -2 5985 284
3 6 2 5355 270
3 6 2 5332 254
-4 -6 -2 6459 328
4 6 2 6650 302
4 6 2 6794 318
-5 -6 -2 772 81
5 6 2 785 62
5 6 2 802 73
-6 -6 -2 522 77
6 6 2 464 56
6 6 2 477 63
-7 -6 -2 893 104
7 6 2 810 86
5 -7 -2 1233 102
5 -7 -2 1207 100
-5 7 2 1206 121
4 -7 -2 1488 102
4 -7 -2 1465 106
-4 7 2 1325 119
3 -7 -2 231 45
3 -7 -2 171 35
2 -7 -2 1272 92
2 -7 -2 1298 82
-2 7 2 1367 101
1 -7 -2 430 51
1 -7 -2 461 40
0 -7 -2 705 46
0 -7 -2 714 68
0 -7 -2 653 59
0 7 2 763 66
0 7 2 720 53
-1 -7 -2 5761 273
-1 -7 -2 5884 288
1 7 2 5869 259
1 7 2 5729 272
-2 -7 -2 4142 212
2 7 2 3854 179
2 7 2 3797 197
-3 -7 -2 667 69
-3 -7 -2 657 50
-4 -7 -2 2637 161
4 7 2 2513 149
-5 -7 -2 2442 166
5 7 2 2793 159
6 7 2 190 48
-7 -7 -2 1539 139
7 7 2 1533 122
5 -8 -2 509 72
5 -8 -2 435 72
-5 8 2 447 85
4 -8 -2 1833 127
4 -8 -2 1849 119
-4 8 2 1609 138
3 -8 -2 742 64
-3 8 2 848 89
2 -8 -2 3361 186
2 -8 -2 3315 171
-2 8 2 3443 196
1 -8 -2 1400 97
1 -8 -2 1411 82
-1 8 2 1371 104
0 -8 -2 873 67
0 8 2 613 66
0 8 2 736 56
-1 -8 -2 2036 120
-1 -8 -2 1951 133
1 8 2 2386 123
-2 -8 -2 5122 244
-2 -8 -2 5265 268
2 8 2 4885 250
-3 -8 -2 2839 168
-3 -8 -2 2746 140
3 8 2 2489 152
-4 -8 -2 5410 287
4 8 2 5372 274
-5 -8 -2 2052 151
5 8 2 2146 141
-6 -8 -2 125 50
6 8 2 34 35
-7 -8 -2 744 105
7 8 2 747 90
4 -9 -2 1274 113
-4 9 2 1513 134
3 -9 -2 2261 150
-3 9 2 2408 165
2 -9 -2 2018 134
-2 9 2 1998 141
1 -9 -2 1762 118
-1 9 2 1670 124
0 -9 -2 689 69
0 9 2 833 79
0 9 2 762 62
-1 -9 -2 1841 134
-1 -9 -2 1957 119
1 9 2 2077 119
-2 -9 -2 3466 185
-2 -9 -2 3418 206
2 9 2 3909 195
-3 -9 -2 1375 112
3 9 2 1283 99
-4 -9 -2 1616 127
4 9 2 1536 115
-5 -9 -2 2173 160
5 9 2 2269 149
-6 -9 -2 1007 113
6 9 2 831 96
3 -10 -2 1251 112
-3 10 2 1388 126
2 -10 -2 791 86
-2 10 2 843 94
1 -10 -2 1937 135
-1 10 2 2129 148
0 -10 -2 851 80
0 10 2 732 82
-1 -10 -2 1062 85
-1 -10 -2 1075 101
1 10 2 1023 82
-2 -10 -2 678 83
-2 -10 -2 681 66
2 10 2 762 73
-3 -10 -2 1332 117
3 10 2 1224 101
-4 -10 -2 392 73
4 10 2 443 68
-5 -10 -2 796 101
5 10 2 885 92
2 -11 -2 109 46
-2 11 2 200 61
1 -11 -2 68 40
-1 11 2 242 59
0 -11 -2 554 72
0 11 2 746 86
-1 -11 -2 668 75
-1 -11 -2 626 85
1 11 2 743 76
1 11 2 791 87
-2 -11 -2 870 81
-2 -11 -2 884 101
2 11 2 946 86
-3 -11 -2 406 76
3 11 2 411 65
-4 -11 -2 205 62
4 11 2 157 50
0 -12 -2 479 76
0 12 2 535 84
-1 -12 -2 41 37
1 12 2 104 47
-2 -12 -2 361 76
2 12 2 337 61
-3 -12 -2 1006 115
3 12 2 958 97
3 11 -3 1190 104
-3 -11 3 1217 115
2 11 -3 969 87
-2 -11 3 783 95
1 11 -3 559 66
-1 -11 3 538 80
0 11 -3 365 65
0 -11 3 404 61
-1 11 -3 1077 103
1 -11 3 1106 100
2 -11 3 809 91
4 10 -3 315 61
-4 -10 3 454 77
3 10 -3 267 52
-3 -10 3 352 68
2 10 -3 541 64
-2 -10 3 534 75
1 10 -3 440 56
-1 -10 3 613 73
-1 -10 3 400 52
0 10 -3 476 65
0 -10 3 625 67
0 -10 3 552 60
-1 10 -3 218 50
1 -10 3 298 50
1 -10 3 299 52
-2 10 -3 850 92
2 -10 3 1016 86
2 -10 3 1005 92
-3 10 -3 487 97
3 -10 3 686 88
3 -10 3 686 80
5 9 -3 1217 103
-5 -9 3 1020 113
4 9 -3 508 69
4 9 -3 437 63
-4 -9 3 548 74
3 9 -3 1065 88
3 9 -3 1071 84
-3 -9 3 1046 95
2 9 -3 452 51
-2 -9 3 322 57
-2 -9 3 317 55
1 9 -3 2186 128
-1 -9 3 2223 134
-1 -9 3 2242 142
0 9 -3 1558 113
0 9 -3 1558 101
0 -9 3 1861 112
0 -9 3 1850 110
-1 9 -3 973 84
1 -9 3 862 78
1 -9 3 927 77
-2 9 -3 1345 109
2 -9 3 1525 109
2 -9 3 1516 104
-3 9 -3 703 83
3 -9 3 808 87
3 -9 3 834 81
-4 9 -3 828 89
-4 9 -3 766 95
4 -9 3 816 84
6 8 -3 978 96
6 8 -3 1028 100
-6 -8 3 1051 114
5 8 -3 3338 193
5 8 -3 3369 187
-5 -8 3 3264 207
4 8 -3 1122 89
-4 -8 3 1130 95
-4 -8 3 1070 99
3 8 -3 3369 178
-3 -8 3 3319 192
-3 -8 3 3344 188
2 8 -3 2990 155
-2 -8 3 2823 163
-2 -8 3 2839 168
1 8 -3 3785 180
-1 -8 3 3232 181
-1 -8 3 3406 190
0 8 -3 1888 122
0 -8 3 2051 118
0 -8 3 2108 120
0 -8 3 2086 127
-1 8 -3 4193 214
1 -8 3 3930 208
1 -8 3 3944 205
-2 8 -3 4039 219
2 -8 3 4183 213
2 -8 3 4105 216
-3 8 -3 2444 160
3 -8 3 2719 162
3 -8 3 2897 159
-4 8 -3 325 63
-4 8 -3 490 67
4 -8 3 262 54
-5 8 -3 183 59
-5 8 -3 171 49
5 -8 3 71 41
6 7 -3 592 76
6 7 -3 547 75
-6 -7 3 676 88
5 7 -3 1521 110
5 7 -3 1460 111
-5 -7 3 1715 121
-5 -7 3 1759 129
4 7 -3 3456 188
-4 -7 3 3592 204
-4 -7 3 3564 197
3 7 -3 3344 179
-3 -7 3 3363 186
-3 -7 3 3610 195
2 7 -3 4685 225
-2 -7 3 4689 233
-2 -7 3 4541 237
-2 -7 3 4556 215
1 7 -3 2347 123
-1 -7 3 2148 126
-1 -7 3 2228 132
-1 -7 3 2162 118
0 -7 3 5112 247
0 -7 3 5142 247
0 -7 3 5304 256
0 -7 3 5102 247
-1 7 -3 3098 182
1 -7 3 3687 184
1 -7 3 3704 174
1 -7 3 3669 181
-2 7 -3 7667 353
2 -7 3 7274 350
2 -7 3 7139 345
-3 7 -3 3027 179
3 -7 3 3267 179
3 -7 3 3338 176
-4 7 -3 1596 121
-4 7 -3 1722 118
4 -7 3 1612 114
-5 7 -3 1069 98
-5 7 -3 1216 110
5 -7 3 1064 97
-6 7 -3 68 42
-6 7 -3 99 54
6 -7 3 70 43
7 6 -3 350 63
7 6 -3 299 63
-7 -6 3 378 79
6 6 -3 399 62
6 6 -3 401 63
-6 -6 3 368 69
5 6 -3 2600 151
-5 -6 3 2499 156
-5 -6 3 2579 165
-4 -6 3 384 56
-4 -6 3 364 52
3 6 -3 340 45
-3 -6 3 328 48
-3 -6 3 341 50
-2 -6 3 484 51
-2 -6 3 487 54
-1 -6 3 1574 91
-1 -6 3 1564 86
-1 -6 3 1566 97
-1 -6 3 1465 92
0 -6 3 1072 71
0 -6 3 1046 69
0 -6 3 1123 76
0 -6 3 1101 72
-1 6 -3 450 45
1 -6 3 385 43
1 -6 3 388 47
1 -6 3 408 38
-2 6 -3 3736 204
2 -6 3 4257 207
2 -6 3 4246 204
-3 6 -3 3378 192
3 -6 3 3735 193
3 -6 3 3735 190
-4 6 -3 2277 142
-4 6 -3 2250 146
4 -6 3 2582 144
-5 6 -3 954 88
-5 6 -3 948 97
5 -6 3 1085 91
-6 6 -3 579 90
-6 6 -3 492 72
6 -6 3 444 72
7 5 -3 826 90
7 5 -3 813 85
-7 -5 3 881 105
6 5 -3 316 52
6 5 -3 338 57
-6 -5 3 203 54
5 5 -3 5108 249
-5 -5 3 4595 248
-5 -5 3 4924 264
4 5 -3 3934 206
-4 -5 3 4246 214
-4 -5 3 4143 220
3 5 -3 4072 196
-3 -5 3 3931 200
-3 -5 3 3768 202
2 5 -3 3042 158
2 5 -3 3190 147
-2 -5 3 3313 167
-2 -5 3 3260 165
1 5 -3 12749 536
-1 -5 3 12204 541
-1 -5 3 11834 529
-1 -5 3 11867 538
0 -5 3 93 22
0 -5 3 147 25
0 -5 3 108 22
-1 5 -3 2661 126
1 -5 3 2209 122
1 -5 3 2317 124
1 -5 3 2229 116
-2 5 -3 13648 599
2 -5 3 13266 596
2 -5 3 13452 582
2 -5 3 13534 598
-3 5 -3 3925 196
3 -5 3 3540 188
3 -5 3 3693 192
-4 5 -3 1543 102
-4 5 -3 1380 104
4 -5 3 1623 103
-5 5 -3 961 90
-5 5 -3 1014 84
5 -5 3 960 84
-6 5 -3 322 66
-6 5 -3 317 56
6 -5 3 310 60
-7 5 -3 219 57
-7 5 -3 210 65
7 -5 3 292 63
7 4 -3 584 82
7 4 -3 591 71
-7 -4 3 585 88
6 4 -3 458 67
6 4 -3 558 62
-6 -4 3 669 81
5 4 -3 3642 195
-5 -4 3 3723 209
-5 -4 3 3646 195
4 4 -3 8907 412
-4 -4 3 9149 416
-4 -4 3 8842 422
3 4 -3 5335 261
-3 -4 3 5454 263
-3 -4 3 5812 271
2 4 -3 6537 286
2 4 -3 6697 272
-2 -4 3 5950 289
-2 -4 3 5699 286
1 4 -3 10812 478
1 4 -3 10837 472
-1 -4 3 10971 480
0 -4 3 7193 327
0 -4 3 7465 329
0 -4 3 7252 326
0 -4 3 7378 328
-1 4 -3 1294 77
1 -4 3 1441 80
1 -4 3 1435 81
1 -4 3 1423 74
-2 4 -3 20646 856
2 -4 3 19414 855
2 -4 3 19353 854
2 -4 3 19226 840
-3 4 -3 12517 559
-3 4 -3 12608 558
3 -4 3 12326 556
-4 4 -3 3587 184
-4 4 -3 3674 191
4 -4 3 3222 181
-5 4 -3 6258 316
-5 4 -3 6280 305
5 -4 3 6241 307
-6 4 -3 735 75
-6 4 -3 753 88
6 -4 3 663 77
-7 4 -3 302 59
-7 4 -3 282 66
7 -4 3 279 59
7 3 -3 1018 101
-7 -3 3 967 106
6 3 -3 474 56
6 3 -3 459 71
-6 -3 3 575 62
-6 -3 3 670 81
5 3 -3 2714 148
-5 -3 3 2567 142
-5 -3 3 2253 153
4 3 -3 11096 502
-4 -3 3 11050 512
-4 -3 3 11245 502
3 3 -3 1747 101
-3 -3 3 1712 104
-3 -3 3 1825 101
2 3 -3 5784 248
2 3 -3 5777 264
-2 -3 3 5615 267
-2 -3 3 5878 266
1 3 -3 4449 187
1 3 -3 4281 194
-1 -3 3 3782 193
0 3 -3 8009 346
0 -3 3 7802 345
0 -3 3 7781 346
0 -3 3 7846 348
-1 3 -3 5950 272
-1 3 -3 5986 276
1 -3 3 6240 270
1 -3 3 6324 276
-2 3 -3 21857 908
-2 3 -3 21051 908
2 -3 3 19974 906
2 -3 3 21104 895
-3 3 -3 10205 464
-3 3 -3 10338 467
3 -3 3 10347 445
3 -3 3 10661 466
-4 3 -3 1678 102
-4 3 -3 1778 111
-5 3 -3 3292 173
-5 3 -3 3218 183
5 -3 3 3167 176
-6 3 -3 1672 111
-6 3 -3 1655 123
6 -3 3 1559 115
-7 3 -3 200 48
-7 3 -3 174 55
7 -3 3 187 51
7 2 -3 624 80
-7 -2 3 464 85
6 2 -3 358 59
-6 -2 3 434 69
-6 -2 3 379 51
5 2 -3 1704 109
-5 -2 3 1658 118
-5 -2 3 1651 102
4 2 -3 6883 315
-4 -2 3 6707 311
-4 -2 3 6502 323
3 2 -3 574 50
-3 -2 3 644 48
-3 -2 3 602 55
-2 -2 3 2153 112
-2 -2 3 2292 116
1 2 -3 9099 383
1 2 -3 9679 376
-1 -2 3 7352 381
0 2 -3 8028 368
0 -2 3 8602 371
0 -2 3 8545 366
0 -2 3 8701 370
-1 2 -3 10398 459
-1 2 -3 10090 463
1 -2 3 11064 460
1 -2 3 11038 464
-2 2 -3 1645 82
-2 2 -3 1521 82
2 -2 3 1420 82
-3 2 -3 4171 204
-3 2 -3 4121 207
3 -2 3 4597 207
3 -2 3 4368 192
-4 2 -3 288 48
4 -2 3 474 47
4 -2 3 418 30
-5 2 -3 1520 103
-5 2 -3 1446 92
5 -2 3 1203 92
-6 2 -3 1455 112
-6 2 -3 1518 102
6 -2 3 1560 109
-7 2 -3 94 45
7 -2 3 147 46
7 1 -3 1179 108
-7 -1 3 1323 121
6 1 -3 123 39
-6 -1 3 72 39
5 1 -3 182 42
-5 -1 3 207 35
-5 -1 3 177 44
4 1 -3 6229 288
-4 -1 3 5837 264
-4 -1 3 6114 298
-4 -1 3 6095 280
3 1 -3 11094 487
3 1 -3 10817 468
-3 -1 3 10937 482
-3 -1 3 11019 494
2 1 -3 4343 180
2 1 -3 4552 195
-2 -1 3 3828 190
-2 -1 3 3898 196
1 1 -3 41988 1804
1 1 -3 40873 1796
-1 -1 3 43632 1837
0 1 -3 13827 587
0 -1 3 13548 585
0 -1 3 13721 588
0 -1 3 13657 588
-1 1 -3 1082 60
-1 1 -3 1139 54
1 -1 3 1157 58
-2 1 -3 7071 305
-2 1 -3 6855 306
2 -1 3 6667 304
2 -1 3 6836 300
-3 1 -3 17706 770
-3 1 -3 17897 767
3 -1 3 17037 767
3 -1 3 18137 759
-4 1 -3 920 76
-4 1 -3 1156 71
4 -1 3 1133 62
4 -1 3 1179 75
-5 1 -3 2640 148
-5 1 -3 2772 137
5 -1 3 2035 134
-6 1 -3 300 57
6 -1 3 309 50
-7 1 -3 208 55
7 -1 3 114 43
-8 1 -3 378 76
8 -1 3 450 74
7 0 -3 989 97
-7 0 3 882 104
6 0 -3 1419 108
-6 0 3 1455 120
-5 0 3 1086 72
-5 0 3 1218 97
4 0 -3 10403 476
4 0 -3 10324 457
-4 0 3 10653 465
-4 0 3 10731 487
3 0 -3 8507 387
3 0 -3 8446 373
-3 0 3 8773 396
-3 0 3 8675 380
2 0 -3 5742 236
2 0 -3 5606 226
-2 0 3 4911 230
-2 0 3 4309 236
1 0 -3 3208 157
1 0 -3 3251 152
-1 0 3 3453 157
-1 0 3 3863 160
0 0 -3 86446 3760
0 0 3 87592 3769
0 0 3 91770 3757
0 0 3 85723 3998
-1 0 -3 33624 1546
-1 0 -3 35752 1544
1 0 3 36843 1537
1 0 3 37848 1571
-2 0 -3 16411 741
-2 0 -3 17087 741
2 0 3 18240 741
-3 0 -3 20391 872
-3 0 -3 19547 866
3 0 3 20230 863
3 0 3 20299 867
-4 0 -3 3349 174
-4 0 -3 3432 165
4 0 3 3408 169
4 0 3 3331 160
-5 0 -3 5423 281
5 0 3 5883 262
5 0 3 5769 274
-6 0 -3 4530 239
-6 0 -3 4532 219
6 0 3 4177 226
-7 0 -3 1457 119
7 0 3 1495 113
-8 0 -3 127 54
8 0 3 103 46
7 -1 -3 556 79
-7 1 3 559 90
6 -1 -3 3657 201
-6 1 3 3516 212
5 -1 -3 2143 115
5 -1 -3 2221 131
-5 1 3 2042 140
4 -1 -3 10606 469
4 -1 -3 10713 483
-4 1 3 10869 497
-4 1 3 10625 469
3 -1 -3 3966 188
3 -1 -3 3780 177
-3 1 3 3647 194
-3 1 3 3946 176
2 -1 -3 6227 271
2 -1 -3 6200 266
-2 1 3 5714 265
-2 1 3 5924 277
1 -1 -3 5224 228
1 -1 -3 5389 229
-1 1 3 5346 228
-1 1 3 4673 232
0 -1 -3 7742 336
0 -1 -3 8035 332
0 1 3 7436 336
-1 -1 -3 6855 279
-1 -1 -3 6834 277
1 1 3 5765 278
1 1 3 5864 272
-2 -1 -3 31046 1294
-2 -1 -3 30769 1308
2 1 3 29948 1300
2 1 3 29551 1289
-3 -1 -3 22359 958
-3 -1 -3 19994 950
3 1 3 22854 951
3 1 3 23369 951
-4 -1 -3 2264 117
-4 -1 -3 2124 126
4 1 3 2407 120
-5 -1 -3 1432 106
-5 -1 -3 1542 94
5 1 3 1735 93
5 1 3 1694 99
-6 -1 -3 301 57
-6 -1 -3 329 56
6 1 3 403 47
6 1 3 392 53
-7 -1 -3 171 52
7 1 3 125 41
-8 -1 -3 257 65
8 1 3 281 58
7 -2 -3 459 73
-7 2 3 527 87
6 -2 -3 477 67
-6 2 3 574 80
5 -2 -3 1229 93
5 -2 -3 1188 78
-5 2 3 1354 107
4 -2 -3 1611 104
4 -2 -3 1594 94
-4 2 3 1835 119
-4 2 3 1760 86
3 -2 -3 20634 913
3 -2 -3 21044 908
-3 2 3 20923 900
-3 2 3 21656 925
2 -2 -3 3076 140
2 -2 -3 3050 138
-2 2 3 2607 146
-2 2 3 2774 131
1 -2 -3 2295 106
-1 2 3 2087 102
0 -2 -3 4306 204
0 2 3 5121 212
0 2 3 4804 213
-1 -2 -3 7246 314
-1 -2 -3 7024 315
1 2 3 7031 314
1 2 3 7277 304
-2 -2 -3 4809 232
-2 -2 -3 4613 236
2 2 3 5822 237
2 2 3 5597 229
-3 -2 -3 23430 985
-3 -2 -3 23677 995
3 2 3 22464 986
3 2 3 22242 982
-4 -2 -3 5873 278
-4 -2 -3 5938 265
4 2 3 5611 267
4 2 3 5795 266
5 2 3 414 46
5 2 3 398 43
-6 -2 -3 2128 146
6 2 3 2470 136
6 2 3 2378 129
-7 -2 -3 63 38
7 2 3 0 29
-8 -2 -3 59 44
8 2 3 106 43
7 -3 -3 190 54
-7 3 3 159 59
6 -3 -3 783 78
-6 3 3 538 85
5 -3 -3 1248 84
5 -3 -3 1221 93
-5 3 3 1335 110
4 -3 -3 2217 122
4 -3 -3 2153 127
-4 3 3 2364 144
3 -3 -3 3811 192
3 -3 -3 3734 189
-3 3 3 4077 206
-3 3 3 4132 176
2 -3 -3 821 54
2 -3 -3 808 53
1 -3 -3 1083 66
1 -3 -3 1093 61
-1 3 3 1294 73
-1 3 3 1289 62
0 -3 -3 1343 62
0 -3 -3 1407 77
0 -3 -3 1360 73
-1 -3 -3 6360 273
-1 -3 -3 6112 267
1 3 3 5537 267
-2 -3 -3 1253 72
-2 -3 -3 1218 64
2 3 3 1111 56
2 3 3 1089 66
-3 -3 -3 12885 577
-3 -3 -3 12553 563
3 3 3 13335 571
3 3 3 13239 563
-4 -3 -3 7758 371
-4 -3 -3 7869 353
4 3 3 7895 356
4 3 3 8235 362
-5 -3 -3 3755 200
-5 -3 -3 3771 176
5 3 3 3556 183
5 3 3 3525 182
-6 -3 -3 2083 145
6 3 3 2322 131
6 3 3 2347 130
-7 -3 -3 726 86
7 3 3 678 75
-8 -3 -3 104 49
8 3 3 73 41
7 -4 -3 585 84
-7 4 3 572 104
6 -4 -3 826 94
6 -4 -3 850 85
-6 4 3 851 103
5 -4 -3 1765 108
5 -4 -3 1699 112
-5 4 3 1591 127
4 -4 -3 4158 210
4 -4 -3 4302 212
-4 4 3 4145 228
3 -4 -3 6111 290
3 -4 -3 6148 292
-3 4 3 6489 309
2 -4 -3 7940 362
2 -4 -3 8274 369
-2 4 3 8310 379
-2 4 3 8040 353
1 -4 -3 8059 356
1 -4 -3 8263 347
-1 4 3 8010 347
-1 4 3 7314 360
0 -4 -3 7846 368
0 -4 -3 7729 350
0 4 3 8891 360
-1 -4 -3 9775 422
-1 -4 -3 9499 413
1 4 3 8837 412
-2 -4 -3 17641 754
-2 -4 -3 17774 742
2 4 3 16800 731
2 4 3 16499 745
-3 -4 -3 4660 233
-3 -4 -3 4653 217
3 4 3 4955 228
3 4 3 4850 215
-4 -4 -3 7577 361
-4 -4 -3 7596 338
4 4 3 7664 341
4 4 3 7534 350
-5 -4 -3 4937 260
5 4 3 5059 246
5 4 3 5018 239
-6 -4 -3 2841 178
6 4 3 2884 157
6 4 3 2887 160
-7 -4 -3 2010 151
7 4 3 2094 131
7 4 3 2079 132
-8 -4 -3 698 99
8 4 3 519 78
6 -5 -3 889 89
6 -5 -3 807 82
-6 5 3 911 110
5 -5 -3 1797 117
5 -5 -3 1884 121
-5 5 3 1578 134
4 -5 -3 4415 222
4 -5 -3 4467 223
-4 5 3 4238 239
3 -5 -3 10210 453
3 -5 -3 9714 456
-3 5 3 10202 473
2 -5 -3 4544 227
-2 5 3 4628 236
-2 5 3 4885 209
1 -5 -3 3407 172
1 -5 -3 3335 160
-1 5 3 3517 162
-1 5 3 3629 180
0 -5 -3 9813 444
0 -5 -3 9572 435
0 -5 -3 9379 420
0 5 3 10338 431
-1 -5 -3 591 53
-1 -5 -3 580 45
-2 -5 -3 10383 474
-2 -5 -3 10746 461
2 5 3 10419 449
2 5 3 10342 466
-3 -5 -3 3428 181
-3 -5 -3 3387 161
3 5 3 3361 156
3 5 3 3394 172
-4 -5 -3 7700 374
-4 -5 -3 8146 349
4 5 3 7698 363
4 5 3 7732 350
-5 -5 -3 4005 217
5 5 3 3863 203
5 5 3 3877 192
-6 -5 -3 1035 96
6 5 3 914 74
6 5 3 871 80
-7 -5 -3 719 93
7 5 3 1015 83
7 5 3 846 83
-8 -5 -3 842 104
8 5 3 616 96
6 -6 -3 624 83
6 -6 -3 578 74
-6 6 3 685 100
5 -6 -3 485 66
5 -6 -3 488 64
-5 6 3 567 87
4 -6 -3 307 48
4 -6 -3 263 47
-4 6 3 248 59
3 -6 -3 6186 307
3 -6 -3 6457 300
-3 6 3 6499 323
2 -6 -3 6579 312
2 -6 -3 6948 303
-2 6 3 6227 321
1 -6 -3 6139 276
1 -6 -3 5917 260
-1 6 3 5519 261
-1 6 3 5523 281
0 -6 -3 5484 254
0 -6 -3 5480 279
0 -6 -3 5432 270
0 6 3 6217 266
0 6 3 6321 281
-1 -6 -3 751 72
1 6 3 1066 67
1 6 3 1118 50
-2 -6 -3 1527 85
2 6 3 1454 71
2 6 3 1435 89
-3 -6 -3 9088 428
-3 -6 -3 8993 404
3 6 3 8997 416
3 6 3 9223 396
-4 -6 -3 2655 127
-4 -6 -3 2548 153
4 6 3 2433 126
4 6 3 2437 142
-5 -6 -3 4299 228
5 6 3 3895 211
5 6 3 3920 197
-6 -6 -3 1727 134
6 6 3 1726 119
-7 -6 -3 213 59
7 6 3 272 54
5 -7 -3 646 80
5 -7 -3 595 75
-5 7 3 710 96
4 -7 -3 655 66
4 -7 -3 609 69
-4 7 3 479 79
3 -7 -3 1196 85
3 -7 -3 1524 102
-3 7 3 1343 109
2 -7 -3 964 79
2 -7 -3 990 68
-2 7 3 1126 91
1 -7 -3 1319 68
1 -7 -3 1286 84
-1 7 3 954 84
-1 7 3 955 66
0 -7 -3 853 68
0 -7 -3 816 51
0 7 3 923 75
0 7 3 1012 63
-1 -7 -3 3260 184
-1 -7 -3 3295 171
1 7 3 3565 171
-2 -7 -3 36 29
-2 -7 -3 50 21
2 7 3 14 20
-3 -7 -3 104 24
-3 -7 -3 100 36
-4 -7 -3 1533 120
4 7 3 1945 117
-5 -7 -3 575 76
5 7 3 464 64
-6 -7 -3 1544 129
6 7 3 1347 109
-7 -7 -3 1056 112
7 7 3 829 92
5 -8 -3 781 91
5 -8 -3 813 86
-5 8 3 779 105
4 -8 -3 989 90
4 -8 -3 889 81
-4 8 3 783 100
3 -8 -3 1216 96
3 -8 -3 1146 82
-3 8 3 1024 102
2 -8 -3 4556 247
2 -8 -3 4147 224
-2 8 3 4168 235
1 -8 -3 2571 146
-1 8 3 2494 156
0 -8 -3 2928 159
0 8 3 2849 149
0 8 3 2949 169
-1 -8 -3 1134 93
-1 -8 -3 1199 81
1 8 3 1145 79
-2 -8 -3 2993 151
-2 -8 -3 3020 173
2 8 3 2544 153
-3 -8 -3 1903 108
-3 -8 -3 1924 131
3 8 3 1836 118
-4 -8 -3 3132 189
4 8 3 3150 178
-5 -8 -3 1196 110
5 8 3 1182 99
-6 -8 -3 405 77
6 8 3 234 55
-7 -8 -3 652 98
7 8 3 649 86
4 -9 -3 948 100
-4 9 3 1098 117
3 -9 -3 1192 100
-3 9 3 1019 107
2 -9 -3 2087 137
-2 9 3 2069 147
1 -9 -3 2202 135
-1 9 3 2059 143
0 -9 -3 1669 111
0 9 3 1701 103
0 9 3 1741 122
-1 -9 -3 4105 214
-1 -9 -3 3975 230
1 9 3 4476 214
-2 -9 -3 5597 301
-2 -9 -3 5820 279
2 9 3 5866 285
-3 -9 -3 1577 123
-3 -9 -3 1552 98
3 9 3 1613 112
-4 -9 -3 2409 163
4 9 3 2360 151
-5 -9 -3 1421 126
5 9 3 1533 118
-6 -9 -3 755 101
6 9 3 532 80
3 -10 -3 1197 107
-3 10 3 1139 120
2 -10 -3 1399 113
-2 10 3 1499 126
1 -10 -3 1472 110
-1 10 3 1348 117
0 -10 -3 1253 96
0 10 3 1092 101
-1 -10 -3 278 49
-1 -10 -3 342 65
1 10 3 410 53
-2 -10 -3 890 76
-2 -10 -3 779 90
2 10 3 993 82
-3 -10 -3 942 99
3 10 3 920 85
-4 -10 -3 829 96
4 10 3 899 90
-5 -10 -3 1527 137
5 10 3 1609 126
2 -11 -3 90 45
-2 11 3 100 51
1 -11 -3 246 55
-1 11 3 238 59
0 -11 -3 564 71
0 11 3 436 74
-1 -11 -3 611 70
1 11 3 609 79
1 11 3 600 71
-2 -11 -3 249 48
-2 -11 -3 227 59
2 11 3 240 50
-3 -11 -3 430 78
3 11 3 435 68
-4 -11 -3 100 52
4 11 3 188 51
0 -12 -3 814 92
0 12 3 939 106
-1 -12 -3 559 75
1 12 3 517 81
-2 -12 -3 358 76
2 12 3 390 66
-3 -12 -3 738 99
3 12 3 641 84
3 11 -4 1041 98
-3 -11 4 1068 110
2 11 -4 1137 95
-2 -11 4 874 100
1 11 -4 296 55
0 11 -4 334 57
-1 11 -4 908 88
4 10 -4 545 73
-4 -10 4 675 88
3 10 -4 236 49
-3 -10 4 219 57
2 10 -4 684 71
2 10 -4 645 81
-2 -10 4 612 75
-2 -10 4 609 79
1 10 -4 439 56
1 10 -4 410 57
-1 -10 4 418 66
0 10 -4 318 56
0 10 -4 329 54
0 -10 4 307 52
-1 10 -4 129 40
1 -10 4 226 48
-2 10 -4 557 71
2 -10 4 577 73
-3 10 -4 426 69
3 -10 4 511 72
5 9 -4 913 90
-5 -9 4 693 97
4 9 -4 1039 94
-4 -9 4 1128 105
-4 -9 4 1181 105
3 9 -4 1148 89
-3 -9 4 1171 100
-3 -9 4 1180 103
2 9 -4 1294 91
-2 -9 4 1278 104
-2 -9 4 1239 99
1 9 -4 1321 92
1 9 -4 1371 97
-1 -9 4 1477 107
-1 -9 4 1438 101
0 9 -4 1542 110
0 -9 4 1700 110
0 -9 4 1735 110
-1 9 -4 1015 85
1 -9 4 893 83
1 -9 4 952 79
-2 9 -4 776 80
-2 9 -4 894 83
2 -9 4 775 77
-3 9 -4 1157 100
3 -9 4 1278 101
-4 9 -4 982 97
4 -9 4 974 96
6 8 -4 1375 118
6 8 -4 1364 115
-6 -8 4 1367 132
5 8 -4 2403 155
5 8 -4 2553 153
-5 -8 4 2431 169
-5 -8 4 2349 160
4 8 -4 1375 100
-4 -8 4 1270 106
-4 -8 4 1245 108
3 8 -4 2982 168
-3 -8 4 3100 178
-3 -8 4 3094 180
2 8 -4 2361 131
-2 -8 4 2192 136
-2 -8 4 2141 139
1 8 -4 2809 150
1 8 -4 2693 144
-1 -8 4 2654 156
-1 -8 4 2658 152
0 8 -4 1677 104
0 -8 4 1520 99
0 -8 4 1457 98
0 -8 4 1477 98
-1 8 -4 3693 197
1 -8 4 3665 195
1 -8 4 3684 193
-2 8 -4 758 72
-2 8 -4 694 70
2 -8 4 727 73
2 -8 4 762 70
-3 8 -4 2720 166
-3 8 -4 2833 166
3 -8 4 2734 161
-4 8 -4 945 92
-4 8 -4 1015 119
4 -8 4 1166 96
-5 8 -4 691 84
5 -8 4 568 83
6 7 -4 166 51
6 7 -4 143 46
-6 -7 4 318 68
5 7 -4 854 83
-5 -7 4 936 93
-5 -7 4 922 90
4 7 -4 2578 155
-4 -7 4 2644 161
-4 -7 4 2764 168
3 7 -4 4304 224
-3 -7 4 4553 234
-3 -7 4 4490 236
2 7 -4 6175 295
-2 -7 4 6428 304
-2 -7 4 6072 304
1 7 -4 2640 144
1 7 -4 2718 139
-1 -7 4 2633 147
-1 -7 4 2690 150
0 -7 4 2378 131
0 -7 4 2362 131
0 -7 4 2415 132
-1 7 -4 2199 122
1 -7 4 1970 119
1 -7 4 1996 120
1 -7 4 1964 112
-2 7 -4 3273 176
-2 7 -4 3086 173
2 -7 4 3293 176
2 -7 4 3253 174
-3 7 -4 2469 147
-3 7 -4 2499 148
3 -7 4 2333 143
-4 7 -4 1504 111
-4 7 -4 1445 112
4 -7 4 1486 108
-5 7 -4 471 70
-5 7 -4 421 77
5 -7 4 517 72
6 6 -4 224 54
6 6 -4 294 56
-6 -6 4 284 62
-6 -6 4 300 59
5 6 -4 1073 90
-5 -6 4 1106 94
-5 -6 4 1067 97
4 6 -4 856 77
-4 -6 4 869 82
-4 -6 4 870 79
-3 -6 4 404 53
-3 -6 4 427 55
2 6 -4 436 47
2 6 -4 460 38
-2 -6 4 553 56
-2 -6 4 553 54
1 6 -4 2590 133
1 6 -4 2740 128
-1 -6 4 2081 131
0 6 -4 1225 80
0 -6 4 1294 83
0 -6 4 1326 84
0 -6 4 1349 82
0 -6 4 1348 82
-1 6 -4 1791 104
-1 6 -4 1636 104
1 -6 4 1820 99
1 -6 4 1832 105
1 -6 4 1862 107
-2 6 -4 463 48
-2 6 -4 470 51
2 -6 4 294 49
2 -6 4 361 36
2 -6 4 300 45
-3 6 -4 1130 85
-3 6 -4 1053 83
-4 6 -4 2059 134
-4 6 -4 1910 128
4 -6 4 2224 133
-5 6 -4 982 93
-5 6 -4 975 89
5 -6 4 977 89
-6 6 -4 440 78
-6 6 -4 450 71
6 -6 4 319 63
7 5 -4 686 90
7 5 -4 731 85
-7 -5 4 870 104
6 5 -4 218 52
-6 -5 4 272 55
-6 -5 4 274 62
5 5 -4 1529 107
-5 -5 4 1502 116
-5 -5 4 1416 105
4 5 -4 2350 132
-4 -5 4 2066 131
-4 -5 4 2114 136
3 5 -4 5289 251
-3 -5 4 5111 255
-3 -5 4 5044 253
2 5 -4 2196 125
2 5 -4 2356 113
-2 -5 4 2366 130
-2 -5 4 2467 131
1 5 -4 8167 355
1 5 -4 8494 348
-1 -5 4 6599 351
-1 -5 4 7868 355
0 -5 4 560 48
0 -5 4 576 47
0 -5 4 545 45
1 -5 4 1249 71
1 -5 4 1170 77
-2 5 -4 5972 280
-2 5 -4 6079 284
2 -5 4 5942 268
2 -5 4 5897 282
-3 5 -4 4058 203
-3 5 -4 3960 203
3 -5 4 3842 201
-4 5 -4 2135 136
-4 5 -4 2189 134
4 -5 4 2499 138
-5 5 -4 1260 96
-5 5 -4 1223 100
5 -5 4 1030 92
-6 5 -4 468 68
-6 5 -4 427 76
6 -5 4 469 70
7 4 -4 266 60
7 4 -4 342 59
-7 -4 4 392 79
6 4 -4 148 45
-6 -4 4 179 44
-6 -4 4 140 47
5 4 -4 2589 155
-5 -4 4 2746 157
-5 -4 4 2750 169
4 4 -4 5492 277
-4 -4 4 5807 280
-4 -4 4 5875 287
3 4 -4 6352 304
-3 -4 4 6528 311
-3 -4 4 6659 308
2 4 -4 4412 204
2 4 -4 4497 219
-2 -4 4 4875 223
-2 -4 4 4634 221
1 4 -4 6473 281
1 4 -4 6497 290
-1 -4 4 6113 290
-1 -4 4 6133 287
0 4 -4 5551 248
0 -4 4 5485 248
0 -4 4 5233 249
0 -4 4 5457 251
-1 4 -4 4783 225
-1 4 -4 4688 229
1 -4 4 5070 225
1 -4 4 5104 231
-2 4 -4 7053 327
-2 4 -4 7246 332
2 -4 4 7084 318
2 -4 4 7475 332
-3 4 -4 5935 277
-3 4 -4 6014 278
3 -4 4 5580 256
3 -4 4 5766 276
-4 4 -4 2918 158
-4 4 -4 2893 160
4 -4 4 2813 157
-5 4 -4 2853 169
-5 4 -4 2925 164
5 -4 4 2878 165
-6 4 -4 1467 110
-6 4 -4 1557 120
6 -4 4 1409 112
-7 4 -4 312 67
-7 4 -4 314 61
7 -4 4 313 62
7 3 -4 945 96
-7 -3 4 866 103
6 3 -4 414 67
-6 -3 4 478 73
-6 -3 4 534 62
5 3 -4 2370 142
-5 -3 4 2323 137
-5 -3 4 2369 151
4 3 -4 2254 136
-4 -3 4 2472 145
-4 -3 4 2514 136
3 3 -4 4157 201
-3 -3 4 3953 199
-3 -3 4 4031 203
2 3 -4 12462 545
2 3 -4 12556 560
-2 -3 4 12913 563
-2 -3 4 13060 563
1 3 -4 5519 247
1 3 -4 5431 239
-1 -3 4 5228 243
-1 -3 4 5302 247
0 3 -4 2185 104
0 -3 4 2117 105
0 -3 4 2135 106
0 -3 4 1879 99
-1 3 -4 2943 125
1 -3 4 2287 129
-2 3 -4 4481 212
-2 3 -4 4471 216
2 -3 4 4717 217
2 -3 4 4662 206
-3 3 -4 4798 232
-3 3 -4 4766 233
3 -3 4 4937 217
3 -3 4 4972 234
-4 3 -4 2941 157
-4 3 -4 2895 160
4 -3 4 3005 159
-5 3 -4 3133 183
-5 3 -4 3416 180
5 -3 4 3438 182
-6 3 -4 1213 95
-6 3 -4 1244 102
6 -3 4 1019 92
-7 3 -4 44 36
-7 3 -4 99 47
7 -3 4 71 40
7 2 -4 1053 102
-7 -2 4 966 111
6 2 -4 88 40
-6 -2 4 201 54
-6 -2 4 194 40
5 2 -4 3896 197
-5 -2 4 3470 203
-5 -2 4 3538 187
4 2 -4 10063 466
-4 -2 4 10316 463
-4 -2 4 10311 475
3 2 -4 555 51
-3 -2 4 504 52
-3 -2 4 532 46
2 2 -4 2828 140
2 2 -4 2932 155
-2 -2 4 3599 158
-2 -2 4 3410 159
1 2 -4 4184 180
1 2 -4 4228 188
-1 -2 4 4069 188
-1 -2 4 3623 182
0 2 -4 2698 145
0 -2 4 3219 149
0 -2 4 3253 149
0 -2 4 3436 142
-1 2 -4 9313 374
-1 2 -4 9030 383
1 -2 4 8144 378
1 -2 4 8148 381
-2 2 -4 9164 396
-2 2 -4 9131 389
2 -2 4 8584 386
2 -2 4 8528 393
-3 2 -4 3280 177
-3 2 -4 3233 178
3 -2 4 4067 169
3 -2 4 4096 182
-4 2 -4 1458 91
-4 2 -4 1476 95
4 -2 4 1423 92
4 -2 4 1447 76
-5 2 -4 1607 112
-5 2 -4 1725 107
5 -2 4 1848 112
-6 2 -4 1737 113
-6 2 -4 1652 122
6 -2 4 1792 119
-7 2 -4 255 50
-7 2 -4 242 58
7 -2 4 384 64
7 1 -4 741 89
-7 -1 4 748 96
6 1 -4 115 41
-6 -1 4 247 58
5 1 -4 538 64
-5 -1 4 497 51
-5 -1 4 516 70
4 1 -4 6979 327
-4 -1 4 6825 319
-4 -1 4 7001 336
3 1 -4 7198 329
3 1 -4 7077 310
-3 -1 4 7278 326
-3 -1 4 7126 335
2 1 -4 13140 557
2 1 -4 12387 542
-2 -1 4 13179 555
-2 -1 4 12063 557
1 1 -4 12649 568
1 1 -4 12996 563
-1 -1 4 13229 570
-1 -1 4 13586 567
0 1 -4 8839 361
0 -1 4 7690 360
0 -1 4 8206 352
-1 1 -4 7084 311
-1 1 -4 7337 300
1 -1 4 6780 309
1 -1 4 6838 309
-2 1 -4 13893 586
-2 1 -4 14124 592
2 -1 4 13572 590
2 -1 4 12744 586
-3 1 -4 18595 801
-3 1 -4 18768 803
3 -1 4 18393 794
3 -1 4 18141 801
-4 1 -4 2501 125
-4 1 -4 2403 126
4 -1 4 2047 121
4 -1 4 2081 112
-5 1 -4 3650 184
-5 1 -4 3561 192
5 -1 4 3543 186
-6 1 -4 861 73
-6 1 -4 944 86
-7 1 -4 111 44
7 -1 4 83 38
-8 1 -4 198 60
8 -1 4 196 55
7 0 -4 1070 103
-7 0 4 1022 112
6 0 -4 141 42
-5 0 4 363 42
-5 0 4 364 60
4 0 -4 6411 282
4 0 -4 6238 301
-4 0 4 6427 291
-4 0 4 6310 312
3 0 -4 9573 420
3 0 -4 9547 434
-3 0 4 9908 429
-3 0 4 9686 442
2 0 -4 6596 299
2 0 -4 6527 307
-2 0 4 6901 305
-2 0 4 7360 315
1 0 -4 43957 1885
1 0 -4 43664 1874
-1 0 4 44697 1918
0 0 -4 30230 1394
0 0 4 33089 1410
0 0 4 33124 1391
0 0 4 32917 1389
-1 0 -4 29164 1339
-1 0 -4 29630 1316
1 0 4 31258 1338
1 0 4 33181 1329
-2 0 -4 5565 242
-2 0 -4 5447 237
2 0 4 5059 238
2 0 4 5219 239
-3 0 -4 22485 984
-3 0 -4 22044 984
3 0 4 23148 983
3 0 4 23686 981
-4 0 -4 1680 103
-4 0 -4 1698 108
4 0 4 2049 107
4 0 4 2139 102
-5 0 -4 11501 506
-5 0 -4 11744 518
5 0 4 11202 499
5 0 4 10709 508
-6 0 -4 6685 335
6 0 4 6885 328
-7 0 -4 1252 108
7 0 4 1267 101
-8 0 -4 176 57
8 0 4 227 56
7 -1 -4 853 95
-7 1 4 927 109
6 -1 -4 2148 143
-6 1 4 2244 156
5 -1 -4 3869 196
-5 1 4 3388 204
4 -1 -4 8730 379
4 -1 -4 8341 392
-4 1 4 8450 379
-4 1 4 8509 405
3 -1 -4 8138 365
3 -1 -4 8281 355
-3 1 4 7739 373
-3 1 4 7917 355
2 -1 -4 5792 259
2 -1 -4 5934 264
-2 1 4 6006 260
-2 1 4 5493 269
1 -1 -4 10131 468
1 -1 -4 10220 467
-1 1 4 11219 469
-1 1 4 11560 473
0 -1 -4 79261 3357
0 1 4 74870 3357
0 1 4 79530 3343
-1 -1 -4 8706 353
-1 -1 -4 8685 347
1 1 4 7264 345
1 1 4 7340 351
-2 -1 -4 1988 89
-2 -1 -4 1998 91
2 1 4 1437 86
2 1 4 1448 82
-3 -1 -4 11063 508
-3 -1 -4 11297 511
3 1 4 12077 507
3 1 4 11950 509
-4 -1 -4 2154 124
-4 -1 -4 2199 118
4 1 4 2296 118
-5 -1 -4 3370 178
-5 -1 -4 3337 190
5 1 4 3672 183
5 1 4 3923 179
-6 -1 -4 5001 255
-6 -1 -4 4908 235
6 1 4 4685 240
6 1 4 4496 230
-7 -1 -4 791 90
7 1 4 900 84
-8 -1 -4 155 54
8 1 4 169 50
7 -2 -4 1055 105
-7 2 4 1166 120
6 -2 -4 1319 109
-6 2 4 1591 130
5 -2 -4 213 44
5 -2 -4 250 37
-5 2 4 201 52
4 -2 -4 2559 144
4 -2 -4 2608 134
-4 2 4 2652 127
-4 2 4 2609 157
3 -2 -4 5753 269
3 -2 -4 5930 265
-3 2 4 5716 258
-3 2 4 5651 280
2 -2 -4 24274 1000
2 -2 -4 23329 998
-2 2 4 21531 1007
-2 2 4 23828 994
1 -2 -4 16852 723
-1 2 4 17124 729
-1 2 4 16382 721
0 -2 -4 23655 990
0 2 4 22148 993
0 2 4 23239 985
-1 -2 -4 1951 97
-1 -2 -4 1902 96
-2 -2 -4 2895 132
-2 -2 -4 2993 134
2 2 4 2502 123
2 2 4 2507 132
-3 -2 -4 20323 882
-3 -2 -4 20043 877
3 2 4 20415 879
3 2 4 20486 872
-4 -2 -4 1950 101
-4 -2 -4 1937 110
4 2 4 1676 97
4 2 4 1651 98
-5 -2 -4 249 46
5 2 4 130 29
5 2 4 135 31
-6 -2 -4 2827 174
6 2 4 3191 166
-7 -2 -4 538 75
7 2 4 580 68
-8 -2 -4 68 44
8 2 4 104 42
7 -3 -4 361 67
-7 3 4 244 70
6 -3 -4 12 31
-6 3 4 8 40
5 -3 -4 74 33
5 -3 -4 83 27
-5 3 4 85 41
4 -3 -4 1500 93
4 -3 -4 1460 98
-4 3 4 1631 116
3 -3 -4 4149 205
3 -3 -4 4141 207
-3 3 4 4427 194
-3 3 4 4378 222
2 -3 -4 4980 224
2 -3 -4 4941 222
-2 3 4 4485 214
-2 3 4 4759 234
1 -3 -4 4878 215
1 -3 -4 4863 209
-1 3 4 4409 209
-1 3 4 4400 219
0 -3 -4 7664 342
0 -3 -4 7431 353
0 3 4 8419 353
0 3 4 8450 358
-1 -3 -4 3824 189
-1 -3 -4 3803 193
1 3 4 4763 194
-2 -3 -4 560 43
-2 -3 -4 537 46
2 3 4 726 47
2 3 4 711 35
-3 -3 -4 7866 368
3 3 4 8123 353
3 3 4 8218 364
-4 -3 -4 2228 116
-4 -3 -4 2220 130
4 3 4 2239 120
4 3 4 2195 114
-5 -3 -4 4711 227
-5 -3 -4 4618 205
5 3 4 3764 206
5 3 4 3850 203
-6 -3 -4 2384 150
6 3 4 2268 133
6 3 4 2380 135
-7 -3 -4 1162 103
7 3 4 754 76
7 3 4 977 84
-8 -3 -4 97 47
8 3 4 212 51
6 -4 -4 1160 99
-6 4 4 1101 118
5 -4 -4 190 38
5 -4 -4 203 43
-5 4 4 253 59
4 -4 -4 1509 96
4 -4 -4 1508 98
-4 4 4 1392 111
3 -4 -4 1667 102
3 -4 -4 1711 104
-3 4 4 2014 123
2 -4 -4 5153 236
-2 4 4 4884 244
-2 4 4 4819 221
1 -4 -4 8877 406
1 -4 -4 8972 397
-1 4 4 8961 413
-1 4 4 9611 400
0 -4 -4 10211 418
0 -4 -4 10296 433
0 4 4 9303 429
0 4 4 9211 435
-1 -4 -4 9947 451
-1 -4 -4 9903 458
1 4 4 10872 453
-2 -4 -4 2305 104
-2 -4 -4 2224 112
2 4 4 1599 101
2 4 4 1766 87
-3 -4 -4 13551 605
3 4 4 13722 597
3 4 4 13348 582
-4 -4 -4 6994 318
-4 -4 -4 6636 334
4 4 4 7281 316
4 4 4 7246 328
-5 -4 -4 4617 239
-5 -4 -4 4686 216
5 4 4 4536 226
5 4 4 4322 216
-6 -4 -4 2785 175
6 4 4 2815 158
6 4 4 2846 152
-7 -4 -4 2635 173
7 4 4 2293 148
7 4 4 2494 146
-8 -4 -4 542 93
8 4 4 354 62
6 -5 -4 912 92
-6 5 4 984 115
5 -5 -4 1683 114
5 -5 -4 1716 116
-5 5 4 1726 138
4 -5 -4 3024 162
4 -5 -4 2852 158
-4 5 4 2821 177
3 -5 -4 4522 227
3 -5 -4 4553 222
-3 5 4 4688 244
2 -5 -4 5582 249
2 -5 -4 5439 258
-2 5 4 5187 266
-2 5 4 5294 241
1 -5 -4 7597 355
1 -5 -4 7640 342
-1 5 4 7861 347
-1 5 4 8064 365
0 -5 -4 15798 663
0 -5 -4 15903 681
0 5 4 15636 676
0 5 4 14813 685
-1 -5 -4 7397 335
-1 -5 -4 7389 325
1 5 4 6679 323
-2 -5 -4 1424 78
-2 -5 -4 1463 90
2 5 4 1101 77
-3 -5 -4 3489 181
3 5 4 3291 171
3 5 4 3404 154
-4 -5 -4 2706 143
-4 -5 -4 2680 164
4 5 4 3192 143
4 5 4 3100 158
5 5 4 259 45
5 5 4 294 39
-6 -5 -4 2109 142
6 5 4 1932 124
6 5 4 1824 113
-7 -5 -4 766 94
7 5 4 811 81
-8 -5 -4 788 102
8 5 4 566 92
6 -6 -4 469 72
6 -6 -4 499 75
-6 6 4 636 102
5 -6 -4 582 68
5 -6 -4 520 69
-5 6 4 526 85
4 -6 -4 1746 118
4 -6 -4 1655 113
-4 6 4 2118 143
3 -6 -4 1559 96
3 -6 -4 1487 103
-3 6 4 1656 119
2 -6 -4 8027 365
2 -6 -4 8019 378
-2 6 4 8307 391
1 -6 -4 6383 282
1 -6 -4 6343 298
-1 6 4 6213 285
-1 6 4 6286 307
0 -6 -4 3196 158
0 -6 -4 3272 178
0 6 4 3896 175
0 6 4 3951 189
-1 -6 -4 2391 138
-1 -6 -4 2241 127
1 6 4 2572 128
-2 -6 -4 3765 203
-2 -6 -4 3774 189
2 6 4 4181 195
-3 -6 -4 2728 152
3 6 4 2419 140
-4 -6 -4 7627 372
-4 -6 -4 7903 347
4 6 4 7390 359
-5 -6 -4 1840 126
5 6 4 1501 108
-6 -6 -4 1088 102
6 6 4 1012 88
-7 -6 -4 299 68
7 6 4 423 67
5 -7 -4 151 45
5 -7 -4 153 44
-5 7 4 57 48
4 -7 -4 357 59
4 -7 -4 369 54
-4 7 4 364 71
3 -7 -4 1987 121
3 -7 -4 2200 135
-3 7 4 2369 151
2 -7 -4 1290 94
2 -7 -4 1328 80
1 -7 -4 1199 82
1 -7 -4 1210 64
-1 7 4 894 65
-1 7 4 905 83
0 -7 -4 283 44
0 7 4 412 43
0 7 4 435 53
-1 -7 -4 1342 89
1 7 4 1509 90
-2 -7 -4 125 28
-2 -7 -4 123 36
-3 -7 -4 3038 177
3 7 4 3130 167
-4 -7 -4 2357 131
-4 -7 -4 2374 158
4 7 4 2921 153
-5 -7 -4 752 83
5 7 4 639 71
-6 -7 -4 1153 109
6 7 4 1007 93
-7 -7 -4 646 93
7 7 4 409 70
5 -8 -4 439 70
-5 8 4 404 83
4 -8 -4 2061 137
-4 8 4 1687 148
3 -8 -4 763 80
-3 8 4 850 92
2 -8 -4 3004 174
-2 8 4 3161 188
1 -8 -4 5236 266
-1 8 4 5419 279
0 -8 -4 2633 148
0 8 4 2523 155
0 8 4 2571 138
-1 -8 -4 1593 100
-1 -8 -4 1567 113
1 8 4 1496 96
-2 -8 -4 1418 109
-2 -8 -4 1463 93
-3 -8 -4 525 69
3 8 4 652 63
-4 -8 -4 2183 151
4 8 4 2437 144
-5 -8 -4 2091 150
5 8 4 1941 133
-6 -8 -4 1072 109
6 8 4 931 94
-7 -8 -4 563 94
7 8 4 444 79
4 -9 -4 909 95
-4 9 4 1031 117
3 -9 -4 1131 103
-3 9 4 1177 116
2 -9 -4 2335 149
-2 9 4 2387 163
1 -9 -4 2761 156
-1 9 4 2371 162
0 -9 -4 3394 186
0 9 4 3309 175
0 9 4 3430 198
-1 -9 -4 3924 208
-1 -9 -4 3811 224
1 9 4 4228 207
-2 -9 -4 4210 235
-2 -9 -4 4232 214
2 9 4 4144 217
-3 -9 -4 1866 134
3 9 4 1718 118
-4 -9 -4 1961 145
4 9 4 2130 136
-5 -9 -4 911 97
5 9 4 816 86
-6 -9 -4 1509 138
6 9 4 1374 119
3 -10 -4 1447 121
-3 10 4 1347 132
2 -10 -4 907 93
-2 10 4 1056 109
1 -10 -4 1915 129
-1 10 4 1831 140
0 -10 -4 1201 96
0 10 4 1234 107
-1 -10 -4 1189 93
-1 -10 -4 1194 108
1 10 4 1324 94
-2 -10 -4 1977 147
-2 -10 -4 1955 127
2 10 4 2322 135
-3 -10 -4 957 98
3 10 4 827 84
-4 -10 -4 1446 130
4 10 4 1717 121
-5 -10 -4 1071 111
5 10 4 990 98
2 -11 -4 399 70
-2 11 4 367 76
1 -11 -4 277 58
-1 11 4 297 66
0 -11 -4 736 78
0 11 4 565 82
-1 -11 -4 250 50
1 11 4 240 61
1 11 4 199 53
-2 -11 -4 142 41
-2 -11 -4 137 51
2 11 4 207 49
-3 -11 -4 141 52
3 11 4 184 49
-4 -11 -4 44 46
4 11 4 131 47
0 -12 -4 1664 130
0 12 4 1528 140
-1 -12 -4 983 95
1 12 4 1057 109
-2 -12 -4 645 95
-2 -12 -4 685 78
2 12 4 496 76
-3 -12 -4 742 101
3 12 4 620 84
2 11 -5 947 89
1 11 -5 410 78
0 11 -5 487 89
-1 11 -5 990 95
4 10 -5 457 70
-4 -10 5 503 81
-4 -10 5 540 81
3 10 -5 227 54
-3 -10 5 240 57
-3 -10 5 204 59
2 10 -5 484 65
-2 -10 5 440 68
1 10 -5 197 43
-1 -10 5 216 50
0 10 -5 449 59
0 -10 5 323 56
-1 10 -5 438 64
1 -10 5 396 65
-2 10 -5 42 34
2 -10 5 89 41
-3 10 -5 235 56
3 -10 5 256 57
5 9 -5 279 58
5 9 -5 222 56
-5 -9 5 163 54
-5 -9 5 167 59
4 9 -5 446 72
-4 -9 5 530 75
-4 -9 5 600 81
3 9 -5 895 81
-3 -9 5 792 85
-3 -9 5 833 85
2 9 -5 2006 126
-2 -9 5 2035 137
-2 -9 5 2036 135
1 9 -5 1191 93
-1 -9 5 1369 100
0 9 -5 1030 79
0 -9 5 862 78
0 -9 5 893 78
-1 9 -5 1881 120
1 -9 5 1687 118
-2 9 -5 999 88
2 -9 5 966 87
-3 9 -5 270 54
3 -9 5 220 51
-4 9 -5 1661 128
4 -9 5 1582 125
5 8 -5 2204 144
-5 -8 5 2013 152
-5 -8 5 2102 150
4 8 -5 2240 144
-4 -8 5 2304 154
-4 -8 5 2145 148
3 8 -5 2023 131
-3 -8 5 2125 138
-3 -8 5 2264 143
2 8 -5 1453 98
-2 -8 5 1446 105
-2 -8 5 1347 103
1 8 -5 1407 90
1 8 -5 1330 96
-1 -8 5 1423 99
-1 -8 5 1497 101
0 8 -5 1876 115
0 8 -5 2007 118
0 -8 5 1940 118
0 -8 5 1797 118
-1 8 -5 2499 142
-1 8 -5 2430 140
1 -8 5 2245 140
-2 8 -5 1936 125
2 -8 5 1879 122
-3 8 -5 1427 108
3 -8 5 1452 108
-4 8 -5 1050 98
4 -8 5 972 92
-5 8 -5 1224 112
5 -8 5 1219 110
6 7 -5 399 71
-6 -7 5 534 84
-6 -7 5 469 79
5 7 -5 429 68
-5 -7 5 524 72
-5 -7 5 521 76
4 7 -5 801 78
-4 -7 5 777 80
-4 -7 5 821 82
3 7 -5 5070 266
-3 -7 5 5488 276
-3 -7 5 5607 278
2 7 -5 7645 358
-2 -7 5 7862 364
-2 -7 5 7330 362
1 7 -5 3098 172
1 7 -5 3190 164
-1 -7 5 3297 175
-1 -7 5 3456 177
0 -7 5 578 55
0 -7 5 581 58
0 -7 5 541 55
-1 7 -5 3416 175
-1 7 -5 3317 177
1 -7 5 3353 171
1 -7 5 3314 178
-2 7 -5 637 63
-2 7 -5 659 60
2 -7 5 497 60
-3 7 -5 2223 136
-3 7 -5 2119 136
3 -7 5 2218 136
-4 7 -5 1299 102
4 -7 5 1171 98
-5 7 -5 1235 107
5 -7 5 1222 105
6 6 -5 163 51
-6 -6 5 79 42
-6 -6 5 118 48
5 6 -5 508 70
-5 -6 5 447 66
-5 -6 5 475 68
4 6 -5 901 78
-4 -6 5 730 75
-4 -6 5 726 76
-3 -6 5 942 79
-3 -6 5 1007 81
2 6 -5 1100 88
2 6 -5 1108 81
-2 -6 5 1387 90
1 6 -5 1946 106
1 6 -5 1891 113
-1 -6 5 1986 114
-1 -6 5 1979 115
0 6 -5 869 65
0 -6 5 1046 74
0 -6 5 1032 70
0 -6 5 1020 70
-1 6 -5 720 54
-1 6 -5 637 56
1 -6 5 573 58
1 -6 5 548 49
-2 6 -5 241 40
2 -6 5 151 35
2 -6 5 109 23
-3 6 -5 390 53
-3 6 -5 372 52
-4 6 -5 507 64
-4 6 -5 574 67
4 -6 5 669 69
-5 6 -5 1074 94
5 -6 5 927 90
-6 6 -5 550 79
6 -6 5 608 82
7 5 -5 383 73
7 5 -5 402 70
-7 -5 5 464 88
6 5 -5 468 72
-6 -5 5 485 79
-6 -5 5 472 71
5 5 -5 873 84
-5 -5 5 736 77
-5 -5 5 810 85
4 5 -5 1068 83
-4 -5 5 959 82
-4 -5 5 888 79
3 5 -5 481 55
-3 -5 5 506 56
-3 -5 5 543 57
2 5 -5 6747 319
2 5 -5 6971 304
-2 -5 5 6773 322
1 5 -5 7202 339
1 5 -5 7432 331
-1 -5 5 7369 337
-1 -5 5 7447 341
0 5 -5 904 63
0 -5 5 945 67
0 -5 5 963 63
0 -5 5 968 66
-1 5 -5 1418 82
-1 5 -5 1480 88
1 -5 5 1381 88
-2 5 -5 3683 187
-2 5 -5 3725 181
2 -5 5 3650 174
2 -5 5 3540 185
-3 5 -5 576 56
-3 5 -5 527 56
3 -5 5 475 55
-4 5 -5 2362 142
-4 5 -5 2386 144
4 -5 5 2430 143
-5 5 -5 1030 92
-5 5 -5 1017 89
5 -5 5 899 86
-6 5 -5 810 87
6 -5 5 799 87
7 4 -5 285 64
7 4 -5 318 57
-7 -4 5 374 77
6 4 -5 120 45
-6 -4 5 232 59
-6 -4 5 206 47
5 4 -5 720 77
-5 -4 5 895 77
-5 -4 5 798 82
4 4 -5 2358 135
-4 -4 5 2160 137
-4 -4 5 2200 132
3 4 -5 9402 422
-3 -4 5 8995 424
-3 -4 5 9112 422
2 4 -5 5859 278
2 4 -5 5988 262
-2 -4 5 5891 281
1 4 -5 20143 858
1 4 -5 19953 848
-1 -4 5 19200 857
-1 -4 5 19462 852
0 4 -5 3176 173
0 -4 5 3755 172
0 -4 5 3818 180
0 -4 5 3861 178
-1 4 -5 4774 226
-1 4 -5 4856 218
1 -4 5 4682 226
-2 4 -5 4719 235
-2 4 -5 4806 228
2 -4 5 5053 224
2 -4 5 4956 235
-3 4 -5 1997 117
-3 4 -5 2070 113
3 -4 5 1942 116
3 -4 5 1896 98
-4 4 -5 1132 85
-4 4 -5 1061 85
4 -4 5 1340 89
-5 4 -5 2874 164
-5 4 -5 2867 165
5 -4 5 2732 163
-6 4 -5 1558 116
-6 4 -5 1551 120
6 -4 5 1609 118
-7 4 -5 680 84
7 -4 5 758 88
7 3 -5 442 72
-7 -3 5 365 76
6 3 -5 1311 109
-6 -3 5 1370 118
-6 -3 5 1426 104
5 3 -5 1270 103
-5 -3 5 1644 117
-5 -3 5 1521 102
4 3 -5 1772 112
-4 -3 5 1798 118
-4 -3 5 1781 110
3 3 -5 6162 303
-3 -3 5 6512 306
-3 -3 5 6657 304
2 3 -5 4316 192
2 3 -5 4236 207
-2 -3 5 4359 209
1 3 -5 20681 865
1 3 -5 20378 874
-1 -3 5 19925 874
-1 -3 5 19654 867
0 3 -5 14774 624
0 -3 5 14238 626
0 -3 5 14265 617
0 -3 5 14090 626
-1 3 -5 5220 237
-1 3 -5 5307 248
1 -3 5 5367 248
1 -3 5 5512 245
-2 3 -5 3938 186
-2 3 -5 4008 196
2 -3 5 4058 187
2 -3 5 4094 195
-3 3 -5 7193 335
-3 3 -5 7009 328
3 -3 5 7173 319
3 -3 5 7410 334
-4 3 -5 1640 106
-4 3 -5 1743 108
4 -3 5 1838 109
-5 3 -5 2214 133
-5 3 -5 2116 133
5 -3 5 2196 133
-6 3 -5 1096 94
-6 3 -5 1145 91
6 -3 5 1007 91
-7 3 -5 233 58
-7 3 -5 250 54
7 -3 5 229 53
7 2 -5 643 86
-7 -2 5 570 90
6 2 -5 506 72
-6 -2 5 441 58
-6 -2 5 372 69
5 2 -5 1133 92
-5 -2 5 1147 97
-5 -2 5 1169 84
-4 -2 5 57 31
-4 -2 5 64 25
-3 -2 5 339 45
-3 -2 5 334 40
2 2 -5 2493 131
2 2 -5 2482 116
-2 -2 5 2602 132
1 2 -5 8040 366
1 2 -5 7980 359
-1 -2 5 8581 368
-1 -2 5 8216 361
0 2 -5 8277 368
0 -2 5 8723 372
0 -2 5 8301 370
0 -2 5 8093 359
-1 2 -5 964 56
-1 2 -5 825 41
1 -2 5 733 50
1 -2 5 773 53
-2 2 -5 4351 218
-2 2 -5 4412 208
2 -2 5 4857 218
2 -2 5 4918 213
-3 2 -5 273 35
-3 2 -5 265 39
-4 2 -5 2371 140
-4 2 -5 2370 141
4 -2 5 2889 130
4 -2 5 2913 145
-5 2 -5 1014 79
-5 2 -5 963 77
-6 2 -5 2770 165
-6 2 -5 2661 157
6 -2 5 2659 160
-7 2 -5 172 51
-7 2 -5 172 47
7 -2 5 162 47
7 1 -5 1080 107
-7 -1 5 1146 117
6 1 -5 27 36
-6 -1 5 43 38
5 1 -5 3743 203
-5 -1 5 3902 216
-5 -1 5 3786 194
4 1 -5 4285 218
-4 -1 5 4396 227
-4 -1 5 4248 211
3 1 -5 4303 193
3 1 -5 4362 214
-3 -1 5 4405 219
-3 -1 5 4392 210
2 1 -5 13665 620
2 1 -5 13496 607
-2 -1 5 14749 620
-2 -1 5 14724 622
1 1 -5 14355 588
1 1 -5 14273 594
-1 -1 5 13189 594
-1 -1 5 12744 589
0 1 -5 2315 129
0 -1 5 3014 120
0 -1 5 2810 131
-1 1 -5 7253 294
1 -1 5 6040 289
1 -1 5 6192 289
-2 1 -5 7420 310
-2 1 -5 6966 320
2 -1 5 6838 317
-3 1 -5 4160 184
-3 1 -5 4085 178
3 -1 5 3297 177
3 -1 5 3254 172
-4 1 -5 8701 397
-4 1 -5 8788 398
4 -1 5 8591 396
4 -1 5 8764 387
-5 1 -5 293 44
-5 1 -5 232 47
5 -1 5 366 49
-6 1 -5 1932 128
-6 1 -5 1865 119
6 -1 5 1973 125
-7 1 -5 780 87
-7 1 -5 686 75
7 -1 5 904 85
-8 1 -5 552 88
8 -1 5 434 73
7 0 -5 1342 119
-7 0 5 1297 127
6 0 -5 263 54
-6 0 5 132 50
-5 0 5 862 66
-5 0 5 864 85
4 0 -5 7752 349
4 0 -5 7376 367
-4 0 5 7985 360
-4 0 5 8489 382
3 0 -5 3432 164
3 0 -5 3438 179
-3 0 5 3776 175
-3 0 5 3683 188
2 0 -5 8235 349
2 0 -5 8332 359
-2 0 5 7607 361
-2 0 5 7656 355
1 0 -5 48766 2078
1 0 -5 48434 2080
-1 0 5 46390 2119
-1 0 5 51089 2127
0 0 -5 3410 159
0 0 -5 3541 162
0 0 5 3473 160
0 0 5 3602 154
0 0 5 3276 162
-1 0 -5 1772 99
-1 0 -5 1816 87
1 0 5 2179 97
1 0 5 2133 101
-2 0 -5 24187 1044
-2 0 -5 24056 1039
2 0 5 24201 1041
2 0 5 24565 1039
-3 0 -5 11854 515
-3 0 -5 11768 519
3 0 5 11545 515
-4 0 -5 4519 212
-4 0 -5 4559 213
4 0 5 4150 205
4 0 5 4149 209
-5 0 -5 7515 364
-5 0 -5 7685 359
5 0 5 7719 359
5 0 5 8024 352
-6 0 -5 1708 109
-6 0 -5 1658 116
6 0 5 1684 111
-7 0 -5 1769 132
7 0 5 1757 123
-8 0 -5 214 60
8 0 5 293 60
7 -1 -5 713 94
-7 1 5 652 102
6 -1 -5 979 90
-6 1 5 850 96
5 -1 -5 1543 103
-5 1 5 1234 108
4 -1 -5 10024 441
4 -1 -5 10524 460
-4 1 5 9797 469
-4 1 5 9653 444
3 -1 -5 9451 438
3 -1 -5 9397 428
-3 1 5 10272 450
-3 1 5 9854 431
2 -1 -5 2801 144
2 -1 -5 2806 139
-2 1 5 3115 143
-2 1 5 3029 152
1 -1 -5 32224 1351
1 -1 -5 31184 1361
-1 1 5 31631 1353
0 -1 -5 35465 1828
0 1 5 34831 1544
0 1 5 36945 1548
-1 -1 -5 3254 146
-1 -1 -5 3303 139
1 1 5 2684 143
1 1 5 2839 137
-2 -1 -5 5155 212
-2 -1 -5 5041 218
2 1 5 4186 214
2 1 5 4241 209
-3 -1 -5 7213 341
-3 -1 -5 7065 338
3 1 5 7757 336
3 1 5 8084 341
-4 -1 -5 1706 101
-4 -1 -5 1759 100
4 1 5 1663 96
4 1 5 1634 94
-5 -1 -5 4275 213
-5 -1 -5 4283 221
5 1 5 4354 210
5 1 5 4240 212
-6 -1 -5 4610 232
-6 -1 -5 4871 248
6 1 5 4649 230
6 1 5 4547 236
-7 -1 -5 1485 118
7 1 5 1385 106
-8 -1 -5 144 52
8 1 5 185 51
7 -2 -5 953 104
-7 2 5 947 115
6 -2 -5 1481 117
-6 2 5 1724 136
5 -2 -5 1127 88
-5 2 5 890 94
4 -2 -5 1811 114
4 -2 -5 1893 105
-4 2 5 1918 101
-4 2 5 2040 131
3 -2 -5 4152 200
3 -2 -5 4427 209
-3 2 5 4034 216
-3 2 5 4324 197
2 -2 -5 4010 192
2 -2 -5 4074 194
-2 2 5 4160 203
-2 2 5 4163 190
1 -2 -5 11504 489
-1 2 5 10847 492
-1 2 5 11143 488
0 -2 -5 41349 1753
0 -2 -5 40477 1755
0 2 5 41090 1784
-1 -2 -5 4344 204
-1 -2 -5 4487 203
1 2 5 4514 206
1 2 5 4369 194
-2 -2 -5 3718 160
-2 -2 -5 3517 160
2 2 5 3046 149
2 2 5 2951 159
-3 -2 -5 1255 74
-3 -2 -5 1317 74
3 2 5 1014 63
3 2 5 1068 71
-4 -2 -5 2594 137
-4 -2 -5 2633 132
4 2 5 2335 130
4 2 5 2292 125
-5 -2 -5 1475 106
5 2 5 1772 101
5 2 5 1633 97
-6 -2 -5 4133 228
-6 -2 -5 4149 213
6 2 5 4410 216
-7 -2 -5 982 99
7 2 5 1145 90
-8 -2 -5 415 75
8 2 5 282 58
7 -3 -5 431 75
-7 3 5 380 84
6 -3 -5 60 38
-6 3 5 181 60
5 -3 -5 9 21
5 -3 -5 13 30
-5 3 5 9 37
4 -3 -5 766 60
4 -3 -5 747 68
-4 3 5 744 82
3 -3 -5 5425 258
3 -3 -5 5544 260
-3 3 5 5322 273
-3 3 5 5671 249
2 -3 -5 2686 128
2 -3 -5 2606 125
-2 3 5 2086 118
-2 3 5 2455 137
1 -3 -5 10031 405
1 -3 -5 9578 411
-1 3 5 8429 414
-1 3 5 8882 406
0 -3 -5 15378 682
0 -3 -5 15024 670
0 3 5 16033 682
0 3 5 16395 685
-1 -3 -5 4232 197
-1 -3 -5 4248 196
-1 -3 -5 4149 180
1 3 5 4041 196
-2 -3 -5 272 32
-2 -3 -5 249 32
-3 -3 -5 2750 144
-3 -3 -5 2801 140
3 3 5 2784 142
3 3 5 2737 130
4 3 5 158 32
4 3 5 153 26
-5 -3 -5 1035 70
-5 -3 -5 1049 82
5 3 5 724 62
5 3 5 801 70
-6 -3 -5 1531 116
6 3 5 1534 100
6 3 5 1636 106
-7 -3 -5 1247 108
7 3 5 1069 92
7 3 5 1217 94
-8 -3 -5 91 49
8 3 5 149 47
6 -4 -5 350 62
-6 4 5 387 81
5 -4 -5 40 28
5 -4 -5 71 34
-5 4 5 -1 36
4 -4 -5 715 64
4 -4 -5 708 60
-4 4 5 649 78
3 -4 -5 3483 184
3 -4 -5 3430 185
-3 4 5 3898 182
-3 4 5 3963 205
2 -4 -5 2576 137
-2 4 5 2719 127
-2 4 5 2496 146
1 -4 -5 6374 276
1 -4 -5 6313 287
-1 4 5 5904 279
-1 4 5 6207 292
0 -4 -5 16969 722
0 -4 -5 16708 705
0 4 5 16860 719
0 4 5 15676 724
-1 -4 -5 7489 350
-1 -4 -5 7633 355
1 4 5 8256 353
-2 -4 -5 391 41
-2 -4 -5 353 38
2 4 5 494 43
-3 -4 -5 5428 271
-3 -4 -5 5275 260
3 4 5 6080 250
3 4 5 5817 267
-4 -4 -5 3567 192
-4 -4 -5 3703 179
4 4 5 3578 184
4 4 5 3675 172
-5 -4 -5 3080 154
-5 -4 -5 3058 174
5 4 5 2938 152
5 4 5 2974 162
-6 -4 -5 2092 137
6 4 5 1882 115
6 4 5 1880 122
-7 -4 -5 3419 205
7 4 5 3205 186
7 4 5 3194 180
-8 -4 -5 150 57
6 -5 -5 1999 142
-6 5 5 2182 171
5 -5 -5 110 37
5 -5 -5 147 40
-5 5 5 135 53
4 -5 -5 3202 175
4 -5 -5 3322 174
-4 5 5 3151 194
3 -5 -5 861 67
3 -5 -5 869 73
-3 5 5 1131 93
2 -5 -5 3291 172
2 -5 -5 3421 163
-2 5 5 3354 158
-2 5 5 3283 182
1 -5 -5 5961 274
1 -5 -5 5748 258
-1 5 5 5813 265
-1 5 5 5644 280
0 -5 -5 12888 539
0 -5 -5 12817 559
0 5 5 12190 563
0 5 5 12561 555
-1 -5 -5 8712 391
-1 -5 -5 8891 400
1 5 5 8419 390
-2 -5 -5 8504 379
-2 -5 -5 8509 370
2 5 5 7437 370
-3 -5 -5 4186 217
-3 -5 -5 4305 231
3 5 5 4990 204
3 5 5 4905 227
-4 -5 -5 2523 156
-4 -5 -5 2573 139
4 5 5 2947 133
4 5 5 2868 151
-5 -5 -5 2070 137
-5 -5 -5 2140 117
5 5 5 2170 130
5 5 5 2175 114
-6 -5 -5 965 93
6 5 5 870 80
-7 -5 -5 2044 148
7 5 5 1798 130
-8 -5 -5 421 83
8 5 5 250 64
6 -6 -5 1477 123
-6 6 5 1717 157
5 -6 -5 371 61
5 -6 -5 400 63
-5 6 5 498 85
4 -6 -5 89 33
4 -6 -5 107 35
-4 6 5 213 54
3 -6 -5 4712 240
-3 6 5 4775 257
2 -6 -5 1287 92
2 -6 -5 1344 81
-2 6 5 1466 104
1 -6 -5 5977 278
1 -6 -5 5767 259
-1 6 5 5726 266
-1 6 5 5600 284
0 -6 -5 14399 638
0 -6 -5 13731 615
0 6 5 14565 646
0 6 5 14913 634
-1 -6 -5 5117 245
-1 -6 -5 4796 252
1 6 5 5433 246
-2 -6 -5 1308 81
-2 -6 -5 1256 91
-3 -6 -5 3353 182
-3 -6 -5 3508 167
3 6 5 3026 171
-4 -6 -5 2274 120
-4 -6 -5 2040 136
4 6 5 2188 129
-5 -6 -5 417 63
5 6 5 279 48
-6 -6 -5 989 98
6 6 5 937 85
-7 -6 -5 953 106
7 6 5 1066 98
5 -7 -5 379 61
5 -7 -5 343 61
-5 7 5 352 78
4 -7 -5 140 39
4 -7 -5 150 42
-4 7 5 293 64
3 -7 -5 1125 93
3 -7 -5 1087 81
-3 7 5 1460 113
2 -7 -5 721 60
2 -7 -5 682 67
-2 7 5 512 69
-1 7 5 549 63
-1 7 5 524 49
0 -7 -5 303 45
0 7 5 318 50
0 7 5 361 43
-1 -7 -5 3284 185
-1 -7 -5 3302 173
1 7 5 3381 172
-2 -7 -5 1110 90
-2 -7 -5 1053 75
2 7 5 1050 78
-3 -7 -5 1471 93
-3 -7 -5 1460 109
3 7 5 1696 103
-4 -7 -5 363 58
-4 -7 -5 421 44
-5 -7 -5 87 38
5 7 5 68 34
-6 -7 -5 826 96
6 7 5 832 84
-7 -7 -5 440 86
7 7 5 382 68
4 -8 -5 1177 101
-4 8 5 1042 116
3 -8 -5 405 63
-3 8 5 444 74
2 -8 -5 2265 142
-2 8 5 2291 154
1 -8 -5 2780 160
-1 8 5 2803 170
0 -8 -5 2715 151
0 8 5 2527 158
0 8 5 2666 143
-1 -8 -5 3672 190
-1 -8 -5 3677 204
1 8 5 3484 186
-2 -8 -5 1261 86
-2 -8 -5 1257 102
-3 -8 -5 1095 97
-3 -8 -5 1162 80
3 8 5 1137 87
-4 -8 -5 3448 205
-4 -8 -5 3309 178
4 8 5 3746 197
-5 -8 -5 2005 147
5 8 5 2016 135
-6 -8 -5 1067 109
6 8 5 793 87
-7 -8 -5 1089 118
7 8 5 936 103
4 -9 -5 847 98
-4 9 5 965 116
3 -9 -5 616 78
-3 9 5 726 94
2 -9 -5 1811 128
-2 9 5 1808 140
1 -9 -5 4131 220
-1 9 5 3976 231
0 -9 -5 2850 168
0 9 5 3002 161
0 9 5 3053 181
-1 -9 -5 2778 160
-1 -9 -5 2736 175
1 9 5 3027 161
-2 -9 -5 2895 179
-2 -9 -5 2969 162
2 9 5 2836 164
-3 -9 -5 909 74
-3 -9 -5 887 93
3 9 5 864 80
-4 -9 -5 1046 103
4 9 5 1129 96
-5 -9 -5 1081 107
5 9 5 971 94
-6 -9 -5 1376 129
6 9 5 1369 118
3 -10 -5 1155 112
-3 10 5 1259 126
2 -10 -5 538 75
-2 10 5 579 85
1 -10 -5 2135 143
-1 10 5 2215 156
0 -10 -5 1416 105
0 10 5 1300 114
-1 -10 -5 1671 116
1 10 5 1673 113
1 10 5 1670 127
-2 -10 -5 2457 167
-2 -10 -5 2494 147
2 10 5 2496 152
-3 -10 -5 1858 142
-3 -10 -5 1824 118
3 10 5 1820 128
-4 -10 -5 976 106
4 10 5 1189 100
-5 -10 -5 466 81
5 10 5 432 75
2 -11 -5 69 44
-2 11 5 86 51
1 -11 -5 573 76
-1 11 5 438 81
0 -11 -5 540 71
0 11 5 473 78
-1 -11 -5 356 59
1 11 5 293 63
-2 -11 -5 241 63
-2 -11 -5 239 50
2 11 5 270 56
-3 -11 -5 283 67
3 11 5 259 58
-4 -11 -5 362 78
4 11 5 593 81
0 -12 -5 1578 126
0 12 5 1526 138
-1 -12 -5 838 91
1 12 5 720 98
-2 -12 -5 883 89
-2 -12 -5 958 108
2 12 5 699 89
3 12 5 663 88
3 10 -6 340 62
-3 -10 6 297 62
2 10 -6 444 64
-2 -10 6 495 72
1 10 -6 150 41
-1 -10 6 184 48
0 10 -6 131 39
0 -10 6 141 45
-1 10 -6 118 42
1 -10 6 127 46
-2 10 -6 162 48
2 -10 6 138 47
4 9 -6 163 50
-4 -9 6 255 60
3 9 -6 818 81
-3 -9 6 804 86
2 9 -6 1509 111
-2 -9 6 1683 121
1 9 -6 1427 104
-1 -9 6 1395 107
0 9 -6 2293 137
0 -9 6 2217 139
0 -9 6 2214 139
-1 9 -6 530 66
1 -9 6 448 66
-2 9 -6 682 76
2 -9 6 512 70
-3 9 -6 272 56
3 -9 6 301 58
5 8 -6 2305 151
-5 -8 6 2172 156
-5 -8 6 2163 159
4 8 -6 203 50
-4 -8 6 253 56
-4 -8 6 276 59
3 8 -6 1387 100
-3 -8 6 1203 99
-3 -8 6 1227 105
2 8 -6 2511 152
-2 -8 6 2652 160
-2 -8 6 2657 156
1 8 -6 1893 116
1 8 -6 1798 122
-1 -8 6 2142 127
0 8 -6 2566 151
0 -8 6 2836 158
0 -8 6 2799 155
-1 8 -6 3953 208
1 -8 6 3853 208
-2 8 -6 1348 103
2 -8 6 1325 103
-3 8 -6 708 77
3 -8 6 677 76
-4 8 -6 1094 101
4 -8 6 1067 100
5 7 -6 1073 99
-5 -7 6 943 98
-5 -7 6 997 101
4 7 -6 539 73
-4 -7 6 681 78
-4 -7 6 679 74
3 7 -6 976 85
-3 -7 6 1075 89
-3 -7 6 1054 91
2 7 -6 4155 209
-2 -7 6 3913 212
-2 -7 6 3892 208
1 7 -6 820 73
1 7 -6 787 65
-1 -7 6 1099 80
-1 -7 6 1009 75
0 7 -6 1002 73
0 -7 6 928 77
0 -7 6 972 74
0 -7 6 928 71
-1 7 -6 2625 153
1 -7 6 2815 156
1 -7 6 2836 148
-2 7 -6 1597 111
2 -7 6 1695 111
-3 7 -6 1715 119
3 -7 6 1748 119
-4 7 -6 960 93
4 -7 6 992 90
-5 7 -6 1009 101
5 -7 6 1100 101
6 6 -6 162 53
-6 -6 6 122 46
-6 -6 6 150 51
5 6 -6 544 74
-5 -6 6 658 78
-5 -6 6 640 78
4 6 -6 661 73
-4 -6 6 637 73
-4 -6 6 720 75
3 6 -6 23 26
-3 -6 6 77 33
-3 -6 6 77 31
2 6 -6 6537 300
-2 -6 6 6091 298
-2 -6 6 5944 300
1 6 -6 2260 136
1 6 -6 2371 128
-1 -6 6 2641 135
-1 -6 6 2481 139
0 6 -6 659 59
0 -6 6 787 59
0 -6 6 802 63
0 -6 6 782 66
-1 6 -6 1848 101
-1 6 -6 1863 110
1 -6 6 1631 109
-2 6 -6 318 46
2 -6 6 178 31
2 -6 6 180 40
-3 6 -6 354 54
-4 6 -6 149 41
4 -6 6 61 34
-5 6 -6 838 88
5 -6 6 848 88
-6 6 -6 118 49
6 -6 6 283 61
6 5 -6 488 75
-6 -5 6 399 69
-6 -5 6 412 77
5 5 -6 2126 134
-5 -5 6 1880 131
-5 -5 6 1814 135
4 5 -6 861 80
-4 -5 6 874 79
-4 -5 6 898 80
3 5 -6 1439 108
-3 -5 6 1836 114
-3 -5 6 1896 112
2 5 -6 6520 304
2 5 -6 6298 317
-2 -5 6 7123 323
-2 -5 6 7014 317
1 5 -6 4593 223
1 5 -6 4759 234
-1 -5 6 4974 236
-1 -5 6 4803 228
0 5 -6 1731 99
0 -5 6 1732 104
0 -5 6 1708 101
0 -5 6 1721 94
-1 5 -6 4574 215
-1 5 -6 4431 203
1 -5 6 4074 207
1 -5 6 4166 213
-2 5 -6 5932 279
-2 5 -6 6102 268
2 -5 6 5523 276
2 -5 6 5393 264
-3 5 -6 706 66
-3 5 -6 645 58
3 -5 6 649 64
-4 5 -6 2849 166
4 -5 6 2870 164
-5 5 -6 2120 137
5 -5 6 1905 132
-6 5 -6 498 74
6 -5 6 465 73
6 4 -6 540 78
-6 -4 6 479 69
-6 -4 6 470 75
5 4 -6 1254 101
-5 -4 6 1289 107
-5 -4 6 1281 99
4 4 -6 976 81
-4 -4 6 842 78
-4 -4 6 892 76
3 4 -6 1244 87
-3 -4 6 1079 82
-3 -4 6 1141 84
2 4 -6 2908 148
2 4 -6 2839 130
-2 -4 6 2593 147
-2 -4 6 2495 140
1 4 -6 10904 493
1 4 -6 11142 504
-1 -4 6 11411 497
-1 -4 6 11539 506
0 4 -6 4101 213
0 -4 6 4642 218
0 -4 6 4604 207
0 -4 6 4788 221
-1 4 -6 7094 342
-1 4 -6 7667 356
1 -4 6 8226 359
1 -4 6 8231 354
-2 4 -6 2926 157
-2 4 -6 2911 145
2 -4 6 3011 157
2 -4 6 3059 148
-3 4 -6 1955 117
-3 4 -6 2042 109
3 -4 6 1856 100
3 -4 6 1779 114
-4 4 -6 865 72
-4 4 -6 920 78
4 -4 6 978 78
-5 4 -6 2929 171
-5 4 -6 2874 167
5 -4 6 2908 168
-6 4 -6 2048 141
6 -4 6 2132 142
-7 4 -6 756 93
7 -4 6 827 93
7 3 -6 368 71
-7 -3 6 434 84
6 3 -6 494 75
-6 -3 6 499 79
-6 -3 6 593 70
5 3 -6 2182 138
-5 -3 6 2029 130
-5 -3 6 2088 141
4 3 -6 6164 298
-4 -3 6 6154 303
-4 -3 6 5981 295
3 3 -6 6430 308
-3 -3 6 6325 308
-3 -3 6 6724 310
2 3 -6 10608 449
2 3 -6 10320 465
-2 -3 6 10425 467
-2 -3 6 9922 460
1 3 -6 18350 793
1 3 -6 18249 803
-1 -3 6 18414 803
-1 -3 6 18582 794
0 3 -6 3511 170
0 -3 6 3498 174
0 -3 6 3628 174
0 -3 6 3545 161
-1 3 -6 1215 62
-1 3 -6 1283 77
1 -3 6 1265 74
1 -3 6 1273 78
-2 3 -6 5051 236
-2 3 -6 4882 221
2 -3 6 4702 232
2 -3 6 4898 226
-3 3 -6 2149 108
-3 3 -6 2111 118
3 -3 6 1773 101
3 -3 6 1795 112
-4 3 -6 364 50
-4 3 -6 348 46
4 -3 6 234 43
-5 3 -6 3018 170
-5 3 -6 3006 165
5 -3 6 2879 167
-6 3 -6 1113 93
-6 3 -6 1140 96
6 -3 6 945 90
-7 3 -6 527 76
7 -3 6 652 80
7 2 -6 572 87
-7 -2 6 428 85
6 2 -6 858 91
-6 -2 6 960 97
-6 -2 6 859 80
5 2 -6 211 47
-5 -2 6 223 42
-5 -2 6 239 52
4 2 -6 991 79
-4 -2 6 819 68
-4 -2 6 815 76
-3 -2 6 1529 96
-3 -2 6 1415 92
2 2 -6 3591 178
2 2 -6 3566 163
-2 -2 6 3581 178
-2 -2 6 3539 175
1 2 -6 10383 453
1 2 -6 10286 445
-1 -2 6 10164 453
-1 -2 6 9806 443
0 2 -6 18416 789
0 -2 6 17776 776
0 -2 6 18634 792
0 -2 6 18167 792
-1 2 -6 8016 362
1 -2 6 8212 362
1 -2 6 7926 360
-2 2 -6 1554 92
-2 2 -6 1613 78
-3 2 -6 574 47
-3 2 -6 585 55
3 -2 6 798 58
-4 2 -6 609 57
-4 2 -6 538 50
4 -2 6 460 42
4 -2 6 403 51
-5 2 -6 1870 119
-5 2 -6 1828 117
5 -2 6 1987 120
-6 2 -6 1270 99
-6 2 -6 1324 101
6 -2 6 1143 95
-7 2 -6 303 58
-7 2 -6 290 60
7 -2 6 235 53
7 1 -6 549 87
-7 -1 6 715 101
6 1 -6 207 53
-6 -1 6 193 54
5 1 -6 371 60
-5 -1 6 285 56
-5 -1 6 306 46
4 1 -6 4811 225
-4 -1 6 4076 225
-4 -1 6 4064 213
3 1 -6 2484 133
3 1 -6 2505 112
-3 -1 6 2190 126
-3 -1 6 2194 133
2 1 -6 1154 75
2 1 -6 1151 63
1 1 -6 36764 1571
1 1 -6 36624 1565
-1 -1 6 36867 1572
-1 -1 6 36689 1571
0 1 -6 15900 737
0 -1 6 17868 743
0 -1 6 17366 739
0 -1 6 17159 725
-1 1 -6 2743 132
1 -1 6 2567 129
1 -1 6 2461 127
-2 1 -6 4255 196
-2 1 -6 4192 210
2 -1 6 4772 209
2 -1 6 4544 207
-3 1 -6 1265 71
-3 1 -6 1238 79
3 -1 6 1211 73
3 -1 6 1213 77
-4 1 -6 738 63
-4 1 -6 744 59
-5 1 -6 1198 84
-5 1 -6 1184 85
5 -1 6 926 79
-6 1 -6 2318 138
-6 1 -6 2197 139
6 -1 6 2174 137
-7 1 -6 745 84
-7 1 -6 705 78
7 -1 6 715 79
7 0 -6 1079 108
-7 0 6 1061 117
6 0 -6 831 86
-6 0 6 689 92
5 0 -6 2154 144
-5 0 6 2417 133
-5 0 6 2535 156
4 0 -6 40 28
-4 0 6 26 30
-4 0 6 38 21
3 0 -6 5548 245
3 0 -6 5869 263
-3 0 6 5214 254
-3 0 6 5113 264
2 0 -6 1272 75
2 0 -6 1327 85
-2 0 6 1547 85
-2 0 6 1631 90
1 0 -6 12884 524
1 0 -6 12389 527
-1 0 6 11632 528
-1 0 6 11192 524
0 0 -6 15935 696
0 0 -6 16389 695
0 0 6 16073 698
0 0 6 15906 687
-1 0 -6 12773 596
1 0 6 14123 598
1 0 6 14088 593
-2 0 -6 9686 444
-2 0 -6 9735 431
2 0 6 10229 439
2 0 6 10277 443
-3 0 -6 4585 206
-3 0 -6 4602 196
3 0 6 3711 196
3 0 6 3798 197
-4 0 -6 1095 77
-4 0 -6 1084 74
4 0 6 1036 73
4 0 6 1117 73
-5 0 -6 579 60
-5 0 -6 568 60
5 0 6 723 58
5 0 6 697 61
-6 0 -6 3029 176
-6 0 -6 3133 171
6 0 6 3005 170
-7 0 -6 1187 99
-7 0 -6 1327 111
7 0 6 1469 108
-8 0 -6 985 107
8 0 6 1104 106
7 -1 -6 714 94
-7 1 6 807 111
6 -1 -6 1098 100
-6 1 6 1058 106
5 -1 -6 1342 104
-5 1 6 1521 117
4 -1 -6 2541 147
4 -1 -6 2450 131
-4 1 6 2710 137
-4 1 6 2729 160
3 -1 -6 3360 157
3 -1 -6 3341 168
-3 1 6 3036 159
-3 1 6 3237 176
2 -1 -6 3728 177
2 -1 -6 3742 184
-2 1 6 3870 182
-2 1 6 3805 190
1 -1 -6 15815 680
1 -1 -6 16184 681
-1 1 6 15836 683
-1 1 6 14951 681
0 -1 -6 50532 2152
0 1 6 48217 2138
0 1 6 50139 2158
-1 -1 -6 28074 1151
-1 -1 -6 26669 1153
1 1 6 26263 1145
1 1 6 26388 1153
-2 -1 -6 23705 1023
-2 -1 -6 23443 1013
2 1 6 23499 1014
2 1 6 24100 1022
-3 -1 -6 4540 221
-3 -1 -6 4569 226
3 1 6 4840 220
3 1 6 5022 227
-4 -1 -6 1229 85
-4 -1 -6 1180 81
4 1 6 1373 83
4 1 6 1330 79
-5 -1 -6 2152 126
-5 -1 -6 2042 125
5 1 6 2191 122
-6 -1 -6 1712 107
-6 -1 -6 1730 112
6 1 6 1355 99
6 1 6 1283 95
-7 -1 -6 771 84
7 1 6 731 77
-8 -1 -6 237 60
8 1 6 193 52
7 -2 -6 1036 107
-7 2 6 1017 120
6 -2 -6 1131 103
-6 2 6 1241 118
5 -2 -6 802 77
-5 2 6 602 81
4 -2 -6 141 29
4 -2 -6 110 35
3 -2 -6 953 71
3 -2 -6 930 63
-3 2 6 990 81
-3 2 6 885 60
2 -2 -6 3529 186
2 -2 -6 3632 185
-2 2 6 4220 187
-2 2 6 4289 199
1 -2 -6 8728 400
-1 2 6 9083 404
-1 2 6 9232 401
0 -2 -6 18222 798
0 -2 -6 19238 807
0 2 6 18372 807
0 2 6 18748 804
-1 -2 -6 3950 173
-1 -2 -6 4105 168
1 2 6 3087 169
1 2 6 3090 159
-2 -2 -6 7557 363
-2 -2 -6 7642 359
2 2 6 8578 353
2 2 6 8517 365
-3 -2 -6 3093 160
-3 -2 -6 3069 162
3 2 6 3375 154
3 2 6 3428 165
-4 -2 -6 3522 175
-4 -2 -6 3599 179
4 2 6 3330 174
4 2 6 3286 167
-5 -2 -6 2536 157
-5 -2 -6 2723 154
5 2 6 3274 159
5 2 6 3020 151
-6 -2 -6 1849 117
-6 -2 -6 2003 131
6 2 6 2019 118
-7 -2 -6 707 83
7 2 6 664 73
-8 -2 -6 311 66
8 2 6 232 53
6 -3 -6 702 82
-6 3 6 639 96
5 -3 -6 1042 88
-5 3 6 914 99
4 -3 -6 382 53
4 -3 -6 361 45
-4 3 6 509 68
3 -3 -6 913 66
3 -3 -6 943 69
-3 3 6 893 79
-3 3 6 934 60
-2 3 6 112 32
-2 3 6 159 27
-1 3 6 195 32
-1 3 6 217 29
0 -3 -6 3772 175
0 -3 -6 3823 186
0 3 6 3893 187
0 3 6 4149 188
-1 -3 -6 2922 124
-1 -3 -6 2810 138
-1 -3 -6 2964 140
1 3 6 2331 137
-2 -3 -6 5968 269
-2 -3 -6 5878 269
2 3 6 5727 270
2 3 6 5634 253
-3 -3 -6 1179 81
-3 -3 -6 1084 79
3 3 6 1435 70
3 3 6 1518 86
4 3 6 205 36
4 3 6 213 31
-5 -3 -6 388 54
-6 -3 -6 1924 125
-6 -3 -6 2021 141
6 3 6 2354 134
6 3 6 2393 128
-7 -3 -6 431 73
7 3 6 437 62
7 3 6 442 64
-8 -3 -6 349 72
8 3 6 259 54
6 -4 -6 269 57
-6 4 6 231 71
5 -4 -6 799 73
5 -4 -6 789 78
-5 4 6 828 97
4 -4 -6 323 47
4 -4 -6 327 51
-4 4 6 257 56
3 -4 -6 3131 164
3 -4 -6 2997 164
-3 4 6 3213 154
-3 4 6 3352 184
2 -4 -6 2044 122
2 -4 -6 2174 118
-2 4 6 2460 118
-2 4 6 2420 136
1 -4 -6 4201 188
1 -4 -6 4308 200
-1 4 6 3906 193
-1 4 6 3876 203
0 -4 -6 8870 398
0 -4 -6 9217 415
0 4 6 9564 414
0 4 6 9336 418
-1 -4 -6 6768 308
-1 -4 -6 6829 312
1 4 6 6573 309
-2 -4 -6 4566 212
-2 -4 -6 4360 214
2 4 6 4257 213
-3 -4 -6 5788 286
-3 -4 -6 5723 279
3 4 6 6252 264
3 4 6 6230 285
-4 -4 -6 1760 103
-4 -4 -6 1710 111
4 4 6 1705 91
4 4 6 1829 109
-5 -4 -6 1331 95
-5 -4 -6 1329 83
5 4 6 1051 73
5 4 6 1007 84
-6 -4 -6 1395 114
6 4 6 1559 108
6 4 6 1637 99
-7 -4 -6 1239 113
7 4 6 1152 99
7 4 6 1276 115
-8 -4 -6 297 69
6 -5 -6 1179 105
-6 5 6 1065 125
5 -5 -6 1221 93
5 -5 -6 1203 95
-5 5 6 997 112
4 -5 -6 1901 119
4 -5 -6 1899 122
-4 5 6 2073 146
3 -5 -6 2893 156
3 -5 -6 2828 150
-3 5 6 2739 170
2 -5 -6 5435 276
2 -5 -6 5562 266
-2 5 6 6151 291
-2 5 6 5954 265
1 -5 -6 3468 187
1 -5 -6 3514 172
-1 5 6 3934 197
-1 5 6 4036 183
0 -5 -6 15340 680
0 -5 -6 15329 659
0 5 6 15406 678
0 5 6 15704 686
-1 -5 -6 5498 271
-1 -5 -6 5595 266
1 5 6 5867 268
-2 -5 -6 7318 343
-2 -5 -6 7533 335
2 5 6 6974 336
-3 -5 -6 3110 173
-3 -5 -6 3207 165
3 5 6 3496 173
-4 -5 -6 3894 210
-4 -5 -6 3929 195
4 5 6 4018 205
-5 -5 -6 2604 142
-5 -5 -6 2567 160
5 5 6 2786 155
-6 -5 -6 1636 124
6 5 6 1560 114
-7 -5 -6 2254 160
7 5 6 2179 146
5 -6 -6 475 69
5 -6 -6 533 70
-5 6 6 473 91
4 -6 -6 570 63
4 -6 -6 572 67
-4 6 6 523 80
3 -6 -6 833 75
3 -6 -6 750 64
-3 6 6 1023 94
2 -6 -6 3583 176
2 -6 -6 3567 190
-2 6 6 3683 203
1 -6 -6 3987 193
1 -6 -6 4152 213
-1 6 6 4383 223
-1 6 6 4427 205
0 -6 -6 11254 507
0 6 6 11379 501
0 6 6 11017 513
-1 -6 -6 2469 149
-1 -6 -6 2521 141
1 6 6 2963 145
-2 -6 -6 2228 121
-2 -6 -6 2212 132
2 6 6 1991 122
-3 -6 -6 4577 227
-3 -6 -6 4365 239
3 6 6 5127 238
-4 -6 -6 1397 107
4 6 6 1556 103
-5 -6 -6 905 69
-5 -6 -6 962 90
5 6 6 983 84
-6 -6 -6 895 93
6 6 6 844 83
-7 -6 -6 1890 151
7 6 6 2144 145
5 -7 -6 357 63
-5 7 6 283 74
4 -7 -6 201 48
-4 7 6 238 64
3 -7 -6 1500 108
-3 7 6 1442 122
2 -7 -6 423 56
-2 7 6 347 60
1 -7 -6 1625 100
-1 7 6 1281 101
-1 7 6 1182 82
0 -7 -6 1455 98
0 7 6 1445 92
0 7 6 1547 106
-1 -7 -6 3186 178
-1 -7 -6 3075 166
1 7 6 3113 165
-2 -7 -6 1772 109
-2 -7 -6 1814 122
2 7 6 1904 114
-3 -7 -6 330 44
-3 -7 -6 311 53
3 7 6 214 45
-4 -7 -6 26 28
-4 -7 -6 6 9
4 7 6 113 35
-5 -7 -6 88 41
5 7 6 31 32
-6 -7 -6 186 53
6 7 6 194 51
-7 -7 -6 621 94
7 7 6 580 85
-4 8 6 346 76
3 -8 -6 753 80
-3 8 6 751 93
2 -8 -6 1025 89
-2 8 6 1090 101
1 -8 -6 1490 105
-1 8 6 1457 113
0 -8 -6 4793 248
0 8 6 4997 241
0 8 6 4908 258
-1 -8 -6 3962 202
-1 -8 -6 3781 213
1 8 6 3755 198
-2 -8 -6 2574 156
-2 -8 -6 2689 143
2 8 6 2094 138
-3 -8 -6 4120 208
-3 -8 -6 4059 228
3 8 6 4037 216
-4 -8 -6 2495 166
4 8 6 2791 161
-5 -8 -6 1114 105
5 8 6 1100 97
-6 -8 -6 669 92
6 8 6 459 74
7 8 6 632 88
4 -9 -6 452 75
-4 9 6 381 86
3 -9 -6 163 47
-3 9 6 283 69
2 -9 -6 1172 101
-2 9 6 1262 114
1 -9 -6 2169 136
-1 9 6 1842 139
0 -9 -6 2811 160
0 9 6 2588 169
0 9 6 2670 150
-1 -9 -6 4199 222
-1 -9 -6 4076 235
1 9 6 4178 233
1 9 6 4432 221
-2 -9 -6 2341 155
-2 -9 -6 2361 138
2 9 6 2199 140
-3 -9 -6 1482 122
-3 -9 -6 1520 102
3 9 6 1608 114
-4 -9 -6 1630 132
4 9 6 1639 120
-5 -9 -6 990 107
5 9 6 930 94
-6 -9 -6 549 86
6 9 6 509 81
3 -10 -6 506 80
-3 10 6 547 98
2 -10 -6 1023 98
-2 10 6 1050 111
1 -10 -6 758 82
-1 10 6 664 87
0 -10 -6 1371 108
0 10 6 1387 118
-1 -10 -6 1475 108
1 10 6 1440 118
1 10 6 1543 108
-2 -10 -6 3223 202
-2 -10 -6 3329 184
2 10 6 3158 185
-3 -10 -6 1083 107
-3 -10 -6 1216 92
3 10 6 1038 96
-4 -10 -6 1344 126
4 10 6 1430 116
-5 -10 -6 644 92
5 10 6 600 83
1 -11 -6 467 73
-1 11 6 363 73
0 -11 -6 549 74
0 11 6 418 77
-1 -11 -6 197 50
1 11 6 135 50
-2 -11 -6 419 78
-2 -11 -6 456 66
2 11 6 316 60
-3 -11 -6 880 102
-3 -11 -6 858 82
3 11 6 718 89
-4 -11 -6 113 53
4 11 6 208 56
-1 -12 -6 751 88
1 12 6 631 93
-2 -12 -6 558 91
-2 -12 -6 667 80
2 12 6 482 82
2 12 6 460 76
2 10 -7 349 62
-2 -10 7 234 56
1 10 -7 394 65
-1 -10 7 500 72
0 10 -7 308 55
0 -10 7 456 73
-1 10 -7 385 65
1 -10 7 416 69
-2 10 -7 127 48
2 -10 7 172 52
4 9 -7 782 91
-4 -9 7 893 101
3 9 -7 201 50
-3 -9 7 166 51
2 9 -7 925 86
-2 -9 7 867 90
1 9 -7 812 78
-1 -9 7 772 82
0 9 -7 520 63
0 -9 7 540 70
0 -9 7 528 67
-1 9 -7 457 63
1 -9 7 344 60
-2 9 -7 621 76
2 -9 7 668 81
-3 9 -7 295 63
3 -9 7 374 66
4 8 -7 392 66
-4 -8 7 390 69
3 8 -7 777 80
-3 -8 7 732 83
2 8 -7 1346 101
-2 -8 7 1256 103
1 8 -7 4448 238
-1 -8 7 4695 242
0 8 -7 4323 221
0 -8 7 4173 225
0 -8 7 4316 224
-1 8 -7 2401 147
1 -8 7 2427 148
-2 8 -7 1401 106
2 -8 7 1254 102
-3 8 -7 269 56
3 -8 7 247 52
-4 8 -7 469 76
4 -8 7 445 71
5 7 -7 1240 107
-5 -7 7 1104 109
-5 -7 7 1033 105
4 7 -7 157 46
-4 -7 7 141 47
-4 -7 7 137 43
3 7 -7 1769 121
-3 -7 7 1813 136
-3 -7 7 1804 126
2 7 -7 1044 86
-2 -7 7 1180 94
1 7 -7 953 82
1 7 -7 999 74
-1 -7 7 1181 86
0 7 -7 4313 226
0 -7 7 4766 234
0 -7 7 4537 230
-1 7 -7 1240 92
1 -7 7 1305 96
-2 7 -7 2238 142
2 -7 7 2414 144
-3 7 -7 2300 148
3 -7 7 2289 145
-4 7 -7 598 77
4 -7 7 533 73
-5 7 -7 295 65
5 -7 7 365 66
6 6 -7 443 76
-6 -6 7 575 88
-6 -6 7 618 87
5 6 -7 1429 118
-5 -6 7 1577 123
-5 -6 7 1643 124
4 6 -7 363 61
-4 -6 7 543 70
-4 -6 7 533 66
-3 -6 7 646 65
-3 -6 7 642 70
2 6 -7 2925 157
-2 -6 7 2637 156
-2 -6 7 2652 149
1 6 -7 1125 76
1 6 -7 1141 85
0 6 -7 2597 139
0 -6 7 2520 144
0 -6 7 2449 141
-1 6 -7 3848 209
1 -6 7 4202 213
1 -6 7 4282 207
-2 6 -7 302 49
2 -6 7 254 37
2 -6 7 264 45
-3 6 -7 328 55
-4 6 -7 193 48
4 -6 7 143 43
-5 6 -7 143 49
5 -6 7 133 45
6 5 -7 172 54
-6 -5 7 288 60
-6 -5 7 262 64
5 5 -7 1350 109
-5 -5 7 1286 106
-5 -5 7 1301 111
4 5 -7 724 78
-4 -5 7 775 76
-4 -5 7 785 77
3 5 -7 383 58
-3 -5 7 599 58
-3 -5 7 496 59
2 5 -7 8883 427
-2 -5 7 9554 433
-2 -5 7 9311 423
1 5 -7 4058 198
1 5 -7 3897 208
-1 -5 7 4302 212
-1 -5 7 4230 199
0 5 -7 3008 147
0 -5 7 2652 148
0 -5 7 2645 144
0 -5 7 2696 150
-1 5 -7 3658 186
1 -5 7 3561 187
1 -5 7 3620 182
-2 5 -7 2470 137
2 -5 7 2233 133
2 -5 7 2243 123
-3 5 -7 894 81
3 -5 7 1193 86
-4 5 -7 1467 108
4 -5 7 1270 100
-5 5 -7 886 88
5 -5 7 848 85
-6 5 -7 191 53
6 -5 7 145 49
6 4 -7 724 90
-6 -4 7 674 81
-6 -4 7 613 84
5 4 -7 1618 119
-5 -4 7 1517 119
-5 -4 7 1496 112
4 4 -7 1078 94
-4 -4 7 1276 96
-4 -4 7 1280 95
3 4 -7 30 29
-3 -4 7 60 28
-3 -4 7 41 22
2 4 -7 2743 134
2 4 -7 2501 148
-2 -4 7 2830 144
-2 -4 7 2885 154
1 4 -7 2067 113
1 4 -7 2072 122
-1 -4 7 2246 113
-1 -4 7 2228 125
0 4 -7 2331 128
0 -4 7 2392 117
0 -4 7 2468 132
0 -4 7 2509 134
-1 4 -7 8356 374
-1 4 -7 8562 392
1 -4 7 8597 390
1 -4 7 8805 395
-2 4 -7 11083 505
2 -4 7 11420 497
2 -4 7 10922 504
-3 4 -7 1171 86
3 -4 7 1074 81
3 -4 7 1103 71
-4 4 -7 1390 102
4 -4 7 1480 102
-5 4 -7 2769 164
5 -4 7 2598 160
-6 4 -7 873 92
6 -4 7 921 92
6 3 -7 955 100
-6 -3 7 967 103
-6 -3 7 983 91
5 3 -7 3268 189
-5 -3 7 3260 185
-5 -3 7 3270 194
4 3 -7 1718 114
-4 -3 7 1614 113
-4 -3 7 1581 107
3 3 -7 2827 149
-3 -3 7 2321 142
2 3 -7 7918 360
2 3 -7 8196 344
-2 -3 7 7449 352
-2 -3 7 7418 360
1 3 -7 5417 263
1 3 -7 5543 255
-1 -3 7 5694 252
0 3 -7 1893 107
0 -3 7 2009 94
0 -3 7 1968 111
0 -3 7 2088 113
-1 3 -7 14411 630
1 -3 7 14099 627
1 -3 7 14269 630
-2 3 -7 6372 284
-2 3 -7 6470 305
2 -3 7 6574 304
-3 3 -7 3159 172
-3 3 -7 3144 156
3 -3 7 3375 162
3 -3 7 3283 170
-4 3 -7 112 41
-4 3 -7 129 36
4 -3 7 84 31
-5 3 -7 2819 162
5 -3 7 2650 159
-6 3 -7 468 68
-7 3 -7 268 61
7 -3 7 298 62
6 2 -7 180 53
-6 -2 7 177 53
-6 -2 7 134 41
5 2 -7 2257 143
-5 -2 7 2108 145
-5 -2 7 2178 134
4 2 -7 3072 178
-4 -2 7 3273 175
-4 -2 7 3343 183
3 2 -7 1007 78
-3 -2 7 856 70
-3 -2 7 939 74
2 2 -7 4081 200
2 2 -7 4188 185
-2 -2 7 3807 198
-2 -2 7 3922 194
1 2 -7 4410 207
1 2 -7 4227 213
-1 -2 7 4550 203
-1 -2 7 4538 216
0 2 -7 2952 132
0 -2 7 2373 130
0 -2 7 2262 130
-1 2 -7 1519 92
1 -2 7 1633 92
1 -2 7 1585 91
-2 2 -7 4356 189
2 -2 7 4249 205
2 -2 7 4268 208
-3 2 -7 1361 90
-3 2 -7 1467 76
3 -2 7 1243 85
3 -2 7 1319 81
4 -2 7 193 33
4 -2 7 239 41
-5 2 -7 1320 91
-5 2 -7 1325 98
5 -2 7 1203 93
-6 2 -7 575 73
6 -2 7 635 71
-7 2 -7 66 39
7 -2 7 137 45
6 1 -7 120 51
-6 -1 7 250 60
5 1 -7 1071 93
-5 -1 7 969 78
-5 -1 7 895 91
4 1 -7 834 77
-4 -1 7 838 69
-4 -1 7 843 80
3 1 -7 2497 139
3 1 -7 2400 117
-3 -1 7 2398 139
-3 -1 7 2441 135
2 1 -7 10634 457
2 1 -7 10606 471
-2 -1 7 10440 467
-2 -1 7 10074 469
1 1 -7 9665 453
1 1 -7 9809 448
-1 -1 7 10509 447
-1 -1 7 10778 457
0 1 -7 5224 234
0 -1 7 4921 233
0 -1 7 4849 235
-1 1 -7 8879 385
1 -1 7 8420 381
1 -1 7 8274 383
-2 1 -7 7357 305
-2 1 -7 7157 327
2 -1 7 6771 321
2 -1 7 6966 321
-3 1 -7 2699 132
-3 1 -7 2728 146
3 -1 7 2730 141
-4 1 -7 1024 76
-4 1 -7 1054 69
4 -1 7 894 71
4 -1 7 893 66
-5 1 -7 2067 127
-5 1 -7 2064 122
5 -1 7 2200 148
5 -1 7 1997 124
-6 1 -7 1110 89
-6 1 -7 1114 92
6 -1 7 1083 90
-7 1 -7 218 52
7 -1 7 112 42
6 0 -7 232 54
-6 0 7 178 56
5 0 -7 215 49
-5 0 7 231 40
-5 0 7 210 52
4 0 -7 1442 97
-4 0 7 1282 85
-4 0 7 1106 95
-3 0 7 133 35
-3 0 7 93 26
2 0 -7 2041 105
2 0 -7 2045 115
1 0 -7 15655 695
1 0 -7 16117 692
-1 0 7 15700 692
-1 0 7 16332 699
0 0 -7 3701 188
0 0 -7 3675 190
0 0 7 4375 181
0 0 7 4338 195
-1 0 -7 9445 438
1 0 7 9852 438
1 0 7 10169 434
-2 0 -7 6108 279
-2 0 -7 6388 297
2 0 7 6685 291
2 0 7 6427 294
-3 0 -7 2816 132
-3 0 -7 2845 145
3 0 7 2464 138
3 0 7 2570 136
-4 0 -7 345 49
-4 0 -7 391 42
-5 0 -7 2352 131
-5 0 -7 2407 129
5 0 7 1903 118
5 0 7 1867 121
-6 0 -7 3209 186
-6 0 -7 3288 186
6 0 7 3688 188
-7 0 -7 949 91
-7 0 -7 979 94
7 0 7 1168 97
6 -1 -7 974 96
-6 1 7 911 101
5 -1 -7 2894 177
-5 1 7 3245 192
4 -1 -7 6142 305
-4 1 7 6365 318
-4 1 7 6385 297
3 -1 -7 3483 180
3 -1 -7 3496 168
-3 1 7 3438 188
-3 1 7 3460 174
-2 1 7 989 66
-2 1 7 921 70
1 -1 -7 13285 583
1 -1 -7 13372 584
-1 1 7 13530 587
-1 1 7 13138 584
0 -1 -7 4953 215
0 -1 -7 4346 208
0 1 7 4474 215
0 1 7 4407 205
-1 -1 -7 19297 841
1 1 7 19412 827
1 1 7 19586 841
1 1 7 19177 832
-2 -1 -7 13342 597
-2 -1 -7 13685 610
2 1 7 14325 601
2 1 7 14006 610
-3 -1 -7 8699 378
-3 -1 -7 8780 389
3 1 7 8218 385
3 1 7 8211 378
-4 -1 -7 12 24
-4 -1 -7 -2 18
4 1 7 11 18
4 1 7 20 23
-5 -1 -7 1464 97
-5 -1 -7 1407 94
5 1 7 1199 87
-6 -1 -7 1216 95
-6 -1 -7 1228 92
6 1 7 1096 87
6 1 7 1142 86
-7 -1 -7 242 54
-7 -1 -7 206 50
7 1 7 253 50
-8 -1 -7 636 88
8 1 7 664 81
6 -2 -7 1120 103
-6 2 7 1144 116
5 -2 -7 610 72
-5 2 7 616 82
4 -2 -7 582 67
4 -2 -7 621 56
-4 2 7 784 58
-4 2 7 755 79
3 -2 -7 198 32
3 -2 -7 172 36
-3 2 7 288 36
-3 2 7 248 47
2 -2 -7 2018 108
2 -2 -7 1942 110
-2 2 7 1908 108
-2 2 7 2131 119
1 -2 -7 11294 516
-1 2 7 12108 518
0 -2 -7 10674 462
0 -2 -7 10312 452
0 2 7 10341 462
0 2 7 10195 456
-1 -2 -7 2681 148
-1 -2 -7 2806 141
1 2 7 3240 139
1 2 7 3140 152
-2 -2 -7 6145 285
-2 -2 -7 6087 277
2 2 7 6089 285
2 2 7 6152 272
-3 -2 -7 8626 396
-3 -2 -7 8520 391
3 2 7 8723 385
3 2 7 8899 397
-4 -2 -7 911 71
-4 -2 -7 876 73
4 2 7 1075 66
4 2 7 1107 76
-5 -2 -7 473 58
-5 -2 -7 503 58
5 2 7 580 59
5 2 7 581 53
-6 -2 -7 1303 96
-6 -2 -7 1336 103
6 2 7 1330 95
6 2 7 1302 92
-7 -2 -7 124 44
7 2 7 183 44
-8 -2 -7 264 64
8 2 7 238 55
6 -3 -7 504 76
-6 3 7 432 83
5 -3 -7 1981 131
-5 3 7 1928 146
4 -3 -7 1178 84
4 -3 -7 1200 92
-4 3 7 1504 113
3 -3 -7 478 51
3 -3 -7 446 47
-3 3 7 338 56
-3 3 7 401 41
2 -3 -7 469 46
2 -3 -7 445 44
-2 3 7 338 39
-2 3 7 342 51
0 -3 -7 5780 275
0 -3 -7 5796 264
0 3 7 5985 275
0 3 7 6212 277
-1 -3 -7 4163 196
-1 -3 -7 4245 194
-1 -3 -7 3995 180
1 3 7 3736 196
-2 -3 -7 5585 271
-2 -3 -7 5373 267
2 3 7 6125 274
2 3 7 6058 255
-3 -3 -7 1173 80
-3 -3 -7 1214 78
3 3 7 1172 65
3 3 7 1191 82
-4 -3 -7 918 73
-4 -3 -7 892 70
4 3 7 877 58
4 3 7 899 73
-5 -3 -7 144 36
-5 -3 -7 160 36
-6 -3 -7 1913 131
6 3 7 1947 118
6 3 7 2061 127
-7 -3 -7 439 69
7 3 7 398 66
7 3 7 376 58
-8 -3 -7 438 79
6 -4 -7 353 65
-6 4 7 342 79
5 -4 -7 1166 98
-5 4 7 1177 116
4 -4 -7 2175 133
4 -4 -7 2070 128
-4 4 7 2356 153
3 -4 -7 519 55
3 -4 -7 489 52
-3 4 7 499 68
-3 4 7 570 46
2 -4 -7 1032 72
2 -4 -7 1102 66
-2 4 7 752 74
-2 4 7 794 60
1 -4 -7 5785 282
1 -4 -7 5897 272
-1 4 7 6320 290
-1 4 7 6088 279
0 -4 -7 1247 84
0 -4 -7 1286 70
0 4 7 1581 90
0 4 7 1488 87
-1 -4 -7 9299 414
-1 -4 -7 9150 412
-1 -4 -7 9084 390
1 4 7 8898 413
-2 -4 -7 5478 262
-2 -4 -7 5407 260
2 4 7 5474 238
2 4 7 5641 264
-3 -4 -7 5347 269
-3 -4 -7 5516 268
3 4 7 5950 274
3 4 7 5747 250
-4 -4 -7 2236 134
-4 -4 -7 2315 130
4 4 7 2323 135
4 4 7 2320 115
-5 -4 -7 339 54
-5 -4 -7 352 48
5 4 7 369 41
5 4 7 357 54
-6 -4 -7 951 91
-6 -4 -7 917 80
6 4 7 1269 94
-7 -4 -7 792 87
7 4 7 658 80
5 -5 -7 1556 114
5 -5 -7 1505 110
-5 5 7 1624 140
4 -5 -7 2486 147
4 -5 -7 2625 148
-4 5 7 2379 166
3 -5 -7 4252 225
-3 5 7 4700 247
2 -5 -7 974 76
2 -5 -7 1061 68
-2 5 7 976 84
-2 5 7 971 66
1 -5 -7 4711 234
1 -5 -7 4862 218
-1 5 7 4624 240
-1 5 7 4849 228
0 -5 -7 7738 368
0 -5 -7 7623 346
0 5 7 8295 367
0 5 7 8334 374
-1 -5 -7 13677 593
-1 -5 -7 13356 597
1 5 7 12896 591
-2 -5 -7 11078 500
-2 -5 -7 11128 493
2 5 7 10658 495
-3 -5 -7 7515 343
-3 -5 -7 7173 350
3 5 7 7479 349
-4 -5 -7 2439 133
-4 -5 -7 2319 142
4 5 7 2317 138
-5 -5 -7 1452 108
5 5 7 1359 101
-6 -5 -7 984 94
6 5 7 1062 91
-7 -5 -7 1269 115
7 5 7 1047 100
5 -6 -7 988 91
5 -6 -7 922 86
-5 6 7 828 109
4 -6 -7 1099 89
4 -6 -7 1261 98
-4 6 7 1219 114
3 -6 -7 699 69
3 -6 -7 719 62
-3 6 7 542 78
2 -6 -7 1390 87
2 -6 -7 1439 100
-2 6 7 1652 114
1 -6 -7 1820 116
-1 6 7 1932 124
-1 6 7 1966 110
0 -6 -7 8823 421
0 6 7 9362 429
0 6 7 9288 418
-1 -6 -7 1099 87
-1 -6 -7 1114 81
1 6 7 1298 84
-2 -6 -7 7197 339
-2 -6 -7 7447 350
2 6 7 7141 342
-3 -6 -7 2215 128
-3 -6 -7 2077 135
3 6 7 2525 137
-4 -6 -7 4603 241
-4 -6 -7 4649 228
4 6 7 4528 237
-5 -6 -7 1948 135
-5 -6 -7 1868 115
5 6 7 2051 130
-6 -6 -7 865 92
6 6 7 969 90
-7 -6 -7 959 107
7 6 7 1033 101
5 -7 -7 875 91
-5 7 7 604 102
4 -7 -7 519 72
-4 7 7 529 86
3 -7 -7 1745 121
-3 7 7 1802 139
2 -7 -7 595 64
-2 7 7 487 70
-1 7 7 988 72
-1 7 7 1084 91
0 -7 -7 2498 138
0 7 7 2161 129
0 7 7 2295 143
-1 -7 -7 1109 91
-1 -7 -7 1195 85
1 7 7 1087 82
-2 -7 -7 957 74
-2 -7 -7 985 84
2 7 7 935 77
-3 -7 -7 2861 151
-3 -7 -7 2720 163
3 7 7 2557 155
-4 -7 -7 165 35
-4 -7 -7 116 39
4 7 7 173 43
-5 -7 -7 110 50
-5 -7 -7 129 46
5 7 7 67 37
-6 -7 -7 170 54
6 7 7 170 50
-7 -7 -7 437 85
7 7 7 455 78
4 -8 -7 453 73
-4 8 7 325 76
3 -8 -7 887 87
-3 8 7 897 102
2 -8 -7 851 83
-2 8 7 914 94
1 -8 -7 592 68
-1 8 7 745 79
0 -8 -7 1063 86
0 8 7 1032 92
0 8 7 1030 79
-1 -8 -7 4512 244
-1 -8 -7 4692 234
1 8 7 4449 230
1 8 7 4449 240
-2 -8 -7 2400 150
-2 -8 -7 2487 138
2 8 7 1975 135
-3 -8 -7 2778 153
-3 -8 -7 2750 172
3 8 7 2600 159
-4 -8 -7 2313 157
-4 -8 -7 2429 138
4 8 7 2380 151
-5 -8 -7 1719 132
5 8 7 1635 124
-6 -8 -7 608 90
6 8 7 641 84
3 -9 -7 116 44
-3 9 7 125 57
2 -9 -7 1066 97
-2 9 7 1071 111
1 -9 -7 433 67
-1 9 7 510 74
0 -9 -7 1821 122
0 9 7 1629 109
0 9 7 1686 128
-1 -9 -7 2955 176
1 9 7 3178 187
1 9 7 3179 175
-2 -9 -7 1304 96
-2 -9 -7 1313 110
2 9 7 1176 96
-3 -9 -7 1297 97
-3 -9 -7 1283 115
3 9 7 1346 105
-4 -9 -7 1908 143
-4 -9 -7 1877 120
4 9 7 1877 134
-5 -9 -7 989 104
5 9 7 1093 102
-6 -9 -7 574 89
6 9 7 527 87
2 -10 -7 1233 110
-2 10 7 1411 130
1 -10 -7 210 51
-1 10 7 192 55
0 -10 -7 479 70
0 10 7 491 79
-1 -10 -7 1440 115
1 10 7 1768 119
1 10 7 1664 129
-2 -10 -7 1871 125
-2 -10 -7 1853 141
2 10 7 1754 126
-3 -10 -7 1125 91
-3 -10 -7 1089 107
3 10 7 904 94
-4 -10 -7 1195 121
4 10 7 1297 113
-5 -10 -7 408 80
5 10 7 355 69
1 -11 -7 195 54
-1 11 7 198 60
0 -11 -7 284 60
0 11 7 222 63
-1 -11 -7 406 66
1 11 7 391 75
-2 -11 -7 459 79
-2 -11 -7 364 61
2 11 7 444 73
-3 -11 -7 537 85
-3 -11 -7 493 69
3 11 7 314 65
-4 -11 -7 232 66
4 11 7 233 61
1 10 -8 210 50
-1 -10 8 283 61
0 10 -8 682 80
3 9 -8 636 83
-3 -9 8 520 84
2 9 -8 396 65
-2 -9 8 413 69
1 9 -8 219 50
-1 -9 8 367 64
0 9 -8 58 32
0 -9 8 115 41
0 -9 8 84 41
-1 9 -8 682 80
1 -9 8 765 83
-2 9 -8 777 88
2 -9 8 775 90
-3 9 -8 403 72
3 -9 8 442 74
4 8 -8 1158 109
-4 -8 8 1364 120
3 8 -8 843 87
-3 -8 8 916 95
2 8 -8 975 88
-2 -8 8 1006 93
1 8 -8 633 70
-1 -8 8 628 73
0 8 -8 2710 153
0 -8 8 2551 155
0 -8 8 2510 158
-1 8 -8 1957 125
1 -8 8 1556 120
-2 8 -8 1640 118
2 -8 8 1514 117
-3 8 -8 413 69
3 -8 8 442 70
-4 8 -8 933 100
4 -8 8 889 100
5 7 -8 902 98
-5 -7 8 804 97
4 7 -8 226 55
-4 -7 8 229 55
3 7 -8 1084 95
-3 -7 8 1104 100
2 7 -8 2995 171
-2 -7 8 2820 172
1 7 -8 4674 250
-1 -7 8 5054 253
0 7 -8 1329 100
0 -7 8 1685 112
0 -7 8 1704 109
-1 7 -8 3082 169
1 -7 8 2884 170
1 -7 8 2928 164
-2 7 -8 1505 111
2 -7 8 1517 112
-3 7 -8 991 92
3 -7 8 919 88
-4 7 -8 808 89
4 -7 8 755 88
-5 7 -8 544 87
5 -7 8 470 76
5 6 -8 1309 115
-5 -6 8 1368 118
4 6 -8 1029 96
-4 -6 8 963 93
3 6 -8 1298 101
-3 -6 8 1159 98
2 6 -8 1582 105
-2 -6 8 1262 100
1 6 -8 547 53
1 6 -8 539 60
-1 -6 8 523 60
0 6 -8 1204 93
0 -6 8 1671 106
0 -6 8 1638 102
-1 6 -8 2188 131
1 -6 8 2164 133
1 -6 8 2232 129
-2 6 -8 2027 130
2 -6 8 2070 119
2 -6 8 2056 130
-3 6 -8 409 61
3 -6 8 298 53
-4 6 -8 353 59
4 -6 8 223 51
-5 6 -8 292 61
5 -6 8 225 55
6 5 -8 312 69
-6 -5 8 465 83
-6 -5 8 451 76
5 5 -8 1014 98
-5 -5 8 915 93
-5 -5 8 913 93
4 5 -8 707 79
-4 -5 8 576 71
3 5 -8 111 38
-3 -5 8 29 27
-3 -5 8 56 27
2 5 -8 2554 145
-2 -5 8 2360 145
1 5 -8 2174 117
1 5 -8 2161 127
-1 -5 8 1917 124
0 5 -8 2823 158
0 -5 8 3043 165
0 -5 8 3231 166
-1 5 -8 1739 111
1 -5 8 1788 108
1 -5 8 1812 113
-2 5 -8 3164 174
2 -5 8 3229 165
2 -5 8 3114 173
-3 5 -8 1973 133
3 -5 8 2364 137
-4 5 -8 1253 101
4 -5 8 1270 99
-5 5 -8 424 69
5 -5 8 371 63
-6 5 -8 212 57
6 -5 8 185 54
6 4 -8 162 57
-6 -4 8 210 59
-6 -4 8 202 54
5 4 -8 1057 96
-5 -4 8 874 91
-5 -4 8 930 89
4 4 -8 347 60
-4 -4 8 393 59
-4 -4 8 364 56
-3 -4 8 638 61
-3 -4 8 615 67
2 4 -8 4104 215
-2 -4 8 4143 205
-2 -4 8 4294 218
1 4 -8 4383 221
1 4 -8 4525 211
-1 -4 8 4238 221
0 4 -8 2666 146
0 -4 8 2903 153
0 -4 8 2863 153
-1 4 -8 2432 133
1 -4 8 2381 131
1 -4 8 2256 133
-2 4 -8 5578 274
2 -4 8 5639 273
-3 4 -8 583 63
3 -4 8 635 53
3 -4 8 597 63
-4 4 -8 1423 106
4 -4 8 1432 103
-5 4 -8 831 86
5 -4 8 696 77
-6 4 -8 596 79
6 -4 8 508 75
6 3 -8 868 100
-6 -3 8 908 101
-6 -3 8 990 94
5 3 -8 1945 138
-5 -3 8 2167 137
-5 -3 8 2021 142
4 3 -8 2345 152
-4 -3 8 2629 154
-4 -3 8 2641 153
3 3 -8 71 33
-3 -3 8 21 22
-3 -3 8 19 25
2 3 -8 1204 67
2 3 -8 1204 82
-2 -3 8 912 77
-2 -3 8 903 68
1 3 -8 4849 224
1 3 -8 4906 234
-1 -3 8 4571 233
-1 -3 8 4628 217
0 3 -8 3983 185
0 -3 8 3603 187
0 -3 8 3494 185
-1 3 -8 11555 523
1 -3 8 11861 525
1 -3 8 11627 522
-2 3 -8 12859 575
2 -3 8 12771 573
2 -3 8 12772 568
-3 3 -8 2836 161
3 -3 8 2993 152
3 -3 8 3005 160
-4 3 -8 1152 91
4 -3 8 1258 91
-5 3 -8 1295 104
5 -3 8 1365 102
-6 3 -8 206 52
6 -3 8 171 47
-7 3 -8 527 84
7 -3 8 597 82
6 2 -8 811 97
-6 -2 8 952 88
-6 -2 8 920 100
5 2 -8 1276 105
-5 -2 8 1218 95
-5 -2 8 1314 107
4 2 -8 2226 142
-4 -2 8 2374 138
-4 -2 8 2234 142
3 2 -8 347 56
-3 -2 8 533 54
-3 -2 8 572 58
2 2 -8 6484 293
2 2 -8 6616 277
-2 -2 8 5561 288
-2 -2 8 5670 282
1 2 -8 3088 153
1 2 -8 3001 159
-1 -2 8 3091 146
-1 -2 8 3121 162
0 -2 8 157 31
0 -2 8 117 28
-1 2 -8 2301 120
1 -2 8 2023 116
1 -2 8 2010 116
-2 2 -8 8112 382
2 -2 8 8212 378
2 -2 8 8516 379
-3 2 -8 2893 164
3 -2 8 3268 163
-4 2 -8 98 33
4 -2 8 27 20
4 -2 8 29 24
-5 2 -8 1313 101
5 -2 8 1378 99
-6 2 -8 35 34
6 -2 8 8 29
-7 2 -8 35 39
7 -2 8 40 37
6 1 -8 305 66
-6 -1 8 423 79
5 1 -8 1653 123
-5 -1 8 1604 109
-5 -1 8 1612 123
4 1 -8 3009 175
-4 -1 8 3115 170
-4 -1 8 3221 181
-3 -1 8 331 43
2 1 -8 1966 123
2 1 -8 1925 111
-2 -1 8 2503 128
-2 -1 8 2388 122
-1 -1 8 336 40
-1 -1 8 329 33
0 1 -8 1961 114
0 1 -8 2105 116
0 -1 8 2410 122
1 -1 8 890 62
1 -1 8 906 64
-2 1 -8 10066 453
2 -1 8 9939 449
2 -1 8 9947 447
-3 1 -8 2177 129
-3 1 -8 2029 108
3 -1 8 2406 125
3 -1 8 2373 123
-4 1 -8 3098 168
-4 1 -8 3100 158
4 -1 8 3076 159
4 -1 8 2870 160
-5 1 -8 854 80
5 -1 8 1015 79
5 -1 8 941 77
-6 1 -8 307 55
6 -1 8 330 55
-7 1 -8 5 35
7 -1 8 1 32
6 0 -8 323 66
-6 0 8 368 72
5 0 -8 1335 106
-5 0 8 1232 91
-5 0 8 1271 111
4 0 -8 2664 159
-4 0 8 2760 165
-4 0 8 2820 153
3 0 -8 37 18
3 0 -8 59 30
2 0 -8 753 61
2 0 -8 704 51
-2 0 8 629 55
-2 0 8 529 55
1 0 -8 4778 232
1 0 -8 4903 230
-1 0 8 4857 236
-1 0 8 5132 229
0 0 -8 542 50
0 0 -8 530 46
0 0 8 683 53
0 0 8 666 39
-1 0 -8 675 60
1 0 8 964 58
1 0 8 881 63
-2 0 -8 7866 338
-2 0 -8 7861 361
2 0 8 7771 353
2 0 8 7877 360
-3 0 -8 6154 280
-3 0 -8 6334 300
3 0 8 6325 294
3 0 8 6245 290
-4 0 -8 959 75
4 0 8 707 63
4 0 8 684 61
-5 0 -8 2158 125
-5 0 -8 2207 134
5 0 8 2174 125
5 0 8 2125 127
-6 0 -8 1200 99
6 0 8 1456 100
-7 0 -8 256 56
7 0 8 311 56
6 -1 -8 497 76
-6 1 8 388 75
5 -1 -8 1954 137
-5 1 8 2028 146
4 -1 -8 12000 545
-4 1 8 11722 535
-4 1 8 11958 555
3 -1 -8 5383 267
3 -1 -8 5187 254
-3 1 8 5732 264
-3 1 8 5666 276
2 -1 -8 2255 127
2 -1 -8 2413 123
-2 1 8 2314 127
1 -1 -8 7855 364
1 -1 -8 7935 364
-1 1 8 8424 370
-1 1 8 8060 364
0 -1 -8 1588 90
0 -1 -8 1611 84
0 1 8 1405 88
0 1 8 1412 79
-1 -1 -8 15439 700
1 1 8 16321 692
1 1 8 15990 684
1 1 8 16082 702
-2 -1 -8 10103 449
-2 -1 -8 10247 432
2 1 8 9514 446
2 1 8 9757 437
-3 -1 -8 9851 450
-3 -1 -8 9959 436
3 1 8 9682 438
3 1 8 9913 447
-4 -1 -8 727 69
-4 -1 -8 797 61
4 1 8 903 70
4 1 8 830 62
-5 -1 -8 3623 192
-5 -1 -8 3676 188
5 1 8 3559 187
5 1 8 3439 183
-6 -1 -8 1191 95
-6 -1 -8 1223 96
6 1 8 1278 92
6 1 8 1337 95
-7 -1 -8 717 80
7 1 8 735 78
6 -2 -8 1098 108
-6 2 8 1160 121
5 -2 -8 354 59
-5 2 8 323 66
4 -2 -8 4405 227
4 -2 -8 4267 231
-4 2 8 4300 214
-4 2 8 4405 239
3 -2 -8 1378 88
3 -2 -8 1423 97
-3 2 8 1490 92
-3 2 8 1693 109
2 -2 -8 1296 81
2 -2 -8 1258 79
-2 2 8 1195 87
-2 2 8 1203 80
1 -2 -8 12281 575
-1 2 8 13460 579
-1 2 8 13454 580
0 -2 -8 6706 314
0 -2 -8 6845 324
0 2 8 7435 320
0 2 8 7256 326
-1 -2 -8 493 52
-1 -2 -8 512 39
1 2 8 722 43
-2 -2 -8 3646 177
-2 -2 -8 3643 188
2 2 8 3875 175
2 2 8 3849 189
-3 -2 -8 5692 282
-3 -2 -8 5831 273
3 2 8 6135 283
3 2 8 6008 269
-4 -2 -8 1258 82
-4 -2 -8 1286 91
4 2 8 1151 76
4 2 8 1254 88
-5 -2 -8 3064 168
-5 -2 -8 2975 169
5 2 8 3023 159
5 2 8 3132 168
-6 -2 -8 739 76
-6 -2 -8 718 77
6 2 8 841 69
6 2 8 818 76
7 2 8 149 42
6 -3 -8 665 85
-6 3 8 551 97
5 -3 -8 479 67
-5 3 8 362 74
4 -3 -8 1721 113
4 -3 -8 1689 104
-4 3 8 1549 122
3 -3 -8 2453 134
3 -3 -8 2544 139
-3 3 8 2370 149
-3 3 8 2405 130
-2 3 8 445 55
-2 3 8 454 46
1 -3 -8 3208 160
1 -3 -8 3079 151
-1 3 8 3146 162
-1 3 8 2919 157
0 -3 -8 1721 88
0 3 8 2020 103
0 3 8 1401 92
-1 -3 -8 680 42
-1 -3 -8 682 58
1 3 8 709 51
1 3 8 748 60
-2 -3 -8 4384 217
-2 -3 -8 4203 221
2 3 8 4750 205
2 3 8 4869 226
-3 -3 -8 5723 271
-3 -3 -8 5527 264
3 3 8 5659 253
3 3 8 5538 271
-4 -3 -8 561 54
-4 -3 -8 577 58
4 3 8 366 55
4 3 8 398 41
-5 -3 -8 209 42
5 3 8 86 26
5 3 8 97 34
-6 -3 -8 1829 121
-6 -3 -8 1846 125
6 3 8 1848 113
6 3 8 1874 124
-7 -3 -8 121 45
7 3 8 126 44
7 3 8 94 45
6 -4 -8 193 54
-6 4 8 162 64
5 -4 -8 905 89
-5 4 8 871 104
4 -4 -8 544 63
4 -4 -8 461 58
-4 4 8 427 77
3 -4 -8 3083 162
3 -4 -8 3057 163
-3 4 8 2935 177
-3 4 8 2998 155
2 -4 -8 1604 92
2 -4 -8 1589 98
-2 4 8 1351 89
-2 4 8 1508 107
1 -4 -8 924 66
1 -4 -8 881 55
-1 4 8 669 64
-1 4 8 596 57
0 -4 -8 4061 205
0 -4 -8 4195 187
0 4 8 4100 204
0 4 8 4084 204
-1 -4 -8 5968 280
-1 -4 -8 6105 279
-1 -4 -8 5971 258
1 4 8 5704 276
1 4 8 5774 281
-2 -4 -8 2733 150
-2 -4 -8 2752 151
-2 -4 -8 2761 129
2 4 8 3187 158
-3 -4 -8 5629 275
-3 -4 -8 5705 275
3 4 8 5785 278
3 4 8 5719 253
-4 -4 -8 2811 157
-4 -4 -8 2867 160
4 4 8 2987 164
4 4 8 2909 161
-5 -4 -8 361 52
-5 -4 -8 338 51
5 4 8 248 48
-6 -4 -8 1588 120
6 4 8 1726 120
-7 -4 -8 193 53
7 4 8 186 52
5 -5 -8 539 75
-5 5 8 552 92
4 -5 -8 2495 151
4 -5 -8 2703 155
-4 5 8 2616 176
3 -5 -8 1002 83
-3 5 8 1209 103
2 -5 -8 4497 212
2 -5 -8 4394 222
-2 5 8 4377 233
-2 5 8 4271 212
1 -5 -8 4359 222
1 -5 -8 4327 205
-1 5 8 4497 216
-1 5 8 4553 230
0 -5 -8 2041 116
0 5 8 1812 111
0 5 8 1848 115
-1 -5 -8 12512 549
-1 -5 -8 12111 549
1 5 8 12008 547
1 5 8 12077 548
-2 -5 -8 7509 346
-2 -5 -8 7523 349
2 5 8 7112 347
-3 -5 -8 6361 303
-3 -5 -8 6239 306
3 5 8 6447 309
-4 -5 -8 3512 190
-4 -5 -8 3481 184
4 5 8 3517 191
-5 -5 -8 1985 119
-5 -5 -8 1969 130
5 5 8 1749 124
-6 -5 -8 932 92
6 5 8 932 89
-7 -5 -8 1183 109
7 5 8 953 100
5 -6 -8 577 76
5 -6 -8 555 108
-5 6 8 461 90
4 -6 -8 633 72
4 -6 -8 616 103
-4 6 8 660 91
3 -6 -8 390 59
-3 6 8 408 71
2 -6 -8 231 43
-2 6 8 250 53
1 -6 -8 3410 196
-1 6 8 3925 191
-1 6 8 3993 209
0 -6 -8 396 54
0 6 8 542 60
0 6 8 580 56
-1 -6 -8 4758 227
-1 -6 -8 4620 231
1 6 8 4328 224
1 6 8 4207 226
-2 -6 -8 2986 165
-2 -6 -8 2957 170
2 6 8 3259 170
-3 -6 -8 2062 121
-3 -6 -8 2061 130
3 6 8 1910 125
-4 -6 -8 4433 222
-4 -6 -8 4266 233
4 6 8 4477 232
-5 -6 -8 2206 146
-5 -6 -8 2095 129
5 6 8 2168 141
-6 -6 -8 894 96
6 6 8 1006 95
-7 -6 -8 638 90
7 6 8 642 88
4 -7 -8 942 94
-4 7 8 1022 113
3 -7 -8 681 76
-3 7 8 757 93
2 -7 -8 1248 94
-2 7 8 1020 99
1 -7 -8 1672 107
-1 7 8 1362 109
-1 7 8 1368 93
0 7 8 350 50
0 7 8 447 61
1 7 8 865 76
1 7 8 811 72
-2 -7 -8 4127 222
-2 -7 -8 4152 213
2 7 8 4072 216
-3 -7 -8 547 68
-3 -7 -8 611 61
3 7 8 620 70
-4 -7 -8 1086 93
-4 -7 -8 1138 83
4 7 8 798 84
-5 -7 -8 321 47
-5 -7 -8 339 60
5 7 8 181 48
-6 -7 -8 215 58
6 7 8 166 50
-7 -7 -8 244 66
7 7 8 409 72
4 -8 -8 593 83
-4 8 8 532 95
3 -8 -8 1881 134
-3 8 8 1897 151
2 -8 -8 921 88
-2 8 8 962 99
1 -8 -8 854 86
-1 8 8 1150 100
0 8 8 1597 120
0 8 8 1701 108
-1 -8 -8 880 76
1 8 8 691 74
1 8 8 630 67
-2 -8 -8 1921 133
-2 -8 -8 1995 123
2 8 8 1733 123
-3 -8 -8 1403 98
-3 -8 -8 1432 113
3 8 8 1313 105
-4 -8 -8 1788 114
-4 -8 -8 1860 133
4 8 8 1546 120
-5 -8 -8 1472 121
5 8 8 1290 112
-6 -8 -8 594 84
6 8 8 598 85
3 -9 -8 125 45
-3 9 8 157 61
2 -9 -8 785 88
-2 9 8 889 104
1 -9 -8 1608 121
-1 9 8 1748 134
0 -9 -8 1647 123
0 9 8 1839 119
0 9 8 1954 138
-1 -9 -8 975 87
1 9 8 990 86
1 9 8 957 93
-2 -9 -8 1028 98
-2 -9 -8 992 87
2 9 8 1012 92
-3 -9 -8 1105 106
-3 -9 -8 1215 93
3 9 8 1312 104
-4 -9 -8 1459 126
-4 -9 -8 1461 105
4 9 8 1418 114
-5 -9 -8 1443 125
5 9 8 1263 114
-6 -9 -8 972 113
6 9 8 996 106
2 -10 -8 1156 109
-2 10 8 1068 121
1 -10 -8 956 98
-1 10 8 1099 113
0 -10 -8 564 74
-1 -10 -8 1332 110
1 10 8 1503 111
1 10 8 1525 123
-2 -10 -8 2005 150
-2 -10 -8 2027 136
2 10 8 2022 139
-3 -10 -8 1002 108
-3 -10 -8 966 89
3 10 8 1114 101
-4 -10 -8 647 75
-4 -10 -8 675 93
4 10 8 693 88
-5 -10 -8 459 84
5 10 8 381 73
1 -11 -8 1197 111
-1 11 8 1091 119
0 -11 -8 165 51
0 11 8 116 51
-1 -11 -8 144 46
1 11 8 131 52
-2 -11 -8 966 95
2 11 8 947 102
2 11 8 989 101
-3 -11 -8 339 61
-3 -11 -8 368 75
3 11 8 250 61
-4 -11 -8 521 93
4 11 8 503 86
2 9 -9 401 68
-2 -9 9 381 68
1 9 -9 372 64
-1 -9 9 495 74
0 9 -9 493 69
0 -9 9 525 72
-1 9 -9 1279 109
1 -9 9 1391 116
-2 9 -9 596 82
2 -9 9 704 86
3 8 -9 1327 112
-3 -8 9 1263 116
2 8 -9 442 70
-2 -8 9 365 66
1 8 -9 948 87
-1 -8 9 846 85
0 8 -9 609 70
0 8 -9 545 68
0 -8 9 620 71
0 -8 9 536 74
-1 8 -9 1262 99
1 -8 9 1069 101
-2 8 -9 1361 111
2 -8 9 1384 114
-3 8 -9 856 93
3 -8 9 980 97
4 7 -9 259 60
-4 -7 9 227 56
3 7 -9 1560 121
-3 -7 9 1526 122
2 7 -9 680 76
-2 -7 9 764 81
1 7 -9 1121 91
-1 -7 9 897 86
0 7 -9 2115 127
0 -7 9 1864 131
0 -7 9 2065 131
-1 7 -9 852 80
1 -7 9 834 76
1 -7 9 779 80
-2 7 -9 1598 117
2 -7 9 1637 119
-3 7 -9 1192 103
3 -7 9 1182 103
-4 7 -9 925 101
4 -7 9 1048 101
5 6 -9 785 95
-5 -6 9 920 100
4 6 -9 350 65
-4 -6 9 413 69
3 6 -9 1439 113
-3 -6 9 1477 114
2 6 -9 2567 149
-2 -6 9 2145 145
1 6 -9 647 68
-1 -6 9 615 67
0 6 -9 642 64
0 -6 9 650 70
0 -6 9 732 70
-1 6 -9 2451 144
1 -6 9 2441 141
1 -6 9 2290 144
-2 6 -9 727 73
2 -6 9 658 62
2 -6 9 677 73
-3 6 -9 1382 108
3 -6 9 1283 103
-4 6 -9 663 80
4 -6 9 518 77
-5 6 -9 253 60
5 -6 9 216 54
5 5 -9 693 90
-5 -5 9 829 92
4 5 -9 825 90
-4 -5 9 697 79
3 5 -9 861 86
-3 -5 9 1025 88
2 5 -9 136 39
-2 -5 9 258 49
1 5 -9 94 32
1 5 -9 84 29
-1 -5 9 54 29
0 -5 9 445 58
0 -5 9 419 52
-1 5 -9 2157 125
1 -5 9 1858 122
1 -5 9 1917 119
-2 5 -9 1405 103
2 -5 9 1560 106
-3 5 -9 1707 121
3 -5 9 1923 124
-4 5 -9 2234 148
4 -5 9 2323 147
-5 5 -9 744 87
5 -5 9 739 83
-6 5 -9 62 48
6 -5 9 143 51
5 4 -9 632 84
-5 -4 9 603 81
-5 -4 9 629 77
4 4 -9 533 72
-4 -4 9 383 62
-4 -4 9 410 94
3 4 -9 1177 98
-3 -4 9 1284 98
2 4 -9 769 72
-2 -4 9 760 73
1 4 -9 3979 192
1 4 -9 4074 204
-1 -4 9 3564 200
0 -4 9 686 65
0 -4 9 714 64
-1 4 -9 283 45
1 -4 9 366 47
1 -4 9 317 48
-2 4 -9 2011 123
2 -4 9 1898 121
2 -4 9 1996 117
-3 4 -9 425 59
3 -4 9 384 47
3 -4 9 440 57
-4 4 -9 2235 142
4 -4 9 2136 137
-5 4 -9 849 89
5 -4 9 940 88
-6 4 -9 365 68
6 -4 9 396 66
6 3 -9 320 72
-6 -3 9 354 64
-6 -3 9 273 64
5 3 -9 1737 132
-5 -3 9 1891 129
-5 -3 9 1765 131
4 3 -9 1513 114
-4 -3 9 1501 111
3 3 -9 6050 298
-3 -3 9 5839 289
-3 -3 9 6041 298
2 3 -9 949 81
-2 -3 9 1245 87
1 3 -9 3356 175
1 3 -9 3514 168
-1 -3 9 3009 174
0 3 -9 3582 190
0 -3 9 3899 196
0 -3 9 3856 195
-1 3 -9 1126 83
1 -3 9 1240 84
1 -3 9 1137 80
-2 3 -9 7203 348
2 -3 9 7343 347
2 -3 9 7540 344
-3 3 -9 2008 126
3 -3 9 2034 123
-4 3 -9 1685 116
4 -3 9 1660 112
-5 3 -9 1679 120
5 -3 9 1553 114
-6 3 -9 817 88
6 -3 9 747 84
6 2 -9 699 99
-6 -2 9 712 95
-6 -2 9 709 82
5 2 -9 1537 121
-5 -2 9 1516 112
-5 -2 9 1522 121
4 2 -9 942 89
-4 -2 9 1040 88
-4 -2 9 1027 85
3 2 -9 2628 151
-3 -2 9 2409 145
-3 -2 9 2475 143
2 2 -9 4382 209
2 2 -9 4454 225
-2 -2 9 4567 227
-2 -2 9 4393 214
1 2 -9 950 72
1 2 -9 948 67
0 2 -9 3421 168
0 2 -9 3259 168
0 -2 9 3090 169
-1 2 -9 2954 172
1 -2 9 3525 173
1 -2 9 3532 174
-2 2 -9 1580 107
2 -2 9 1807 105
2 -2 9 1767 105
-3 2 -9 1116 90
3 -2 9 1353 89
3 -2 9 1309 85
-4 2 -9 1042 85
4 -2 9 933 71
4 -2 9 931 77
-5 2 -9 1060 91
5 -2 9 1005 87
-6 2 -9 169 49
6 -2 9 89 40
-7 2 -9 191 57
7 -2 9 219 54
6 1 -9 244 63
-6 -1 9 290 66
5 1 -9 872 94
-5 -1 9 870 80
-5 -1 9 897 93
4 1 -9 974 88
-4 -1 9 941 81
-4 -1 9 1055 90
3 1 -9 1487 104
-3 -1 9 1431 98
-3 -1 9 1456 99
2 1 -9 1126 75
2 1 -9 1254 90
-2 -1 9 1324 89
-2 -1 9 1290 82
1 1 -9 2847 151
1 1 -9 2787 155
-1 -1 9 3092 159
-1 -1 9 3171 145
0 1 -9 919 69
0 1 -9 928 67
0 -1 9 910 70
-1 1 -9 1190 85
1 -1 9 1310 86
1 -1 9 1391 83
-2 1 -9 3408 175
2 -1 9 3211 166
2 -1 9 3164 168
-3 1 -9 2371 143
3 -1 9 2611 138
3 -1 9 2484 137
-4 1 -9 692 71
4 -1 9 847 69
-5 1 -9 1375 107
5 -1 9 1616 104
5 -1 9 1513 104
-6 1 -9 447 67
6 -1 9 368 60
-7 1 -9 60 42
7 -1 9 97 42
6 0 -9 136 54
-6 0 9 176 59
5 0 -9 1507 120
-5 0 9 1576 109
-5 0 9 1657 127
4 0 -9 433 64
-4 0 9 361 61
-4 0 9 421 54
3 0 -9 1010 78
3 0 -9 1060 82
-3 0 9 845 73
2 0 -9 3443 178
2 0 -9 3436 168
-2 0 9 3414 175
-2 0 9 3292 177
1 0 -9 2807 136
1 0 -9 2782 137
-1 0 9 2260 127
-1 0 9 2326 137
0 0 -9 679 56
0 0 -9 641 61
0 0 9 818 46
0 0 9 968 67
-1 0 -9 2785 147
1 0 9 2631 144
1 0 9 2687 138
-2 0 -9 9819 462
2 0 9 10447 455
2 0 9 10233 461
-3 0 -9 627 67
3 0 9 819 66
3 0 9 878 63
-4 0 -9 4385 219
4 0 9 4105 209
4 0 9 3951 206
-5 0 -9 651 76
5 0 9 796 70
-6 0 -9 431 70
6 0 9 498 64
-7 0 -9 65 42
7 0 9 125 43
6 -1 -9 263 61
-6 1 9 274 70
5 -1 -9 1965 139
-5 1 9 2085 147
4 -1 -9 6353 320
-4 1 9 6535 312
-4 1 9 6602 329
3 -1 -9 4953 244
3 -1 -9 4877 230
-3 1 9 4661 238
-3 1 9 4884 249
2 -1 -9 4263 207
2 -1 -9 4123 199
-2 1 9 4125 208
-2 1 9 3878 204
1 -1 -9 5177 232
1 -1 -9 4937 231
-1 1 9 4483 227
-1 1 9 4609 233
0 -1 -9 2535 136
0 -1 -9 2500 129
0 1 9 2581 124
0 1 9 2490 137
-1 -1 -9 1912 110
1 1 9 1888 99
1 1 9 1729 107
1 1 9 1813 89
-2 -1 -9 25477 1107
-2 -1 -9 25256 1086
2 1 9 25378 1106
2 1 9 25687 1096
-3 -1 -9 8116 396
-3 -1 -9 8412 378
3 1 9 8847 396
3 1 9 8764 386
-4 -1 -9 2283 134
-4 -1 -9 2152 118
4 1 9 2146 121
4 1 9 2158 128
-5 -1 -9 4110 216
5 1 9 3945 204
5 1 9 4022 209
-6 -1 -9 790 80
6 1 9 808 75
-7 -1 -9 683 85
7 1 9 763 80
6 -2 -9 317 68
-6 2 9 350 76
5 -2 -9 700 84
-5 2 9 769 91
4 -2 -9 2387 145
-4 2 9 2283 133
-4 2 9 2457 157
3 -2 -9 1488 102
3 -2 -9 1558 94
-3 2 9 1541 110
-3 2 9 1470 96
2 -2 -9 1208 83
2 -2 -9 1241 86
-2 2 9 1407 94
-2 2 9 1406 88
1 -2 -9 6255 299
-1 2 9 6314 301
-1 2 9 6664 301
0 -2 -9 3256 152
0 -2 -9 3326 162
0 2 9 2936 152
0 2 9 2910 160
1 2 9 782 51
1 2 9 740 63
-2 -2 -9 5615 265
-2 -2 -9 5586 249
2 2 9 5318 263
2 2 9 5275 248
-3 -2 -9 7372 345
-3 -2 -9 7593 360
3 2 9 7820 359
3 2 9 7816 345
-4 -2 -9 1166 88
-4 -2 -9 1090 76
4 2 9 1153 74
4 2 9 1171 87
-5 -2 -9 5102 263
-5 -2 -9 5236 270
5 2 9 5489 269
5 2 9 5615 260
-6 -2 -9 736 94
-6 -2 -9 702 79
6 2 9 843 79
6 2 9 856 73
-7 -2 -9 32 38
7 2 9 130 39
5 -3 -9 607 76
-5 3 9 426 84
4 -3 -9 1464 100
4 -3 -9 1413 104
-4 3 9 1547 123
3 -3 -9 236 39
3 -3 -9 209 41
-3 3 9 233 49
-3 3 9 236 38
2 -3 -9 2460 130
2 -3 -9 2661 135
-2 3 9 2208 131
-2 3 9 2245 139
1 -3 -9 1445 88
1 -3 -9 1414 95
-1 3 9 1736 97
0 -3 -9 1519 96
0 -3 -9 1529 84
0 3 9 1504 90
0 3 9 1564 97
-1 -3 -9 96 29
1 3 9 9 22
1 3 9 44 18
-2 -3 -9 5367 259
-2 -3 -9 5496 249
2 3 9 5207 258
2 3 9 5104 238
-3 -3 -9 3803 200
-3 -3 -9 3757 190
3 3 9 3975 181
3 3 9 3842 200
-4 -3 -9 1174 86
-4 -3 -9 1154 77
4 3 9 845 80
4 3 9 807 62
-5 -3 -9 1684 115
-5 -3 -9 1623 111
5 3 9 1715 101
5 3 9 1747 116
-6 -3 -9 1001 89
-6 -3 -9 1043 90
6 3 9 1073 91
7 3 9 62 42
5 -4 -9 316 59
-5 4 9 254 68
4 -4 -9 2122 130
4 -4 -9 2200 135
-4 4 9 2029 152
3 -4 -9 1741 111
3 -4 -9 1759 114
-3 4 9 1960 115
-3 4 9 1850 129
-2 4 9 503 52
-2 4 9 627 69
1 -4 -9 1096 77
1 -4 -9 1043 65
-1 4 9 881 70
-1 4 9 848 75
0 -4 -9 2010 108
0 -4 -9 2075 125
0 4 9 2524 129
-1 -4 -9 1204 65
-1 -4 -9 1253 86
-2 -4 -9 2367 126
-2 -4 -9 2241 130
2 4 9 2071 129
-3 -4 -9 6447 313
-3 -4 -9 6536 310
3 4 9 6638 318
-4 -4 -9 2118 125
-4 -4 -9 2010 121
4 4 9 1865 125
-5 -4 -9 1533 105
-5 -4 -9 1574 108
5 4 9 1340 106
-6 -4 -9 2374 154
-6 -4 -9 2370 147
6 4 9 2473 153
-7 -4 -9 266 59
7 4 9 195 54
5 -5 -9 518 75
-5 5 9 456 90
4 -5 -9 1653 116
4 -5 -9 1622 114
-4 5 9 1758 139
3 -5 -9 4373 227
3 -5 -9 4206 219
-3 5 9 4538 245
2 -5 -9 1461 100
2 -5 -9 1446 90
-2 5 9 1417 110
-2 5 9 1443 91
1 -5 -9 5626 271
-1 5 9 5544 276
-1 5 9 5311 264
0 -5 -9 3006 170
0 5 9 3312 171
0 5 9 3264 173
1 5 9 416 53
1 5 9 430 50
-2 -5 -9 3875 199
-2 -5 -9 3825 198
2 5 9 3784 202
-3 -5 -9 5608 277
-3 -5 -9 5560 275
3 5 9 5646 279
-4 -5 -9 1926 124
-4 -5 -9 2009 122
4 5 9 1894 126
-5 -5 -9 3008 166
-5 -5 -9 3057 175
5 5 9 2620 168
-6 -5 -9 1856 125
-6 -5 -9 1931 135
6 5 9 1888 134
-7 -5 -9 757 89
7 5 9 510 80
4 -6 -9 1204 99
-4 6 9 1019 112
3 -6 -9 1067 91
-3 6 9 1096 106
2 -6 -9 1387 105
-2 6 9 1586 116
1 -6 -9 2289 144
-1 6 9 2705 157
-1 6 9 2444 138
0 -6 -9 5800 297
0 6 9 6325 304
0 6 9 6238 295
-1 -6 -9 1854 127
1 6 9 2370 133
1 6 9 2375 135
-2 -6 -9 2856 164
-2 -6 -9 2869 160
-3 -6 -9 3169 176
-3 -6 -9 3255 183
3 6 9 3358 183
-4 -6 -9 789 74
-4 -6 -9 823 79
4 6 9 934 84
-5 -6 -9 2001 135
-5 -6 -9 1979 126
5 6 9 1892 135
-6 -6 -9 1147 106
6 6 9 1131 104
-7 -6 -9 814 101
7 6 9 873 100
4 -7 -9 591 77
-4 7 9 701 102
3 -7 -9 906 86
-3 7 9 845 100
2 -7 -9 451 65
-2 7 9 363 67
1 -7 -9 570 65
-1 7 9 503 56
-1 7 9 444 66
0 -7 -9 1057 86
0 7 9 1029 82
0 7 9 1147 93
1 7 9 548 63
1 7 9 484 62
-2 -7 -9 924 79
-2 -7 -9 897 83
2 7 9 1032 85
-3 -7 -9 970 88
-3 -7 -9 989 80
3 7 9 967 87
-4 -7 -9 324 53
-4 -7 -9 300 57
4 7 9 264 55
-5 -7 -9 679 78
-5 -7 -9 626 67
5 7 9 456 72
-6 -7 -9 163 51
6 7 9 193 54
3 -8 -9 2042 140
-3 8 9 1860 155
2 -8 -9 1179 99
-2 8 9 1058 108
1 -8 -9 657 75
-1 8 9 577 81
0 -8 -9 1599 124
0 8 9 2122 140
0 8 9 2176 127
-1 -8 -9 412 62
1 8 9 573 67
1 8 9 557 68
-2 -8 -9 650 77
-2 -8 -9 678 70
2 8 9 733 75
-3 -8 -9 1852 134
-3 -8 -9 1878 122
3 8 9 1884 130
-4 -8 -9 1372 101
-4 -8 -9 1346 115
4 8 9 1431 114
-5 -8 -9 366 70
-5 -8 -9 334 56
5 8 9 274 62
-6 -8 -9 635 91
6 8 9 592 91
3 -9 -9 749 96
-3 9 9 841 114
2 -9 -9 714 86
-2 9 9 584 91
1 -9 -9 2615 165
-1 9 9 2574 175
0 -9 -9 2126 143
0 9 9 2102 135
0 9 9 2264 154
-1 -9 -9 1377 106
1 9 9 1310 111
1 9 9 1377 105
-2 -9 -9 344 66
-2 -9 -9 357 58
2 9 9 356 61
-3 -9 -9 1213 100
-3 -9 -9 1280 115
3 9 9 1409 113
-4 -9 -9 1405 106
-4 -9 -9 1443 126
4 9 9 1425 119
-5 -9 -9 2104 156
5 9 9 1874 145
1 -10 -9 881 92
-1 10 9 759 99
0 -10 -9 1573 122
0 10 9 1536 131
-1 -10 -9 1310 113
1 10 9 1513 114
1 10 9 1471 123
-2 -10 -9 2327 148
2 10 9 2216 158
2 10 9 2210 151
-3 -10 -9 1306 122
-3 -10 -9 1215 106
3 10 9 1527 121
-4 -10 -9 1247 120
-4 -10 -9 1192 103
4 10 9 1242 116
5 10 9 764 99
0 -11 -9 529 81
0 11 9 487 86
-1 -11 -9 283 60
1 11 9 360 75
-2 -11 -9 611 79
2 11 9 505 82
2 11 9 626 87
-3 -11 -9 640 97
-3 -11 -9 693 81
3 11 9 505 83
1 9 -10 104 44
-1 -9 10 29 39
0 9 -10 779 88
0 -9 10 783 89
3 8 -10 524 81
-3 -8 10 416 75
2 8 -10 1102 102
-2 -8 10 1075 103
1 8 -10 230 54
-1 -8 10 344 62
0 8 -10 1585 116
0 -8 10 1330 110
-1 8 -10 1649 123
1 -8 10 1699 127
-2 8 -10 422 68
2 -8 10 363 66
-3 8 -10 796 96
3 -8 10 845 96
4 7 -10 222 60
-4 -7 10 246 61
3 7 -10 1149 108
-3 -7 10 1032 102
2 7 -10 1050 97
-2 -7 10 1059 97
1 7 -10 263 54
-1 -7 10 351 59
0 7 -10 1325 96
0 7 -10 1262 99
0 -7 10 1021 94
-1 7 -10 1279 98
1 -7 10 1122 93
1 -7 10 1056 98
-2 7 -10 325 60
2 -7 10 492 71
-3 7 -10 698 88
3 -7 10 816 89
-4 7 -10 1184 114
4 -7 10 1366 116
4 6 -10 725 92
-4 -6 10 882 96
3 6 -10 1406 116
-3 -6 10 1435 116
2 6 -10 1794 124
-2 -6 10 1642 123
1 6 -10 203 45
-1 -6 10 112 39
0 6 -10 882 79
0 6 -10 924 78
0 -6 10 717 75
0 -6 10 774 81
-1 6 -10 2445 147
1 -6 10 2380 144
1 -6 10 2385 149
-2 6 -10 711 78
2 -6 10 846 82
-3 6 -10 516 74
3 -6 10 429 67
-4 6 -10 705 85
4 -6 10 600 81
-5 6 -10 195 59
5 -6 10 151 53
5 5 -10 636 92
-5 -5 10 781 92
4 5 -10 163 51
-4 -5 10 306 60
3 5 -10 534 75
-3 -5 10 704 79
2 5 -10 1068 92
-2 -5 10 1148 95
1 5 -10 767 75
1 5 -10 729 95
-1 -5 10 1045 84
0 5 -10 185 39
0 5 -10 207 41
0 -5 10 78 35
0 -5 10 83 31
-1 5 -10 1937 122
1 -5 10 1878 124
1 -5 10 1902 120
-2 5 -10 232 48
2 -5 10 328 54
2 -5 10 340 48
-3 5 -10 1948 137
3 -5 10 2204 138
-4 5 -10 1317 111
4 -5 10 1377 109
-5 5 -10 779 96
5 -5 10 886 92
5 4 -10 1045 109
-5 -4 10 979 99
4 4 -10 431 71
-4 -4 10 488 70
3 4 -10 313 57
-3 -4 10 382 61
2 4 -10 4483 235
-2 -4 10 4500 238
1 4 -10 607 64
1 4 -10 552 56
-1 -4 10 716 68
0 4 -10 991 75
0 4 -10 927 75
0 -4 10 747 74
0 -4 10 730 71
-1 4 -10 1469 100
1 -4 10 1371 96
1 -4 10 1385 99
-2 4 -10 351 54
2 -4 10 284 49
2 -4 10 319 48
-3 4 -10 178 46
3 -4 10 245 42
3 -4 10 238 46
-4 4 -10 2082 140
4 -4 10 2091 137
-5 4 -10 1093 103
5 -4 10 1125 99
-6 4 -10 223 59
6 -4 10 203 54
5 3 -10 2348 159
-5 -3 10 2215 150
4 3 -10 2340 158
-4 -3 10 2650 159
3 3 -10 1703 121
-3 -3 10 1737 120
2 3 -10 4754 243
-2 -3 10 4752 245
1 3 -10 4491 223
1 3 -10 4532 234
-1 -3 10 4780 238
0 3 -10 319 47
0 3 -10 329 48
-1 3 -10 6768 311
1 -3 10 6067 306
1 -3 10 6440 309
-2 3 -10 3707 199
2 -3 10 3834 194
2 -3 10 3632 195
-3 3 -10 1504 105
3 -3 10 1299 96
3 -3 10 1334 92
-4 3 -10 2376 152
4 -3 10 2544 150
-5 3 -10 1871 133
5 -3 10 1739 124
-6 3 -10 648 87
6 -3 10 887 92
5 2 -10 1005 102
-5 -2 10 992 91
-5 -2 10 1006 99
4 2 -10 930 90
-4 -2 10 1102 88
-4 -2 10 748 78
3 2 -10 4474 235
-3 -2 10 4371 232
2 2 -10 1072 74
2 2 -10 962 82
-2 -2 10 1053 83
1 2 -10 6135 298
1 2 -10 6433 291
-1 -2 10 6017 301
0 2 -10 197 36
0 2 -10 226 40
-1 2 -10 493 56
1 -2 10 473 54
1 -2 10 491 55
-2 2 -10 5715 294
2 -2 10 6341 293
2 -2 10 6082 291
-3 2 -10 1775 119
3 -2 10 1773 111
3 -2 10 1760 110
-4 2 -10 1467 111
4 -2 10 1574 106
4 -2 10 1611 101
-5 2 -10 1975 136
5 -2 10 1876 126
-6 2 -10 468 79
6 -2 10 515 74
5 1 -10 483 79
-5 -1 10 500 76
-5 -1 10 527 67
4 1 -10 719 79
-4 -1 10 602 72
-4 -1 10 628 69
3 1 -10 1332 101
-3 -1 10 1269 94
-3 -1 10 1283 93
2 1 -10 4683 224
2 1 -10 4847 240
-2 -1 10 4705 247
-2 -1 10 4547 237
1 1 -10 1820 107
1 1 -10 1919 114
-1 -1 10 1906 115
0 1 -10 1916 111
0 1 -10 1685 109
0 -1 10 2052 118
-1 1 -10 154 36
1 -1 10 125 30
1 -1 10 101 32
-2 1 -10 969 75
2 -1 10 742 64
2 -1 10 731 67
-3 1 -10 2028 137
3 -1 10 2448 134
3 -1 10 2477 133
-4 1 -10 691 74
4 -1 10 727 66
4 -1 10 766 67
-5 1 -10 2684 167
5 -1 10 2696 163
5 -1 10 2993 163
-6 1 -10 983 96
6 -1 10 1050 91
-7 1 -10 60 47
7 -1 10 128 45
5 0 -10 659 87
-5 0 10 615 82
-5 0 10 649 72
4 0 -10 522 69
-4 0 10 360 55
-4 0 10 369 63
3 0 -10 809 74
-3 0 10 628 65
-3 0 10 641 67
2 0 -10 2740 145
2 0 -10 2708 154
-2 0 10 2819 150
-2 0 10 2843 155
1 0 -10 4329 208
1 0 -10 4423 207
-1 0 10 3954 198
-1 0 10 3964 210
0 0 -10 5415 262
0 0 -10 5650 260
0 0 10 5322 266
-1 0 -10 562 61
1 0 10 536 51
1 0 10 592 58
-2 0 -10 2161 122
2 0 10 1817 107
2 0 10 1762 114
-3 0 -10 2372 135
3 0 10 2101 127
3 0 10 2041 120
-4 0 -10 1614 114
4 0 10 1714 108
4 0 10 1605 102
-5 0 -10 864 82
5 0 10 733 70
5 0 10 750 71
-6 0 -10 1161 102
6 0 10 1153 93
-7 0 -10 309 65
7 0 10 344 60
5 -1 -10 1115 106
-5 1 10 1255 112
4 -1 -10 1342 107
-4 1 10 1437 113
-4 1 10 1479 101
3 -1 -10 2959 153
3 -1 -10 3046 166
-3 1 10 2765 166
-3 1 10 2910 162
2 -1 -10 3061 163
2 -1 -10 2935 156
-2 1 10 3019 163
-2 1 10 3009 163
1 -1 -10 5327 240
1 -1 -10 4949 238
-1 1 10 4668 232
-1 1 10 4687 242
0 -1 -10 2279 133
0 -1 -10 2380 127
0 1 10 2464 137
0 1 10 2519 121
-1 -1 -10 5708 286
-1 -1 -10 6532 300
1 1 10 6568 301
-2 -1 -10 11364 530
2 1 10 11551 517
2 1 10 12118 531
-3 -1 -10 5929 287
3 1 10 5704 282
3 1 10 5763 271
-4 -1 -10 3265 182
4 1 10 3224 168
4 1 10 3295 178
-5 -1 -10 1512 109
5 1 10 1439 103
5 1 10 1378 96
-6 -1 -10 2483 152
6 1 10 2027 136
6 1 10 2279 137
-7 -1 -10 941 99
7 1 10 950 89
5 -2 -10 394 67
-5 2 10 464 78
4 -2 -10 1022 94
-4 2 10 1100 84
-4 2 10 1164 104
3 -2 -10 1839 116
3 -2 -10 1874 110
-3 2 10 1696 111
-3 2 10 1814 123
2 -2 -10 1426 96
2 -2 -10 1515 95
-2 2 10 1541 99
1 -2 -10 3380 177
1 -2 -10 3415 174
-1 2 10 3472 176
-1 2 10 3472 180
0 -2 -10 1147 78
0 -2 -10 1163 68
0 2 10 828 64
0 2 10 943 75
-1 -2 -10 99 23
-1 -2 -10 110 34
1 2 10 160 35
1 2 10 121 22
-2 -2 -10 356 33
-2 -2 -10 368 54
2 2 10 264 34
2 2 10 212 41
-3 -2 -10 1470 105
3 2 10 1589 106
3 2 10 1644 91
-4 -2 -10 2974 174
4 2 10 3136 159
4 2 10 3185 173
-5 -2 -10 3569 204
5 2 10 3740 192
5 2 10 3965 205
-6 -2 -10 684 79
6 2 10 570 72
6 2 10 610 65
-7 -2 -10 286 60
5 -3 -10 297 60
-5 3 10 301 70
4 -3 -10 503 68
-4 3 10 683 85
3 -3 -10 566 58
3 -3 -10 526 62
-3 3 10 499 55
-3 3 10 522 71
2 -3 -10 1655 107
2 -3 -10 1765 111
-2 3 10 1921 113
-2 3 10 2015 122
1 -3 -10 1838 108
1 -3 -10 1797 98
-1 3 10 1496 102
-1 3 10 1548 104
0 -3 -10 9251 411
0 -3 -10 9153 397
0 3 10 8374 409
0 3 10 8803 404
-1 -3 -10 337 49
-1 -3 -10 379 34
1 3 10 236 44
1 3 10 273 36
-2 -3 -10 855 72
-2 -3 -10 758 56
2 3 10 628 66
2 3 10 683 48
-3 -3 -10 587 67
-3 -3 -10 626 54
3 3 10 679 48
3 3 10 718 70
-4 -3 -10 856 64
-4 -3 -10 850 78
4 3 10 623 70
4 3 10 607 53
-5 -3 -10 745 79
5 3 10 830 82
-6 -3 -10 746 78
6 3 10 637 79
-7 -3 -10 117 48
7 3 10 106 47
5 -4 -10 267 59
-5 4 10 190 63
4 -4 -10 936 85
4 -4 -10 933 87
-4 4 10 966 101
3 -4 -10 778 70
3 -4 -10 784 71
-3 4 10 631 80
-3 4 10 646 79
2 -4 -10 1242 91
2 -4 -10 1261 85
-2 4 10 1293 100
-2 4 10 1270 88
1 -4 -10 802 64
1 -4 -10 847 75
-1 4 10 1191 83
-1 4 10 1113 78
0 -4 -10 3172 169
0 -4 -10 3016 153
0 4 10 3125 167
1 4 10 863 74
1 4 10 889 66
-2 -4 -10 783 62
-2 -4 -10 721 68
2 4 10 713 71
-3 -4 -10 2239 135
-3 -4 -10 2242 128
3 4 10 2199 136
-4 -4 -10 899 78
-4 -4 -10 906 72
4 4 10 642 75
-5 -4 -10 744 77
-5 -4 -10 744 75
5 4 10 721 81
-6 -4 -10 1222 99
-6 -4 -10 1148 122
6 4 10 1119 102
7 4 10 284 63
4 -5 -10 1010 90
-4 5 10 967 107
3 -5 -10 2889 170
-3 5 10 3070 187
2 -5 -10 2499 149
-2 5 10 2534 142
-2 5 10 2606 162
1 -5 -10 769 72
-1 5 10 760 75
-1 5 10 847 69
0 -5 -10 525 60
0 5 10 498 58
0 5 10 577 59
-1 -5 -10 3942 217
1 5 10 4498 218
1 5 10 4368 221
-2 -5 -10 304 51
-2 -5 -10 295 45
-3 -5 -10 5662 279
-3 -5 -10 5507 280
3 5 10 5774 286
-4 -5 -10 2800 161
-4 -5 -10 2833 160
4 5 10 2683 164
-5 -5 -10 1544 111
-5 -5 -10 1569 109
5 5 10 1393 112
-6 -5 -10 1571 116
-6 -5 -10 1676 126
6 5 10 1709 127
7 5 10 809 97
4 -6 -10 1006 93
-4 6 10 1060 114
3 -6 -10 855 81
-3 6 10 801 94
2 -6 -10 2190 139
-2 6 10 2271 153
1 -6 -10 3959 217
-1 6 10 4114 211
-1 6 10 4245 226
0 -6 -10 2626 155
0 6 10 2840 160
0 6 10 2633 152
-1 -6 -10 688 70
1 6 10 744 70
1 6 10 713 69
-2 -6 -10 346 54
-2 -6 -10 327 52
2 6 10 373 57
-3 -6 -10 1087 90
-3 -6 -10 994 85
3 6 10 1302 97
-4 -6 -10 1263 102
-4 -6 -10 1238 96
4 6 10 1444 109
-5 -6 -10 1478 109
-5 -6 -10 1507 115
5 6 10 1444 115
-6 -6 -10 890 87
-6 -6 -10 953 96
6 6 10 957 100
-7 -6 -10 366 74
7 6 10 450 77
4 -7 -10 609 80
-4 7 10 461 88
3 -7 -10 819 87
-3 7 10 891 104
2 -7 -10 1328 107
-2 7 10 1441 121
1 -7 -10 1259 101
-1 7 10 1400 111
-1 7 10 1263 94
0 -7 -10 4313 230
0 7 10 4211 224
0 7 10 4399 235
-1 -7 -10 1193 94
1 7 10 1249 98
1 7 10 1191 95
-2 -7 -10 617 68
-2 -7 -10 594 71
2 7 10 664 72
-3 -7 -10 1156 93
-3 -7 -10 1110 95
3 7 10 1209 99
-4 -7 -10 458 68
-4 -7 -10 524 64
4 7 10 396 67
-5 -7 -10 502 73
-5 -7 -10 524 64
5 7 10 356 67
-6 -7 -10 525 80
6 7 10 339 69
3 -8 -10 1331 113
-3 8 10 1166 125
2 -8 -10 682 79
-2 8 10 551 86
1 -8 -10 95 39
-1 8 10 80 43
0 -8 -10 583 72
0 8 10 700 79
0 8 10 677 71
-1 -8 -10 1209 100
1 8 10 1371 107
1 8 10 1334 102
-2 -8 -10 1130 91
-2 -8 -10 1031 95
2 8 10 1034 93
-3 -8 -10 2402 155
-3 -8 -10 2266 144
3 8 10 2214 148
-4 -8 -10 902 95
-4 -8 -10 926 84
4 8 10 1008 96
-5 -8 -10 720 90
-5 -8 -10 666 74
5 8 10 556 84
-6 -8 -10 979 106
6 8 10 1108 114
2 -9 -10 1397 117
-2 9 10 1350 132
1 -9 -10 1018 98
-1 9 10 1021 110
0 -9 -10 1745 126
0 9 10 1739 123
0 9 10 1708 134
-1 -9 -10 1471 113
1 9 10 1450 118
1 9 10 1431 110
-2 -9 -10 8 30
2 9 10 2 31
2 9 10 -10 32
-3 -9 -10 1019 90
-3 -9 -10 994 102
3 9 10 1022 100
-4 -9 -10 1126 111
-4 -9 -10 1111 95
4 9 10 1207 110
-5 -9 -10 1486 131
5 9 10 1235 120
1 -10 -10 1223 111
-1 10 10 1205 123
0 -10 -10 714 89
0 10 10 648 90
-1 -10 -10 1719 127
1 10 10 1562 135
1 10 10 1694 125
-2 -10 -10 975 95
2 10 10 863 92
2 10 10 906 98
-3 -10 -10 812 89
-3 -10 -10 784 98
3 10 10 824 94
-4 -10 -10 1061 99
-4 -10 -10 1051 112
4 10 10 1127 114
-2 -11 -10 1014 100
2 11 10 949 106
2 11 10 874 100
1 8 -11 264 60
-1 -8 11 283 62
0 8 -11 556 77
0 -8 11 515 75
-1 8 -11 401 67
1 -8 11 228 57
-2 8 -11 899 97
2 -8 11 835 97
3 7 -11 384 73
-3 -7 11 294 64
2 7 -11 1229 110
-2 -7 11 1323 114
1 7 -11 1084 100
-1 -7 11 1164 102
0 7 -11 568 73
0 -7 11 468 69
-1 7 -11 262 54
1 -7 11 221 49
1 -7 11 166 50
-2 7 -11 382 66
2 -7 11 270 59
-3 7 -11 397 71
3 -7 11 608 86
4 6 -11 422 75
-4 -6 11 547 81
3 6 -11 1754 134
-3 -6 11 1630 130
2 6 -11 2053 141
-2 -6 11 1995 142
1 6 -11 1354 108
-1 -6 11 1433 111
0 6 -11 1156 94
0 6 -11 1194 99
0 -6 11 1195 99
-1 6 -11 1213 99
1 -6 11 1163 94
1 -6 11 1144 99
-2 6 -11 278 56
2 -6 11 334 60
2 -6 11 334 55
-3 6 -11 713 83
3 -6 11 580 79
-4 6 -11 89 47
4 -6 11 78 44
4 5 -11 439 78
-4 -5 11 585 78
3 5 -11 698 86
-3 -5 11 846 88
2 5 -11 1134 98
-2 -5 11 1167 101
1 5 -11 876 86
-1 -5 11 1248 96
0 5 -11 524 66
0 5 -11 542 66
0 -5 11 735 72
-1 5 -11 1122 94
1 -5 11 1225 93
1 -5 11 1221 97
-2 5 -11 237 51
2 -5 11 324 56
2 -5 11 295 50
-3 5 -11 545 74
3 -5 11 708 78
-4 5 -11 708 87
4 -5 11 810 87
-5 5 -11 412 75
5 -5 11 432 72
4 4 -11 106 50
-4 -4 11 56 36
3 4 -11 109 46
-3 -4 11 155 44
2 4 -11 3156 185
-2 -4 11 3385 191
1 4 -11 1749 119
1 4 -11 1736 111
-1 -4 11 1786 121
0 4 -11 851 76
0 4 -11 810 72
0 -4 11 773 76
-1 4 -11 1051 84
1 -4 11 917 79
1 -4 11 896 82
-2 4 -11 237 50
2 -4 11 170 42
2 -4 11 208 42
-3 4 -11 933 90
3 -4 11 1175 93
3 -4 11 887 75
-4 4 -11 1815 132
4 -4 11 1843 129
-5 4 -11 825 94
5 -4 11 899 92
5 3 -11 836 99
-5 -3 11 801 89
4 3 -11 1088 104
-4 -3 11 1161 103
3 3 -11 1144 99
-3 -3 11 1087 95
2 3 -11 4636 246
-2 -3 11 4830 249
1 3 -11 2668 156
1 3 -11 2665 147
-1 -3 11 2744 159
0 3 -11 3997 206
0 3 -11 4082 211
0 -3 11 3851 210
-1 3 -11 5102 260
1 -3 11 5215 259
1 -3 11 5193 259
-2 3 -11 2044 128
2 -3 11 1833 120
2 -3 11 1865 119
-3 3 -11 198 45
3 -3 11 168 38
3 -3 11 127 39
-4 3 -11 1259 107
4 -3 11 1335 102
-5 3 -11 1441 119
5 -3 11 1454 113
-6 3 -11 341 70
6 -3 11 508 76
5 2 -11 922 103
-5 -2 11 959 94
4 2 -11 835 92
-4 -2 11 1142 96
3 2 -11 671 79
-3 -2 11 954 84
2 2 -11 2796 157
-2 -2 11 2406 152
1 2 -11 2800 161
1 2 -11 2851 155
-1 -2 11 3137 169
0 2 -11 697 65
0 2 -11 652 63
-1 2 -11 5951 290
1 -2 11 5914 287
1 -2 11 5885 290
-2 2 -11 1794 119
2 -2 11 1626 109
2 -2 11 1802 114
-3 2 -11 3910 208
3 -2 11 3725 199
3 -2 11 3655 198
-4 2 -11 1234 102
4 -2 11 1366 97
4 -2 11 1128 88
-5 2 -11 1651 127
5 -2 11 1627 117
-6 2 -11 241 60
6 -2 11 390 64
5 1 -11 123 51
-5 -1 11 128 43
4 1 -11 158 49
-4 -1 11 174 45
3 1 -11 233 51
-3 -1 11 217 46
2 1 -11 1077 75
2 1 -11 1104 88
-2 -1 11 980 84
1 1 -11 803 68
1 1 -11 834 72
-1 -1 11 913 74
0 1 -11 752 65
0 1 -11 800 65
0 -1 11 561 62
-1 1 -11 2429 141
1 -1 11 2464 142
1 -1 11 2374 135
-2 1 -11 2235 146
2 -1 11 2649 142
2 -1 11 2722 147
-3 1 -11 234 47
3 -1 11 186 39
3 -1 11 227 43
-4 1 -11 2551 163
4 -1 11 2869 156
4 -1 11 2721 155
-5 1 -11 1710 131
5 -1 11 1859 122
-6 1 -11 420 72
6 -1 11 440 67
5 0 -11 913 100
-5 0 11 758 91
-5 0 11 775 95
4 0 -11 728 82
-4 0 11 644 76
-4 0 11 708 74
3 0 -11 138 41
-3 0 11 130 38
2 0 -11 2891 160
2 0 -11 2920 151
-2 0 11 2647 159
1 0 -11 4627 230
1 0 -11 4607 228
-1 0 11 4640 235
0 0 -11 437 49
0 0 -11 418 53
0 0 11 400 53
-1 0 -11 3129 158
1 0 11 2569 153
1 0 11 2625 146
-2 0 -11 249 44
2 0 11 149 32
2 0 11 124 35
3 0 11 325 51
3 0 11 297 43
-4 0 -11 1590 111
4 0 11 1355 100
4 0 11 1389 97
-5 0 -11 2195 147
5 0 11 2371 142
5 0 11 2326 138
-6 0 -11 1315 111
6 0 11 1371 106
-7 0 -11 76 48
7 0 11 172 49
5 -1 -11 525 87
-5 1 11 643 88
4 -1 -11 1138 100
-4 1 11 1252 95
-4 1 11 1214 105
3 -1 -11 2335 148
-3 1 11 2614 154
-3 1 11 2631 151
2 -1 -11 2513 147
2 -1 -11 2406 139
-2 1 11 2585 147
-2 1 11 2597 145
1 -1 -11 4284 214
1 -1 -11 4187 212
-1 1 11 4197 218
0 -1 -11 914 75
0 -1 -11 896 68
0 1 11 960 76
-1 -1 -11 7474 336
-1 -1 -11 7498 346
1 1 11 6811 343
-2 -1 -11 6018 289
2 1 11 5729 274
2 1 11 5802 286
-3 -1 -11 1902 120
3 1 11 1729 113
3 1 11 1669 103
-4 -1 -11 1943 128
4 1 11 1798 120
4 1 11 1853 112
-5 -1 -11 1509 113
5 1 11 1429 106
5 1 11 1436 99
-6 -1 -11 1597 125
6 1 11 1644 112
6 1 11 1568 115
-7 -1 -11 865 101
7 1 11 903 91
5 -2 -11 131 52
-5 2 11 254 65
4 -2 -11 860 86
-4 2 11 859 94
-4 2 11 843 88
3 -2 -11 1554 99
3 -2 -11 1614 110
-3 2 11 1499 113
-3 2 11 1402 102
2 -2 -11 1841 112
2 -2 -11 1860 115
-2 2 11 1776 116
-2 2 11 1768 114
1 -2 -11 3741 191
1 -2 -11 3631 194
-1 2 11 3999 201
-1 2 11 3797 192
0 -2 -11 1424 97
0 -2 -11 1363 87
0 2 11 1536 100
-1 -2 -11 1690 98
-1 -2 -11 1627 111
1 2 11 1934 114
-2 -2 -11 1645 119
2 2 11 2008 121
2 2 11 2079 106
-3 -2 -11 322 54
3 2 11 220 34
3 2 11 195 42
-4 -2 -11 945 86
4 2 11 879 67
4 2 11 948 82
-5 -2 -11 1465 114
5 2 11 1469 109
5 2 11 1474 97
-6 -2 -11 845 92
6 2 11 953 89
-7 -2 -11 158 54
5 -3 -11 114 49
-5 3 11 105 55
4 -3 -11 368 62
-4 3 11 325 67
3 -3 -11 792 74
3 -3 -11 806 71
-3 3 11 725 68
-3 3 11 722 82
2 -3 -11 1096 85
2 -3 -11 1343 91
-2 3 11 1302 91
1 -3 -11 5705 274
1 -3 -11 5805 284
-1 3 11 5748 284
-1 3 11 6005 284
0 -3 -11 1205 74
0 -3 -11 1250 88
0 3 11 1006 82
0 3 11 967 74
-1 -3 -11 471 57
-1 -3 -11 460 41
1 3 11 346 40
1 3 11 381 53
-2 -3 -11 1920 126
-2 -3 -11 1913 107
2 3 11 2399 132
-3 -3 -11 36 29
3 3 11 45 32
-4 -3 -11 200 47
4 3 11 284 51
-5 -3 -11 690 78
5 3 11 882 83
-6 -3 -11 1067 97
6 3 11 887 93
-7 -3 -11 255 60
7 3 11 290 61
4 -4 -11 103 42
-4 4 11 232 63
3 -4 -11 729 73
3 -4 -11 802 73
-3 4 11 684 85
2 -4 -11 1281 94
2 -4 -11 1177 86
-2 4 11 1203 98
-2 4 11 1204 90
1 -4 -11 1860 119
-1 4 11 1920 118
0 -4 -11 3141 175
0 4 11 3236 175
0 4 11 3231 171
-1 -4 -11 4513 228
1 4 11 4160 225
1 4 11 4498 218
-2 -4 -11 3236 192
2 4 11 3909 200
2 4 11 3762 184
-3 -4 -11 118 39
-3 -4 -11 119 31
3 4 11 248 50
-4 -4 -11 742 76
4 4 11 683 78
-5 -4 -11 701 79
5 4 11 986 89
-6 -4 -11 912 87
6 4 11 767 91
7 4 11 177 57
-4 5 11 678 100
3 -5 -11 497 65
-3 5 11 370 74
2 -5 -11 1725 118
-2 5 11 1676 111
-2 5 11 1850 131
1 -5 -11 2407 148
-1 5 11 2470 145
-1 5 11 2651 154
0 -5 -11 3950 218
0 5 11 4299 219
0 5 11 4336 220
-1 -5 -11 1744 116
1 5 11 1850 118
1 5 11 1701 110
-2 -5 -11 5841 296
2 5 11 6242 290
2 5 11 5858 298
-3 -5 -11 3136 177
-3 -5 -11 3116 182
3 5 11 3580 190
-4 -5 -11 2060 128
-4 -5 -11 2038 131
4 5 11 1834 133
-5 -5 -11 905 88
5 5 11 1107 102
-6 -5 -11 1299 109
6 5 11 1323 118
7 5 11 1146 117
4 -6 -11 241 56
-4 6 11 292 74
3 -6 -11 636 78
-3 6 11 620 90
2 -6 -11 1426 107
-2 6 11 1292 115
1 -6 -11 1449 109
-1 6 11 1431 110
-1 6 11 1467 101
0 -6 -11 1017 86
0 6 11 936 82
0 6 11 960 85
-1 -6 -11 2906 165
1 6 11 2748 163
1 6 11 2792 162
-2 -6 -11 890 83
2 6 11 1003 88
2 6 11 1025 81
-3 -6 -11 1401 104
-3 -6 -11 1449 106
3 6 11 1538 113
-4 -6 -11 1090 93
-4 -6 -11 1095 94
4 6 11 1219 103
-5 -6 -11 1795 124
-5 -6 -11 1670 124
5 6 11 1751 131
-6 -6 -11 940 94
6 6 11 1140 108
3 -7 -11 191 49
-3 7 11 168 60
2 -7 -11 829 87
-2 7 11 800 94
1 -7 -11 2955 173
-1 7 11 2831 177
-1 7 11 2692 160
0 -7 -11 2719 161
0 7 11 2517 154
0 7 11 2582 162
-1 -7 -11 2012 129
1 7 11 1899 128
1 7 11 1691 123
-2 -7 -11 1336 100
2 7 11 1158 100
2 7 11 1172 94
-3 -7 -11 453 67
-3 -7 -11 544 67
3 7 11 601 76
-4 -7 -11 639 73
-4 -7 -11 627 78
4 7 11 522 75
-5 -7 -11 716 79
-5 -7 -11 704 84
5 7 11 528 81
-6 -7 -11 613 85
6 7 11 500 88
2 -8 -11 440 71
-2 8 11 303 69
1 -8 -11 225 52
-1 8 11 352 69
0 -8 -11 407 67
0 8 11 477 66
0 8 11 485 73
-1 -8 -11 239 51
1 8 11 224 51
1 8 11 208 51
-2 -8 -11 1329 104
2 8 11 1245 106
2 8 11 1326 107
-3 -8 -11 843 91
-3 -8 -11 882 84
3 8 11 761 90
-4 -8 -11 638 76
-4 -8 -11 638 84
4 8 11 504 81
-5 -8 -11 468 71
-5 -8 -11 325 68
5 8 11 420 73
1 -9 -11 826 92
-1 9 11 729 96
0 -9 -11 1699 129
0 9 11 1655 134
-1 -9 -11 701 81
1 9 11 550 75
1 9 11 554 79
-2 -9 -11 264 55
2 9 11 200 53
2 9 11 218 54
-3 -9 -11 354 62
-3 -9 -11 365 70
3 9 11 331 66
-4 -9 -11 493 70
-4 -9 -11 439 78
4 9 11 570 83
-5 -9 -11 731 101
-5 -9 -11 800 86
5 9 11 582 95
0 -10 -11 1349 119
0 10 11 1235 123
-1 -10 -11 1363 117
1 10 11 1471 128
1 10 11 1357 115
-2 -10 -11 291 60
2 10 11 207 58
2 10 11 216 58
-3 -10 -11 1119 116
-3 -10 -11 1083 104
3 10 11 1121 109
2 7 -12 1077 108
-2 -7 12 1273 114
1 7 -12 1094 105
-1 -7 12 1161 108
0 7 -12 964 96
0 -7 12 895 93
-1 7 -12 387 66
1 -7 12 297 63
1 -7 12 354 62
-2 7 -12 524 81
2 -7 12 585 83
3 6 -12 538 84
-3 -6 12 572 84
2 6 -12 809 90
-2 -6 12 806 91
1 6 -12 1204 106
-1 -6 12 1239 107
0 6 -12 1515 117
0 -6 12 1464 115
-1 6 -12 674 78
1 -6 12 533 76
1 -6 12 514 69
-2 6 -12 778 89
2 -6 12 665 77
2 -6 12 699 84
-3 6 -12 177 53
3 -6 12 254 60
3 5 -12 1123 108
-3 -5 12 999 101
2 5 -12 442 70
-2 -5 12 445 73
1 5 -12 181 48
-1 -5 12 244 53
0 5 -12 1445 107
0 5 -12 1435 113
0 -5 12 1639 115
-1 5 -12 951 89
1 -5 12 902 85
1 -5 12 964 90
-2 5 -12 393 66
2 -5 12 426 68
2 -5 12 363 58
-3 5 -12 136 48
3 -5 12 164 49
-4 5 -12 74 46
4 -5 12 36 39
4 4 -12 110 53
-4 -4 12 64 41
3 4 -12 216 56
-3 -4 12 237 55
2 4 -12 2055 140
-2 -4 12 2071 141
1 4 -12 983 89
-1 -4 12 1050 92
0 4 -12 633 69
0 4 -12 661 73
0 -4 12 629 71
-1 4 -12 908 85
1 -4 12 954 85
1 -4 12 930 85
-2 4 -12 349 58
2 -4 12 179 43
2 -4 12 175 45
-3 4 -12 476 72
3 -4 12 492 63
3 -4 12 461 69
-4 4 -12 1908 140
4 -4 12 1868 135
-5 4 -12 1279 120
5 -4 12 1205 113
4 3 -12 99 49
-4 -3 12 101 44
3 3 -12 401 68
-3 -3 12 363 63
2 3 -12 1599 118
-2 -3 12 1710 121
1 3 -12 1828 114
1 3 -12 1942 125
-1 -3 12 1764 125
0 3 -12 2060 129
0 3 -12 1926 123
0 -3 12 1938 129
-1 3 -12 2413 143
1 -3 12 2219 140
1 -3 12 2308 141
-2 3 -12 1711 121
2 -3 12 1770 116
2 -3 12 1671 117
3 -3 12 366 54
3 -3 12 307 54
-4 3 -12 1399 119
4 -3 12 1509 112
-5 3 -12 994 104
5 -3 12 1045 99
4 2 -12 618 85
-4 -2 12 657 81
3 2 -12 635 79
-3 -2 12 524 70
2 2 -12 3025 177
-2 -2 12 3016 177
1 2 -12 2118 133
1 2 -12 2096 126
-1 -2 12 2194 137
0 2 -12 1958 123
0 2 -12 1975 125
0 -2 12 1965 126
-1 2 -12 1928 124
1 -2 12 1936 122
1 -2 12 1945 124
-2 2 -12 2032 132
2 -2 12 2049 126
2 -2 12 2026 129
-3 2 -12 326 60
3 -2 12 355 56
3 -2 12 258 48
4 -2 12 460 66
4 -2 12 398 60
-5 2 -12 725 90
5 -2 12 827 84
-6 2 -12 82 49
6 -2 12 103 44
5 1 -12 47 47
4 1 -12 33 40
-4 -1 12 43 33
3 1 -12 333 60
-3 -1 12 445 62
2 1 -12 328 57
-2 -1 12 299 54
1 1 -12 997 79
1 1 -12 991 83
-1 -1 12 1151 89
0 1 -12 194 39
0 1 -12 213 42
0 -1 12 183 41
-1 1 -12 1272 100
1 -1 12 1532 100
1 -1 12 1518 104
-2 1 -12 1277 97
2 -1 12 1149 86
2 -1 12 1215 92
-3 1 -12 1388 108
3 -1 12 1439 103
3 -1 12 1425 100
-4 1 -12 66 37
4 -1 12 82 34
4 -1 12 55 32
-5 1 -12 1256 110
5 -1 12 1362 105
-6 1 -12 1 37
6 -1 12 30 36
5 0 -12 457 76
4 0 -12 96 44
-4 0 12 63 36
3 0 -12 105 42
-3 0 12 30 30
2 0 -12 1896 120
2 0 -12 1761 107
-2 0 12 1586 115
1 0 -12 1916 118
1 0 -12 1840 114
-1 0 12 1836 121
0 0 -12 1026 77
0 0 -12 1014 79
0 0 12 929 81
-1 0 -12 2643 152
-1 0 -12 2685 145
1 0 12 2515 151
2 0 12 715 61
2 0 12 653 68
3 0 12 670 69
3 0 12 701 64
-4 0 -12 399 64
4 0 12 338 51
4 0 12 427 60
-5 0 -12 1211 108
5 0 12 1129 95
5 0 12 1221 96
-6 0 -12 258 62
6 0 12 282 54
5 -1 -12 801 102
4 -1 -12 619 81
-4 1 12 734 76
3 -1 -12 252 51
-3 1 12 376 57
2 -1 -12 3030 172
2 -1 -12 2985 165
-2 1 12 3103 173
1 -1 -12 3800 194
1 -1 -12 3615 192
-1 1 12 3629 199
0 -1 -12 1079 83
0 -1 -12 1080 77
0 1 12 997 84
-1 -1 -12 2265 136
-1 -1 -12 2395 127
1 1 12 2030 134
-2 -1 -12 4263 232
2 1 12 4558 219
2 1 12 4551 233
-3 -1 -12 426 65
3 1 12 545 52
3 1 12 612 67
-4 -1 -12 487 69
4 1 12 487 55
4 1 12 486 65
-5 -1 -12 1056 101
5 1 12 1198 91
5 1 12 1184 96
-6 -1 -12 1142 114
6 1 12 1290 108
6 1 12 1468 103
4 -2 -12 850 93
-4 2 12 942 117
3 -2 -12 477 68
-3 2 12 545 65
2 -2 -12 354 56
2 -2 -12 408 54
-2 2 12 370 55
1 -2 -12 4453 230
1 -2 -12 4625 229
-1 2 12 4587 237
0 -2 -12 963 71
0 -2 -12 858 77
0 2 12 1167 85
-1 -2 -12 3647 196
-1 -2 -12 3885 184
1 2 12 3409 195
-2 -2 -12 5691 280
2 2 12 5383 278
2 2 12 5575 262
-3 -2 -12 399 66
3 2 12 480 62
3 2 12 445 46
-4 -2 -12 203 48
4 2 12 300 43
4 2 12 300 53
-5 -2 -12 1119 101
5 2 12 1165 98
-6 -2 -12 414 70
4 -3 -12 348 63
-4 3 12 300 66
3 -3 -12 107 36
3 -3 -12 80 37
-3 3 12 130 38
-3 3 12 157 49
2 -3 -12 551 59
2 -3 -12 335 52
-2 3 12 448 63
-2 3 12 482 60
1 -3 -12 3689 190
1 -3 -12 3680 199
-1 3 12 3838 201
0 -3 -12 2271 137
0 -3 -12 2218 123
0 3 12 2316 138
-1 -3 -12 413 58
1 3 12 488 60
-2 -3 -12 2223 138
2 3 12 2240 138
-3 -3 -12 1742 124
3 3 12 2028 128
-4 -3 -12 61 37
4 3 12 25 32
-5 -3 -12 2057 140
5 3 12 1976 136
-6 -3 -12 440 73
6 3 12 422 74
-4 4 12 195 62
3 -4 -12 452 62
-3 4 12 427 76
2 -4 -12 191 43
-2 4 12 188 42
-2 4 12 180 47
1 -4 -12 987 85
-1 4 12 963 81
-1 4 12 1011 86
0 -4 -12 1426 102
0 4 12 1368 100
0 4 12 1284 92
-1 -4 -12 404 59
1 4 12 388 59
-2 -4 -12 817 76
2 4 12 725 75
-3 -4 -12 1747 119
3 4 12 1587 117
-4 -4 -12 172 46
4 4 12 261 55
-5 -4 -12 356 62
5 4 12 406 68
-6 -4 -12 1081 104
6 4 12 1128 108
-4 5 12 332 75
3 -5 -12 716 78
-3 5 12 623 89
2 -5 -12 651 75
-2 5 12 659 81
-2 5 12 655 69
1 -5 -12 1472 108
-1 5 12 1590 114
-1 5 12 1489 106
0 -5 -12 2453 150
0 5 12 2530 148
0 5 12 2496 150
-1 -5 -12 3401 183
1 5 12 3076 180
1 5 12 3115 173
-2 -5 -12 3515 200
2 5 12 3767 206
2 5 12 3701 209
-3 -5 -12 1325 103
3 5 12 1240 103
-4 -5 -12 1442 111
4 5 12 1552 120
-5 -5 -12 319 59
5 5 12 312 62
-6 -5 -12 2065 145
6 5 12 2027 150
3 -6 -12 451 72
-3 6 12 356 74
2 -6 -12 964 91
-2 6 12 868 98
1 -6 -12 1300 102
-1 6 12 1138 93
-1 6 12 1236 103
0 -6 -12 1150 98
0 6 12 1335 102
0 6 12 1244 99
-1 -6 -12 2125 132
1 6 12 2023 132
1 6 12 1650 119
-2 -6 -12 881 82
2 6 12 735 81
-3 -6 -12 492 67
-3 -6 -12 450 61
3 6 12 526 74
-4 -6 -12 1521 112
4 6 12 1291 113
-5 -6 -12 653 81
5 6 12 623 89
-6 -6 -12 493 77
6 6 12 537 88
3 -7 -12 130 47
-3 7 12 159 60
2 -7 -12 300 60
-2 7 12 277 66
1 -7 -12 1701 125
-1 7 12 1658 116
-1 7 12 1683 130
0 -7 -12 1858 131
0 7 12 1870 132
0 7 12 1926 127
-1 -7 -12 1638 118
1 7 12 1559 117
1 7 12 1547 117
-2 -7 -12 1473 115
2 7 12 1653 115
2 7 12 1469 115
-3 -7 -12 255 54
-3 -7 -12 286 55
3 7 12 358 63
-4 -7 -12 472 70
-4 -7 -12 468 71
4 7 12 320 65
-5 -7 -12 630 80
5 7 12 590 88
2 -8 -12 242 57
-2 8 12 146 59
1 -8 -12 89 41
-1 8 12 19 39
0 -8 -12 222 54
0 8 12 232 58
0 8 12 268 53
-1 -8 -12 154 45
1 8 12 202 50
1 8 12 169 50
-2 -8 -12 1042 97
2 8 12 1160 99
2 8 12 1043 98
-3 -8 -12 216 55
-3 -8 -12 231 52
3 8 12 248 57
-4 -8 -12 283 62
-4 -8 -12 238 53
4 8 12 195 58
-5 -8 -12 150 55
-5 -8 -12 125 46
5 8 12 235 64
1 -9 -12 418 72
-1 9 12 437 85
0 -9 -12 679 83
0 9 12 612 87
-1 -9 -12 1611 124
1 9 12 1454 119
1 9 12 1509 127
-2 -9 -12 515 75
2 9 12 470 75
2 9 12 600 81
-3 -9 -12 291 59
-3 -9 -12 259 62
3 9 12 231 60
-4 -9 -12 403 76
-4 -9 -12 456 74
4 9 12 356 73
-1 -10 -12 1223 112
1 10 12 971 113
1 10 12 1100 106
-2 -10 -12 1404 119
2 10 12 1339 119
2 10 12 1309 121
2 6 -13 690 92
-2 -6 13 905 100
1 6 -13 720 88
-1 -6 13 854 95
0 6 -13 1408 116
0 -6 13 1391 117
-1 6 -13 933 94
1 -6 13 824 94
1 -6 13 874 90
-2 6 -13 813 94
2 -6 13 968 115
2 -6 13 974 99
3 5 -13 354 71
-3 -5 13 278 64
2 5 -13 72 44
-2 -5 13 24 38
1 5 -13 -3 32
-1 -5 13 37 36
0 5 -13 45 47
0 5 -13 65 37
0 -5 13 146 45
-1 5 -13 1189 100
1 -5 13 977 96
1 -5 13 905 89
-2 5 -13 416 70
2 -5 13 553 76
2 -5 13 550 70
-3 5 -13 54 45
3 -5 13 70 42
-4 5 -13 52 46
4 -5 13 119 50
3 4 -13 655 89
-3 -4 13 618 83
2 4 -13 903 94
-2 -4 13 857 91
1 4 -13 316 57
-1 -4 13 343 60
0 4 -13 1573 120
0 4 -13 1581 115
0 -4 13 1683 122
-1 4 -13 755 82
1 -4 13 681 78
1 -4 13 698 79
-2 4 -13 803 86
2 -4 13 739 82
2 -4 13 653 76
-3 4 -13 204 56
3 -4 13 204 52
3 -4 13 225 50
-4 4 -13 1213 112
4 -4 13 1016 104
4 3 -13 142 55
-4 -3 13 251 60
3 3 -13 149 52
-3 -3 13 219 55
2 3 -13 1785 131
-2 -3 13 1843 131
1 3 -13 610 73
-1 -3 13 624 76
0 3 -13 1173 95
0 3 -13 1157 97
0 -3 13 1372 104
-1 3 -13 1006 91
1 -3 13 1085 93
1 -3 13 1137 93
-2 3 -13 1889 127
2 -3 13 1645 119
2 -3 13 1621 118
-3 3 -13 1237 109
3 -3 13 1324 104
3 -3 13 1268 100
-4 3 -13 1324 117
4 -3 13 1212 105
-5 3 -13 1172 117
5 -3 13 1196 107
4 2 -13 147 55
-4 -2 13 154 50
3 2 -13 1137 106
-3 -2 13 924 94
2 2 -13 626 84
-2 -2 13 848 83
1 2 -13 1125 95
1 2 -13 1074 84
-1 -2 13 1015 91
0 2 -13 1645 112
0 2 -13 1531 110
0 -2 13 1614 114
-1 2 -13 1645 113
-1 2 -13 1676 118
1 -2 13 1672 117
-2 2 -13 954 92
2 -2 13 1109 90
2 -2 13 1094 88
-3 2 -13 203 50
3 -2 13 147 43
3 -2 13 168 44
-4 2 -13 586 85
4 -2 13 833 81
4 -2 13 827 85
-5 2 -13 253 63
5 -2 13 211 52
4 1 -13 249 61
-4 -1 13 330 62
3 1 -13 204 54
-3 -1 13 145 44
2 1 -13 1549 116
-2 -1 13 1374 109
1 1 -13 430 58
1 1 -13 426 60
-1 -1 13 515 66
0 1 -13 1197 92
0 1 -13 1189 94
0 -1 13 1340 99
-1 1 -13 724 76
-1 1 -13 734 71
1 -1 13 899 80
-2 1 -13 723 79
2 -1 13 786 77
2 -1 13 741 72
-3 1 -13 -5 32
3 -1 13 70 34
3 -1 13 82 34
-4 1 -13 65 42
4 -1 13 6 30
4 -1 13 14 30
-5 1 -13 58 43
5 -1 13 151 44
-6 1 -13 10 41
6 -1 13 40 39
4 0 -13 185 55
-4 0 13 192 51
3 0 -13 64 41
-3 0 13 31 32
2 0 -13 939 86
-2 0 13 915 87
1 0 -13 816 78
1 0 -13 799 73
-1 0 13 863 80
0 0 -13 2920 160
0 0 -13 2886 163
0 0 13 2748 167
-1 0 -13 1901 117
-1 0 -13 1793 124
1 0 13 1936 126
-2 0 -13 1557 112
2 0 13 1383 97
2 0 13 1471 107
-3 0 -13 1057 95
3 0 13 981 79
3 0 13 1057 90
-4 0 -13 257 57
4 0 13 186 46
4 0 13 166 42
-5 0 -13 782 93
5 0 13 867 82
5 0 13 877 86
-6 0 -13 273 64
6 0 13 141 46
4 -1 -13 269 61
-4 1 13 364 64
3 -1 -13 0 33
-3 1 13 60 34
2 -1 -13 1013 83
2 -1 -13 1008 91
-2 1 13 1138 92
1 -1 -13 946 79
1 -1 -13 866 77
-1 1 13 792 79
0 -1 -13 2208 130
0 -1 -13 2227 135
0 1 13 2224 140
-1 -1 -13 3749 207
-1 -1 -13 3821 197
1 1 13 4039 212
-2 -1 -13 3538 199
2 1 13 3585 198
2 1 13 3601 185
-3 -1 -13 2284 152
3 1 13 2494 138
3 1 13 2503 151
-4 -1 -13 534 79
4 1 13 637 64
4 1 13 656 74
-5 -1 -13 803 94
5 1 13 855 79
5 1 13 847 88
-6 -1 -13 809 99
6 1 13 956 133
4 -2 -13 1129 106
3 -2 -13 445 67
-3 2 13 353 60
2 -2 -13 1367 97
2 -2 -13 1276 99
-2 2 13 1172 97
1 -2 -13 1091 86
1 -2 -13 1037 84
-1 2 13 1120 91
0 -2 -13 741 73
0 -2 -13 735 64
0 2 13 588 68
-1 -2 -13 3247 167
-1 -2 -13 3247 182
1 2 13 3166 182
-2 -2 -13 2048 114
-2 -2 -13 1963 131
2 2 13 1787 125
-3 -2 -13 1768 123
3 2 13 1518 116
-4 -2 -13 615 79
4 2 13 691 77
-5 -2 -13 552 81
5 2 13 617 79
-6 -2 -13 231 60
6 2 13 414 72
4 -3 -13 633 88
3 -3 -13 -16 32
-3 3 13 13 29
2 -3 -13 335 57
-2 3 13 388 59
1 -3 -13 1709 116
-1 3 13 1715 118
0 -3 -13 1242 94
0 3 13 1105 92
-1 -3 -13 2718 160
1 3 13 2639 160
-2 -3 -13 2167 141
2 3 13 2260 143
-3 -3 -13 501 70
3 3 13 496 67
-4 -3 -13 493 73
4 3 13 501 71
-5 -3 -13 921 96
5 3 13 974 97
-6 -3 -13 165 56
6 3 13 178 53
3 -4 -13 21 32
2 -4 -13 244 49
-2 4 13 152 43
1 -4 -13 665 74
-1 4 13 752 74
0 -4 -13 663 72
0 4 13 634 72
-1 -4 -13 260 50
1 4 13 118 40
-2 -4 -13 3068 176
2 4 13 2910 175
-3 -4 -13 791 82
3 4 13 825 84
-4 -4 -13 294 56
4 4 13 166 49
-5 -4 -13 1085 107
5 4 13 1309 110
-6 -4 -13 282 62
6 4 13 271 63
3 -5 -13 639 80
-3 5 13 741 98
2 -5 -13 179 45
-2 5 13 86 45
-2 5 13 119 40
1 -5 -13 501 70
-1 5 13 619 70
0 -5 -13 637 73
0 5 13 734 77
-1 -5 -13 1494 111
1 5 13 1509 112
-2 -5 -13 1135 97
2 5 13 1100 97
-3 -5 -13 2421 156
3 5 13 2479 159
-4 -5 -13 406 66
4 5 13 309 62
-5 -5 -13 672 82
5 5 13 612 87
-6 -5 -13 738 89
6 5 13 838 98
3 -6 -13 899 95
-3 6 13 847 106
2 -6 -13 270 55
-2 6 13 273 63
1 -6 -13 888 89
-1 6 13 829 91
-1 6 13 816 81
0 -6 -13 1037 95
0 6 13 1139 96
-1 -6 -13 511 68
1 6 13 479 68
-2 -6 -13 1215 101
2 6 13 1162 103
-3 -6 -13 1466 114
3 6 13 1339 115
-4 -6 -13 221 52
4 6 13 161 50
-5 -6 -13 442 73
5 6 13 308 68
2 -7 -13 511 76
-2 7 13 595 93
1 -7 -13 525 76
-1 7 13 561 82
-1 7 13 559 72
0 -7 -13 1550 120
0 7 13 1553 118
0 7 13 1506 120
-1 -7 -13 2136 143
1 7 13 1998 138
1 7 13 2059 141
-2 -7 -13 786 83
2 7 13 661 82
-3 -7 -13 513 75
3 7 13 656 85
-4 -7 -13 464 71
4 7 13 432 74
-5 -7 -13 393 69
5 7 13 355 71
1 -8 -13 89 42
-1 8 13 192 60
0 -8 -13 11 36
0 8 13 44 43
0 8 13 57 40
-1 -8 -13 189 50
1 8 13 123 47
1 8 13 143 48
-2 -8 -13 985 99
2 8 13 968 100
2 8 13 1005 97
-3 -8 -13 548 77
3 8 13 568 85
-4 -8 -13 78 41
4 8 13 74 47
0 -9 -13 524 83
0 9 13 511 89
-1 -9 -13 541 80
1 9 13 406 71
1 9 13 453 77
-2 -9 -13 1097 105
2 9 13 991 105
2 9 13 1028 106
-3 -9 -13 921 98
3 9 13 870 97
3 9 13 914 105
1 5 -14 29 39
-1 -5 14 70 42
0 5 -14 189 53
0 -5 14 190 52
-1 5 -14 723 84
-1 5 -14 668 86
1 -5 14 824 88
-2 5 -14 223 59
2 -5 14 377 67
2 -5 14 310 60
-3 5 -14 266 67
3 -5 14 216 57
2 4 -14 510 79
-2 -4 14 383 69
1 4 -14 228 56
-1 -4 14 216 53
0 4 -14 500 75
0 4 -14 428 68
0 -4 14 431 71
-1 4 -14 2010 140
-1 4 -14 2087 141
1 -4 14 1883 138
-2 4 -14 120 49
2 -4 14 232 55
2 -4 14 242 54
-3 4 -14 560 83
3 -4 14 474 76
3 -4 14 481 72
-4 4 -14 630 94
4 -4 14 564 89
3 3 -14 142 54
-3 -3 14 178 54
2 3 -14 722 90
-2 -3 14 777 89
1 3 -14 433 68
-1 -3 14 416 70
0 3 -14 857 84
0 3 -14 821 85
0 -3 14 802 87
-1 3 -14 2633 165
-1 3 -14 2745 169
1 -3 14 2835 171
-2 3 -14 1817 133
2 -3 14 1879 131
2 -3 14 1781 127
-3 3 -14 125 49
3 -3 14 181 50
3 -3 14 209 50
-4 3 -14 1752 139
4 -3 14 1783 132
3 2 -14 339 71
-3 -2 14 352 65
2 2 -14 294 62
-2 -2 14 222 53
1 2 -14 569 73
-1 -2 14 663 76
0 2 -14 551 72
0 2 -14 610 71
0 -2 14 630 74
-1 2 -14 1882 131
-1 2 -14 1836 126
1 -2 14 1869 131
-2 2 -14 1954 135
2 -2 14 1722 126
2 -2 14 1873 126
-3 2 -14 1002 104
3 -2 14 1079 95
3 -2 14 1067 93
-4 2 -14 1184 116
4 -2 14 1358 111
4 -2 14 1307 106
-5 2 -14 367 73
5 -2 14 566 78
3 1 -14 794 94
-3 -1 14 889 93
2 1 -14 49 41
-2 -1 14 119 43
1 1 -14 442 60
1 1 -14 396 62
-1 -1 14 283 55
0 1 -14 8 27
0 1 -14 17 31
0 -1 14 17 29
-1 1 -14 753 74
-1 1 -14 732 82
1 -1 14 694 77
-2 1 -14 1852 134
2 -1 14 1993 134
2 -1 14 1954 127
-3 1 -14 327 62
3 -1 14 223 51
3 -1 14 235 48
-4 1 -14 450 77
4 -1 14 577 74
4 -1 14 626 75
-5 1 -14 137 54
5 -1 14 159 48
3 0 -14 459 75
-3 0 14 482 74
2 0 -14 272 57
-2 0 14 383 66
1 0 -14 412 65
1 0 -14 465 61
-1 0 14 358 63
0 0 -14 1525 110
0 0 -14 1558 109
0 0 14 1555 115
-1 0 -14 638 75
-1 0 -14 631 67
1 0 14 555 73
-2 0 -14 938 92
2 0 14 928 88
2 0 14 867 78
-3 0 -14 845 89
3 0 14 742 71
3 0 14 726 80
-4 0 -14 1017 100
4 0 14 943 83
4 0 14 872 89
-5 0 -14 692 93
5 0 14 725 83
5 0 14 673 80
3 -1 -14 322 63
-3 1 14 420 68
2 -1 -14 763 85
-2 1 14 928 87
1 -1 -14 189 44
1 -1 -14 235 49
-1 1 14 284 55
0 -1 -14 680 72
0 -1 -14 651 65
0 1 14 652 77
-1 -1 -14 1377 109
-1 -1 -14 1489 99
1 1 14 1515 112
-2 -1 -14 1795 127
-2 -1 -14 1646 109
2 1 14 1873 127
-3 -1 -14 900 92
3 1 14 990 92
3 1 14 962 78
-4 -1 -14 1353 115
4 1 14 1469 113
4 1 14 1304 104
-5 -1 -14 684 91
5 1 14 792 86
3 -2 -14 1069 98
-3 2 14 1054 97
2 -2 -14 1451 112
2 -2 -14 1595 111
-2 2 14 1603 117
1 -2 -14 367 59
1 -2 -14 347 55
-1 2 14 284 54
0 -2 -14 658 72
0 -2 -14 509 60
0 2 14 603 73
-1 -2 -14 1023 93
1 2 14 1041 91
-2 -2 -14 2615 163
2 2 14 2664 163
-3 -2 -14 883 91
3 2 14 860 88
-4 -2 -14 1007 100
4 2 14 881 93
-5 -2 -14 427 75
5 2 14 419 70
-6 -2 -14 191 58
6 2 14 223 57
-3 3 14 389 66
2 -3 -14 410 64
-2 3 14 500 66
1 -3 -14 1281 100
-1 3 14 1209 102
0 -3 -14 927 86
0 3 14 801 83
-1 -3 -14 1270 104
1 3 14 1345 105
-2 -3 -14 700 79
2 3 14 758 80
-3 -3 -14 1157 103
3 3 14 1190 102
-4 -3 -14 328 64
4 3 14 378 65
-5 -3 -14 990 102
5 3 14 955 101
-6 -3 -14 74 49
6 3 14 52 45
2 -4 -14 261 53
-2 4 14 274 54
1 -4 -14 201 48
-1 4 14 307 55
0 4 14 178 47
-1 -4 -14 843 83
1 4 14 692 80
-2 -4 -14 598 76
2 4 14 794 83
-3 -4 -14 374 64
3 4 14 363 64
-4 -4 -14 162 50
4 4 14 131 48
-5 -4 -14 243 59
5 4 14 308 64
2 -5 -14 463 72
-2 5 14 364 64
1 -5 -14 229 51
0 -5 -14 778 81
0 5 14 667 79
-1 -5 -14 470 68
1 5 14 454 70
-2 -5 -14 1976 136
2 5 14 1896 135
-3 -5 -14 1268 108
3 5 14 1255 109
-4 -5 -14 342 63
4 5 14 390 71
-5 -5 -14 320 65
5 5 14 469 79
2 -6 -14 1479 121
1 -6 -14 801 89
-1 6 14 854 86
0 -6 -14 119 44
0 6 14 170 47
-1 -6 -14 1537 116
1 6 14 1231 109
-2 -6 -14 1631 123
2 6 14 1556 123
-3 -6 -14 1839 136
3 6 14 1943 141
-4 -6 -14 925 95
4 6 14 753 94
-5 -6 -14 382 71
5 6 14 409 77
1 -7 -14 1184 111
0 -7 -14 448 73
0 7 14 607 77
-1 -7 -14 537 77
1 7 14 604 78
-2 -7 -14 616 82
2 7 14 579 81
-3 -7 -14 1475 123
3 7 14 1600 127
-4 -7 -14 1024 102
4 7 14 1111 110
0 -8 -14 17 39
0 8 14 29 37
-1 -8 -14 30 37
1 8 14 3 36
-2 -8 -14 276 60
2 8 14 193 57
-3 -8 -14 611 84
3 8 14 574 87
1 4 -15 77 47
-1 -4 15 83 44
0 4 -15 375 67
0 -4 15 352 66
-1 4 -15 752 89
-1 4 -15 718 91
1 -4 15 767 89
-2 4 -15 59 48
2 -4 15 96 43
2 -4 15 86 46
2 3 -15 631 91
-2 -3 15 655 88
1 3 -15 175 51
-1 -3 15 118 46
0 3 -15 595 81
0 3 -15 626 80
0 -3 15 584 81
-1 3 -15 1520 119
-1 3 -15 1538 122
1 -3 15 1464 119
-2 3 -15 121 51
2 -3 15 210 54
2 -3 15 245 55
-3 3 -15 1068 110
3 -3 15 1083 100
3 -3 15 1128 107
2 2 -15 1086 113
-2 -2 15 1290 113
1 2 -15 31 36
-1 -2 15 14 34
0 2 -15 668 79
0 2 -15 575 75
0 -2 15 649 82
-1 2 -15 2319 149
-1 2 -15 2240 150
1 -2 15 2236 150
-2 2 -15 1365 115
2 -2 15 1367 112
2 -2 15 1419 110
-3 2 -15 78 49
3 -2 15 109 45
3 -2 15 162 47
-4 2 -15 1828 146
4 -2 15 1943 136
4 -2 15 1873 136
2 1 -15 713 88
-2 -1 15 654 85
1 1 -15 34 37
-1 -1 15 66 39
0 1 -15 212 50
0 1 -15 164 45
0 -1 15 99 41
-1 1 -15 1058 97
-1 1 -15 1036 92
1 -1 15 1059 99
-2 1 -15 662 84
-2 1 -15 713 74
2 -1 15 800 85
2 -1 15 814 80
-3 1 -15 340 65
3 -1 15 308 56
3 -1 15 320 62
-4 1 -15 555 87
4 -1 15 570 79
4 -1 15 636 80
3 0 -15 726 97
-3 0 15 896 93
2 0 -15 456 75
-2 0 15 463 75
1 0 -15 669 80
1 0 -15 721 77
-1 0 15 749 84
0 0 -15 56 36
0 0 -15 53 36
0 0 15 9 29
-1 0 -15 1469 106
-1 0 -15 1585 117
1 0 15 1296 113
-2 0 -15 1117 103
-2 0 -15 1108 91
2 0 15 1172 103
-3 0 -15 414 70
3 0 15 335 61
3 0 15 291 52
-4 0 -15 932 103
4 0 15 1095 93
4 0 15 947 94
-5 0 -15 896 104
5 0 15 875 96
3 -1 -15 38 44
-3 1 15 127 47
2 -1 -15 296 61
-2 1 15 428 72
1 -1 -15 403 64
1 -1 -15 409 63
-1 1 15 377 65
0 -1 -15 362 60
0 -1 -15 437 65
0 1 15 461 70
-1 -1 -15 341 55
-1 -1 -15 401 67
1 1 15 385 66
-2 -1 -15 1292 110
-2 -1 -15 1119 91
2 1 15 1295 106
-3 -1 -15 836 94
3 1 15 998 94
-4 -1 -15 1020 105
4 1 15 1079 101
-5 -1 -15 747 98
5 1 15 873 95
2 -2 -15 690 123
-2 2 15 768 85
1 -2 -15 580 71
-1 2 15 488 73
0 -2 -15 149 46
0 2 15 319 59
-1 -2 -15 693 81
1 2 15 577 74
-2 -2 -15 1768 129
2 2 15 1683 125
-3 -2 -15 652 83
3 2 15 578 81
-4 -2 -15 1102 107
4 2 15 979 98
-5 -2 -15 133 53
5 2 15 206 56
2 -3 -15 477 70
-2 3 15 461 73
1 -3 -15 606 73
-1 3 15 533 76
0 -3 -15 217 50
0 3 15 285 57
-1 -3 -15 218 52
1 3 15 314 60
-2 -3 -15 1386 113
2 3 15 1361 114
-3 -3 -15 495 75
3 3 15 479 74
-4 -3 -15 1129 108
4 3 15 1074 105
-5 -3 -15 500 81
5 3 15 480 83
2 -4 -15 145 47
-2 4 15 193 51
1 -4 -15 738 83
-1 4 15 731 84
0 -4 -15 244 53
0 4 15 155 46
-1 -4 -15 129 44
1 4 15 236 53
-2 -4 -15 324 61
2 4 15 314 60
-3 -4 -15 569 79
3 4 15 527 78
-4 -4 -15 523 81
4 4 15 527 80
-5 -4 -15 757 95
5 4 15 832 101
1 -5 -15 185 50
-1 5 15 189 51
0 -5 -15 811 89
0 5 15 905 92
-1 -5 -15 54 37
1 5 15 22 35
-2 -5 -15 499 75
2 5 15 570 80
-3 -5 -15 448 75
3 5 15 423 73
-4 -5 -15 404 71
4 5 15 478 80
1 -6 -15 334 64
-1 6 15 262 57
0 -6 -15 1010 100
0 6 15 1018 99
-1 -6 -15 552 78
1 6 15 572 81
-2 -6 -15 549 81
2 6 15 545 79
-3 -6 -15 1197 109
3 6 15 1121 110
-4 -6 -15 1573 127
4 6 15 1318 125
0 -7 -15 819 95
0 7 15 968 98
-1 -7 -15 930 99
1 7 15 903 100
-2 -7 -15 547 81
2 7 15 701 91
-3 -7 -15 728 92
3 7 15 794 97
0 3 -16 214 56
0 -3 16 211 56
-1 3 -16 178 53
-1 3 -16 171 55
1 -3 16 178 53
-2 3 -16 32 46
-2 3 -16 111 43
2 -3 16 63 42
1 2 -16 928 99
-1 -2 16 848 96
0 2 -16 438 69
0 2 -16 409 69
0 -2 16 479 77
-1 2 -16 700 83
-1 2 -16 721 92
1 -2 16 650 83
-2 2 -16 201 60
-2 2 -16 214 51
2 -2 16 143 49
-3 2 -16 536 88
3 -2 16 569 81
3 -2 16 503 77
1 1 -16 299 63
-1 -1 16 205 56
0 1 -16 367 64
0 1 -16 398 67
0 -1 16 374 66
-1 1 -16 448 75
-1 1 -16 409 65
1 -1 16 500 75
-2 1 -16 345 68
-2 1 -16 368 62
2 -1 16 288 62
-3 1 -16 213 62
3 -1 16 214 55
3 -1 16 232 54
2 0 -16 980 104
1 0 -16 90 47
-1 0 16 89 44
0 0 -16 439 66
0 0 -16 445 69
0 0 16 284 61
-1 0 -16 661 85
-1 0 -16 680 77
1 0 16 792 91
-2 0 -16 54 37
-2 0 -16 24 40
2 0 16 155 49
-3 0 -16 589 85
3 0 16 427 66
3 0 16 458 77
-4 0 -16 287 66
4 0 16 434 76
2 -1 -16 523 81
-2 1 16 643 84
1 -1 -16 227 52
1 -1 -16 236 57
-1 1 16 204 54
0 -1 -16 614 87
0 -1 -16 673 81
0 1 16 441 77
-1 -1 -16 715 85
1 1 16 671 87
-2 -1 -16 116 49
2 1 16 205 54
-3 -1 -16 276 65
3 1 16 225 56
-4 -1 -16 955 109
4 1 16 987 103
1 -2 -16 727 83
-1 2 16 626 84
0 -2 -16 283 57
0 2 16 257 59
-1 -2 -16 1096 101
1 2 16 1132 104
-2 -2 -16 640 87
2 2 16 580 81
-3 -2 -16 598 86
3 2 16 633 85
-4 -2 -16 843 101
4 2 16 832 98
1 -3 -16 220 52
-1 3 16 184 52
0 -3 -16 87 42
0 3 16 157 49
-1 -3 -16 557 78
1 3 16 558 80
-2 -3 -16 482 77
2 3 16 560 78
-3 -3 -16 84 47
3 3 16 43 42
-4 -3 -16 738 96
4 3 16 722 94
1 -4 -16 126 45
-1 4 16 163 50
0 -4 -16 570 78
0 4 16 351 65
-1 -4 -16 21 35
1 4 16 85 44
-2 -4 -16 209 55
2 4 16 285 62
-3 -4 -16 261 59
3 4 16 123 50
-4 -4 -16 361 70
4 4 16 377 72
0 -5 -16 371 68
0 5 16 280 60
-1 -5 -16 737 92
1 5 16 803 92
-2 -5 -16 211 57
2 5 16 336 65
-3 -5 -16 187 55
3 5 16 160 54
-1 -6 -16 485 78
1 6 16 387 70
-2 -6 -16 612 88
2 6 16 668 90
-3 -6 -16 546 84
3 6 16 470 82
-1 1 -17 750 95
-1 1 -17 690 86
1 -1 17 622 89
0 0 -17 172 52
0 0 -17 155 52
0 0 17 249 59
-1 0 -17 301 64
-1 0 -17 276 57
1 0 17 458 79
-2 0 -17 161 56
2 0 17 257 61
0 -1 -17 200 53
0 1 17 88 46
-1 -1 -17 61 43
1 1 17 135 51
-2 -1 -17 99 50
2 1 17 142 52
-3 -1 -17 81 48
3 1 17 50 41
0 -2 -17 735 90
0 2 17 629 88
-1 -2 -17 1185 109
1 2 17 1098 108
-2 -2 -17 317 67
2 2 17 270 61
-3 -2 -17 238 62
3 2 17 258 62
0 -3 -17 196 53
0 3 17 310 65
-1 -3 -17 1891 145
1 3 17 2019 148
-2 -3 -17 519 84
2 3 17 676 86
-3 -3 -17 48 45
3 3 17 95 48
-1 -4 -17 837 97
1 4 17 605 86
-2 -4 -17 617 90
2 4 17 845 96
loop_
_geom_angle_atom_site_label_1
_geom_angle_atom_site_label_2
_geom_angle_atom_site_label_3
_geom_angle
_geom_angle_site_symmetry_1
_geom_angle_site_symmetry_3
_geom_angle_publ_flag
N2 Co1 N1 177.35(7) . 1_545 ?
N3 Co1 N1 86.68(6) . 1_545 ?
N3 Co1 N2 93.28(5) . . ?
O1 Co1 N1 99.42(5) . 1_545 ?
O1 Co1 N2 77.94(5) . . ?
O1 Co1 N3 91.66(6) . . ?
O5 Co1 N1 92.42(5) . 1_545 ?
O5 Co1 N2 90.22(5) . . ?
O5 Co1 N3 93.16(6) . . ?
O5 Co1 O1 167.46(5) . . ?
O6 Co1 N1 85.89(5) . 1_545 ?
O6 Co1 N2 94.09(5) . . ?
O6 Co1 N3 172.50(6) . . ?
O6 Co1 O1 88.55(5) . . ?
O6 Co1 O5 88.17(5) . . ?
C15 N1 Co1 118.41(12) . 1_565 ?
C19 N1 Co1 124.50(12) . 1_565 ?
C19 N1 C15 117.07(14) . . ?
C20 N2 Co1 109.19(9) . . ?
C22 N2 Co1 108.88(9) . . ?
C22 N2 C20 112.20(13) . . ?
C1 N3 Co1 119.16(13) . . ?
C2 N3 Co1 124.23(12) . . ?
C2 N3 C1 116.58(16) . . ?
C7 N4 C6 111.16(14) . . ?
C21 O1 Co1 118.05(10) . . ?
C5 C1 N3 123.25(18) . . ?
C3 C2 N3 123.79(17) . . ?
C4 C3 C2 120.04(18) . . ?
C5 C4 C3 116.51(16) . . ?
C6 C4 C3 120.8(2) . . ?
C6 C4 C5 122.55(19) . . ?
C4 C5 C1 119.81(17) . . ?
C4 C6 N4 112.73(16) . . ?
C8 C7 N4 114.10(14) . . ?
C9 C7 N4 109.05(14) . . ?
C9 C7 C8 111.37(13) . . ?
O4 C8 O3 125.12(16) . . ?
C7 C8 O3 118.56(15) . . ?
C7 C8 O4 116.30(15) . . ?
C10 C9 C7 120.23(19) . . ?
C14 C9 C7 122.46(18) . . ?
C14 C9 C10 117.3(2) . . ?
C11 C10 C9 121.7(3) . . ?
C12 C11 C10 120.7(3) . . ?
C13 C12 C11 119.2(3) . . ?
C14 C13 C12 120.4(3) . . ?
C13 C14 C9 120.6(2) . . ?
C16 C15 N1 122.93(15) . . ?
C17 C16 C15 119.95(14) . . ?
C18 C17 C16 117.25(13) . . ?
C20 C17 C16 121.35(13) . . ?
C20 C17 C18 121.39(13) . . ?
C19 C18 C17 119.59(14) . . ?
C18 C19 N1 123.16(15) . . ?
C17 C20 N2 113.46(12) . . ?
O2 C21 O1 124.52(14) . . ?
C22 C21 O1 118.12(12) . . ?
C22 C21 O2 117.35(12) . . ?
C21 C22 N2 109.30(11) . . ?
C23 C22 N2 112.36(12) . . ?
C23 C22 C21 111.87(12) . . ?
C24 C23 C22 118.96(15) . . ?
C28 C23 C22 123.24(15) . . ?
C28 C23 C24 117.79(16) . . ?
C25 C24 C23 120.9(2) . . ?
C26 C25 C24 120.0(2) . . ?
C27 C26 C25 120.1(2) . . ?
C28 C27 C26 120.3(2) . . ?
C27 C28 C23 120.9(2) . . ?
loop_
_geom_bond_atom_site_label_1
_geom_bond_atom_site_label_2
_geom_bond_distance
_geom_bond_site_symmetry_2
_geom_bond_publ_flag
Co1 N1 2.1388(14) 1_545 y
Co1 N2 2.1991(13) . y
Co1 N3 2.1901(15) . y
Co1 O1 2.0728(12) . y
Co1 O5 2.0386(12) . y
Co1 O6 2.1945(13) . y
N1 C15 1.345(2) . ?
N1 C19 1.331(2) . ?
N2 C20 1.495(2) . ?
N2 C22 1.4731(19) . ?
N3 C1 1.341(2) . ?
N3 C2 1.329(2) . ?
N4 C6 1.464(2) . ?
N4 C7 1.469(2) . ?
O1 C21 1.2781(18) . ?
O2 C21 1.2348(17) . ?
O3 C8 1.245(2) . ?
O4 C8 1.258(2) . ?
C1 C5 1.383(3) . ?
C2 C3 1.374(2) . ?
C3 C4 1.386(3) . ?
C4 C5 1.387(3) . ?
C4 C6 1.509(3) . ?
C7 C8 1.534(2) . ?
C7 C9 1.526(3) . ?
C9 C10 1.385(3) . ?
C9 C14 1.397(3) . ?
C10 C11 1.367(4) . ?
C11 C12 1.366(4) . ?
C12 C13 1.379(4) . ?
C13 C14 1.382(3) . ?
C15 C16 1.377(2) . ?
C16 C17 1.380(2) . ?
C17 C18 1.384(2) . ?
C17 C20 1.5148(19) . ?
C18 C19 1.385(2) . ?
C21 C22 1.5327(19) . ?
C22 C23 1.523(2) . ?
C23 C24 1.396(2) . ?
C23 C28 1.373(3) . ?
C24 C25 1.382(3) . ?
C25 C26 1.368(4) . ?
C26 C27 1.356(4) . ?
C27 C28 1.394(3) . ?
loop_
_geom_torsion_atom_site_label_1
_geom_torsion_atom_site_label_2
_geom_torsion_atom_site_label_3
_geom_torsion_atom_site_label_4
_geom_torsion
_geom_torsion_site_symmetry_1
_geom_torsion_site_symmetry_2
_geom_torsion_site_symmetry_3
_geom_torsion_site_symmetry_4
_geom_torsion_publ_flag
Co1 N1 C15 C16 -179.32(13) 1_565 . . . ?
Co1 N1 C19 C18 179.31(13) 1_565 . . . ?
Co1 N2 C20 C17 179.30(9) . . . . ?
Co1 N2 C22 C21 29.43(10) . . . . ?
Co1 N2 C22 C23 -95.38(10) . . . . ?
Co1 N3 C1 C5 177.00(14) . . . . ?
Co1 N3 C2 C3 -176.47(15) . . . . ?
Co1 O1 C21 O2 -175.56(10) . . . . ?
Co1 O1 C21 C22 5.48(11) . . . . ?
N1 C15 C16 C17 -0.3(2) . . . . ?
N1 C19 C18 C17 0.5(2) . . . . ?
N2 C20 C17 C16 -67.95(16) . . . . ?
N2 C20 C17 C18 110.74(14) . . . . ?
N2 C22 C21 O1 -24.53(14) . . . . ?
N2 C22 C21 O2 156.43(12) . . . . ?
N2 C22 C23 C24 -56.83(15) . . . . ?
N2 C22 C23 C28 124.16(15) . . . . ?
N3 C1 C5 C4 -0.2(2) . . . . ?
N3 C2 C3 C4 -0.6(2) . . . . ?
N4 C6 C4 C3 131.3(2) . . . . ?
N4 C6 C4 C5 -53.0(3) . . . . ?
N4 C7 C8 O3 -43.55(18) . . . . ?
N4 C7 C8 O4 138.13(16) . . . . ?
N4 C7 C9 C10 -84.49(18) . . . . ?
N4 C7 C9 C14 95.71(16) . . . . ?
O1 C21 C22 C23 100.56(14) . . . . ?
O2 C21 C22 C23 -78.48(14) . . . . ?
O3 C8 C7 C9 80.44(18) . . . . ?
O4 C8 C7 C9 -97.87(16) . . . . ?
C1 C5 C4 C3 1.1(2) . . . . ?
C1 C5 C4 C6 -174.8(2) . . . . ?
C2 C3 C4 C5 -0.7(2) . . . . ?
C2 C3 C4 C6 175.2(2) . . . . ?
C7 C9 C10 C11 179.3(2) . . . . ?
C7 C9 C14 C13 -178.31(19) . . . . ?
C9 C10 C11 C12 -0.1(3) . . . . ?
C9 C14 C13 C12 -1.9(2) . . . . ?
C10 C11 C12 C13 0.2(3) . . . . ?
C11 C12 C13 C14 0.8(3) . . . . ?
C15 C16 C17 C18 -1.3(2) . . . . ?
C15 C16 C17 C20 177.43(16) . . . . ?
C16 C17 C18 C19 1.22(18) . . . . ?
C21 C22 C23 C24 179.79(14) . . . . ?
C21 C22 C23 C28 0.78(16) . . . . ?
C22 C23 C24 C25 -179.15(18) . . . . ?
C22 C23 C28 C27 180.0(2) . . . . ?
C23 C24 C25 C26 -1.6(2) . . . . ?
C23 C28 C27 C26 -0.2(3) . . . . ?
C24 C25 C26 C27 2.4(3) . . . . ?
C25 C26 C27 C28 -1.5(3) . . . . ?
loop_
_restr_distance_atom_site_label_1
_restr_distance_atom_site_label_2
_restr_distance_site_symmetry_2
_restr_distance_target
_restr_distance_target_weight_param
_restr_distance_diff
O5 H5a 1 0.8500 0.0200 0.0331
O5 H5b 1 0.8500 0.0200 -0.0045
H5a H5b 1 1.3400 0.0400 0.0296
loop_
_restr_equal_distance_atom_site_label_1
_restr_equal_distance_atom_site_label_2
_restr_equal_distance_site_symmetry_2
_restr_equal_distance_class_id
Co1 H5a 1 1
Co1 H5b 1 1
loop_
_restr_equal_distance_class_class_id
_restr_equal_distance_class_target_weight_param
_restr_equal_distance_class_average
_restr_equal_distance_class_esd
_restr_equal_distance_class_diff_max
1 0.0200 2.6062 0.0137 0.0137
loop_
_smtbx_masks_void_nr
_smtbx_masks_void_average_x
_smtbx_masks_void_average_y
_smtbx_masks_void_average_z
_smtbx_masks_void_volume
_smtbx_masks_void_count_electrons
_smtbx_masks_void_content
1 0.506 0.135 0.795 88.0 16.6 '2 water'
