#------------------------------------------------------------------------------
#$Date: 2020-10-06 11:42:23 +0300 (Tue, 06 Oct 2020) $
#$Revision: 257522 $
#$URL: file:///home/coder/svn-repositories/cod/cif/7/70/47/7704728.cif $
#------------------------------------------------------------------------------
#
# This file is available in the Crystallography Open Database (COD),
# http://www.crystallography.net/
#
# All data on this site have been placed in the public domain by the
# contributors.
#
data_7704728
loop_
_publ_author_name
'Xu, Xuebin'
'Liu, Meiying'
'Liu, Zhiliang'
_publ_section_title
;
 Crystal structures and the ferroelectric properties of homochiral
 metal-organic frameworks constructed from a single chiral ligand.
;
_journal_issue                   30
_journal_name_full
'Dalton transactions (Cambridge, England : 2003)'
_journal_page_first              10402
_journal_page_last               10406
_journal_paper_doi               10.1039/d0dt01323d
_journal_volume                  49
_journal_year                    2020
_chemical_absolute_configuration ad
_chemical_formula_moiety         'C28 H28 Co N4 O5'
_chemical_formula_sum            'C28 H28 Co N4 O5'
_chemical_formula_weight         559.47
_space_group_crystal_system      monoclinic
_space_group_IT_number           4
_space_group_name_Hall           'P 2yb'
_space_group_name_H-M_alt        'P 1 21 1'
_atom_sites_solution_hydrogens   mixed
_atom_sites_solution_primary     dual
_audit_creation_date             2020-05-29
_audit_creation_method
;
Olex2 1.2
(compiled 2018.05.29 svn.r3508 for OlexSys, GUI svn.r5506)
;
_audit_update_record
;
2020-06-24 deposited with the CCDC.	2020-06-29 downloaded from the CCDC.
;
_cell_angle_alpha                90
_cell_angle_beta                 100.936(2)
_cell_angle_gamma                90
_cell_formula_units_Z            2
_cell_length_a                   6.3218(7)
_cell_length_b                   24.686(3)
_cell_length_c                   9.3234(11)
_cell_measurement_reflns_used    9995
_cell_measurement_temperature    273(2)
_cell_measurement_theta_max      28.31
_cell_measurement_theta_min      2.37
_cell_volume                     1428.6(3)
_computing_cell_refinement       'SAINT v8.34A (Bruker, 2013)'
_computing_data_collection       'Bruker APEX2'
_computing_data_reduction        'SAINT v8.34A (Bruker, 2013)'
_computing_molecular_graphics    'Olex2 (Dolomanov et al., 2009)'
_computing_publication_material  'Olex2 (Dolomanov et al., 2009)'
_computing_structure_refinement  'ShelXL (Sheldrick, 2015)'
_computing_structure_solution    'ShelXT (Sheldrick, 2015)'
_diffrn_ambient_temperature      273.15
_diffrn_detector                 'Bruker APEX2 area detector'
_diffrn_detector_area_resol_mean 7.9
_diffrn_detector_type            'CCD area detector'
_diffrn_measured_fraction_theta_full 1.000
_diffrn_measured_fraction_theta_max 0.997
_diffrn_measurement_device       'three-circle diffractometer'
_diffrn_measurement_device_type  'Bruker SMART APEX2 area detector'
_diffrn_measurement_method       '\w and \f scans'
_diffrn_radiation_monochromator  'mirror optics'
_diffrn_radiation_probe          x-ray
_diffrn_radiation_type           MoK\a
_diffrn_radiation_wavelength     0.71073
_diffrn_reflns_av_R_equivalents  0.0203
_diffrn_reflns_av_unetI/netI     0.0321
_diffrn_reflns_Laue_measured_fraction_full 1.000
_diffrn_reflns_Laue_measured_fraction_max 0.997
_diffrn_reflns_limit_h_max       8
_diffrn_reflns_limit_h_min       -8
_diffrn_reflns_limit_k_max       33
_diffrn_reflns_limit_k_min       -32
_diffrn_reflns_limit_l_max       12
_diffrn_reflns_limit_l_min       -12
_diffrn_reflns_number            20232
_diffrn_reflns_point_group_measured_fraction_full 0.996
_diffrn_reflns_point_group_measured_fraction_max 0.993
_diffrn_reflns_theta_full        25.242
_diffrn_reflns_theta_max         28.400
_diffrn_reflns_theta_min         1.650
_diffrn_source                   'microfocus sealed X-ray tube'
_diffrn_source_type              'Incoatec I\ms'
_exptl_absorpt_coefficient_mu    0.643
_exptl_absorpt_correction_T_max  0.7457
_exptl_absorpt_correction_T_min  0.7023
_exptl_absorpt_correction_type   multi-scan
_exptl_absorpt_process_details
;
SADABS-2014/5 (Bruker,2014/5) was used for absorption correction.
wR2(int) was 0.0707 before and 0.0537 after correction.
The Ratio of minimum to maximum transmission is 0.9418.
The \l/2 correction factor is 0.00150.
;
_exptl_crystal_colour            red
_exptl_crystal_colour_primary    red
_exptl_crystal_density_diffrn    1.301
_exptl_crystal_description       block
_exptl_crystal_F_000             582
_exptl_crystal_size_max          0.3
_exptl_crystal_size_mid          0.2
_exptl_crystal_size_min          0.1
_refine_diff_density_max         0.437
_refine_diff_density_min         -0.287
_refine_diff_density_rms         0.064
_refine_ls_abs_structure_details
;
 Flack x determined using 3135 quotients [(I+)-(I-)]/[(I+)+(I-)]
 (Parsons, Flack and Wagner, Acta Cryst. B69 (2013) 249-259).
;
_refine_ls_abs_structure_Flack   0.021(4)
_refine_ls_extinction_method     none
_refine_ls_goodness_of_fit_ref   1.068
_refine_ls_hydrogen_treatment    constr
_refine_ls_matrix_type           full
_refine_ls_number_parameters     635
_refine_ls_number_reflns         7133
_refine_ls_number_restraints     672
_refine_ls_restrained_S_all      1.082
_refine_ls_R_factor_all          0.0355
_refine_ls_R_factor_gt           0.0337
_refine_ls_shift/su_max          0.001
_refine_ls_shift/su_mean         0.000
_refine_ls_structure_factor_coef Fsqd
_refine_ls_weighting_details
'w=1/[\s^2^(Fo^2^)+(0.0651P)^2^] where P=(Fo^2^+2Fc^2^)/3'
_refine_ls_weighting_scheme      calc
_refine_ls_wR_factor_gt          0.0909
_refine_ls_wR_factor_ref         0.0920
_reflns_Friedel_coverage         0.947
_reflns_Friedel_fraction_full    0.992
_reflns_Friedel_fraction_max     0.988
_reflns_number_gt                6805
_reflns_number_total             7133
_reflns_threshold_expression     'I > 2\s(I)'
_cod_data_source_file            d0dt01323d2.cif
_cod_data_source_block           1
_cod_depositor_comments
;
The following automatic conversions were performed:

data item '_chemical_absolute_configuration' value 'AD' was changed
to 'ad' in accordance with the
/home/data/users/saulius/crontab/automatic-downloads/rss-feeds/RSC/lib/dictionaries/cif_core.dic
dictionary named 'cif_core.dic' version 2.4.2 last updated on
2011-04-26.

Automatic conversion script
Id: cif_fix_values 7556 2019-12-06 15:28:31Z antanas 

 Adding full bibliography for 7704728--7704729.cif.

 Adding full bibliography for 7704728--7704729.cif.
;
_cod_database_code               7704728
_shelx_shelxl_version_number     2018/3
_shelx_space_group_comment
;
The symmetry employed for this shelxl refinement is uniquely defined
by the following loop, which should always be used as a source of
symmetry information in preference to the above space-group names.
They are only intended as comments.
;
_shelx_estimated_absorpt_t_max   0.939
_shelx_estimated_absorpt_t_min   0.831
_olex2_refinement_description
;
1. Fixed Uiso
 At 1.2 times of:
  All C(H) groups, All C(H,H) groups, All N(H) groups
 At 1.5 times of:
  All O(H,H) groups
2. Restrained distances
 O2-C6 \\sim O2-C29
 with sigma of 0.02
 N3-C12 \\sim N5-C32
 with sigma of 0.02
 N3-C19 \\sim N5-C33
 with sigma of 0.02
 O5-C6 \\sim O6-C29
 with sigma of 0.02
 N4-C9 \\sim N6-C30
 with sigma of 0.02
 N4-C28 \\sim N6-C42
 with sigma of 0.02
 C6-C9 \\sim C29-C30
 with sigma of 0.02
 C9-C11 \\sim C30-C31
 with sigma of 0.02
 C11-C21 \\sim C31-C35
 with sigma of 0.02
 C11-C26 \\sim C31-C40
 with sigma of 0.02
 C12-C23 \\sim C32-C37
 with sigma of 0.02
 C19-C25 \\sim C33-C39
 with sigma of 0.02
 C20-C24 \\sim C34-C38
 with sigma of 0.02
 C20-C27 \\sim C34-C41
 with sigma of 0.02
 C21-C24 \\sim C35-C38
 with sigma of 0.02
 C22-C23 \\sim C36-C37
 with sigma of 0.02
 C22-C25 \\sim C36-C39
 with sigma of 0.02
 C22-C28 \\sim C36-C42
 with sigma of 0.02
 C26-C27 \\sim C40-C41
 with sigma of 0.02
 O2-O5 \\sim O2-O6
 with sigma of 0.04
 O2-C9 \\sim O2-C30
 with sigma of 0.04
 N3-C23 \\sim N5-C37
 with sigma of 0.04
 N3-C25 \\sim N5-C39
 with sigma of 0.04
 O5-C9 \\sim O6-C30
 with sigma of 0.04
 N4-C6 \\sim N6-C29
 with sigma of 0.04
 N4-C11 \\sim N6-C31
 with sigma of 0.04
 N4-C22 \\sim N6-C36
 with sigma of 0.04
 C6-C11 \\sim C29-C31
 with sigma of 0.04
 C9-C21 \\sim C30-C35
 with sigma of 0.04
 C9-C26 \\sim C30-C40
 with sigma of 0.04
 C9-C28 \\sim C30-C42
 with sigma of 0.04
 C11-C24 \\sim C31-C38
 with sigma of 0.04
 C11-C27 \\sim C31-C41
 with sigma of 0.04
 C12-C19 \\sim C32-C33
 with sigma of 0.04
 C12-C22 \\sim C32-C36
 with sigma of 0.04
 C19-C22 \\sim C33-C36
 with sigma of 0.04
 C20-C21 \\sim C34-C35
 with sigma of 0.04
 C20-C26 \\sim C34-C40
 with sigma of 0.04
 C21-C26 \\sim C35-C40
 with sigma of 0.04
 C23-C25 \\sim C37-C39
 with sigma of 0.04
 C23-C28 \\sim C37-C42
 with sigma of 0.04
 C24-C27 \\sim C38-C41
 with sigma of 0.04
 C25-C28 \\sim C39-C42
 with sigma of 0.04
 Co1-N2 \\sim Co1-N8
 with sigma of 0.02
 O1-C2 \\sim O7-C44
 with sigma of 0.02
 N2-C5 \\sim N8-C47
 with sigma of 0.02
 O4-C2 \\sim O8-C44
 with sigma of 0.02
 C1-C3 \\sim C43-C45
 with sigma of 0.02
 C2-C4 \\sim C44-C46
 with sigma of 0.02
 C3-C7 \\sim C45-C48
 with sigma of 0.02
 C3-C8 \\sim C45-C49
 with sigma of 0.02
 C4-C13 \\sim C46-C51
 with sigma of 0.02
 C5-C7 \\sim C47-C48
 with sigma of 0.02
 C13-C14 \\sim C51-C52
 with sigma of 0.02
 C13-C18 \\sim C51-C56
 with sigma of 0.02
 C14-C15 \\sim C52-C53
 with sigma of 0.02
 C17-C18 \\sim C55-C56
 with sigma of 0.02
 Co1-C5 \\sim Co1-C47
 with sigma of 0.04
 O1-O4 \\sim O7-O8
 with sigma of 0.04
 O1-C4 \\sim O7-C46
 with sigma of 0.04
 N2-C7 \\sim N8-C48
 with sigma of 0.04
 N2-C8 \\sim N8-C49
 with sigma of 0.04
 O4-C4 \\sim O8-C46
 with sigma of 0.04
 C1-C4 \\sim C43-C46
 with sigma of 0.04
 C1-C7 \\sim C43-C48
 with sigma of 0.04
 C1-C8 \\sim C43-C49
 with sigma of 0.04
 C2-C13 \\sim C44-C51
 with sigma of 0.04
 C3-C5 \\sim C45-C47
 with sigma of 0.04
 C4-C14 \\sim C46-C52
 with sigma of 0.04
 C4-C18 \\sim C46-C56
 with sigma of 0.04
 C7-C8 \\sim C48-C49
 with sigma of 0.04
 C13-C15 \\sim C51-C53
 with sigma of 0.04
 C13-C17 \\sim C51-C55
 with sigma of 0.04
 C14-C18 \\sim C52-C56
 with sigma of 0.04
 C15-C17 \\sim C53-C55
 with sigma of 0.04
 C15-C16 \\sim C53-C54
 with sigma of 0.02
 C16-C17 \\sim C54-C55
 with sigma of 0.02
 C14-C16 \\sim C52-C54
 with sigma of 0.04
 C16-C18 \\sim C54-C56
 with sigma of 0.04
 N1-C1 \\sim N7-C43
 with sigma of 0.02
 N1-C4 \\sim N7-C46
 with sigma of 0.02
 N1-C2 \\sim N7-C44
 with sigma of 0.04
 N1-C3 \\sim N7-C45
 with sigma of 0.04
 N1-C13 \\sim N7-C51
 with sigma of 0.04
 N2-C10 \\sim N8-C50
 with sigma of 0.02
 C8-C10 \\sim C49-C50
 with sigma of 0.02
 Co1-C10 \\sim Co1-C50
 with sigma of 0.04
 C3-C10 \\sim C45-C50
 with sigma of 0.04
 C5-C10 \\sim C47-C50
 with sigma of 0.04
3. Uiso/Uaniso restraints and constraints
Uanis(C42) \\sim Ueq: with sigma of 0.01 and sigma for terminal atoms of 0.02
Uanis(C16) \\sim Ueq, Uanis(C15) \\sim Ueq, Uanis(C14) \\sim Ueq: with sigma of
0.01 and sigma for terminal atoms of 0.02
Uanis(C54) \\sim Ueq: with sigma of 0.01 and sigma for terminal atoms of 0.02
Uanis(C53) \\sim Ueq: with sigma of 0.01 and sigma for terminal atoms of 0.02
Uanis(C10) \\sim Ueq, Uanis(N1) \\sim Ueq: with sigma of 0.001 and sigma for
terminal atoms of 0.002
Uanis(C55) \\sim Ueq, Uanis(C56) \\sim Ueq: with sigma of 0.01 and sigma for
terminal atoms of 0.02
Uanis(C18) \\sim Ueq: with sigma of 0.01 and sigma for terminal atoms of 0.02
Uanis(C47) \\sim Ueq: with sigma of 0.01 and sigma for terminal atoms of 0.02
Uanis(N7) \\sim Ueq: with sigma of 0.001 and sigma for terminal atoms of 0.002
Uanis(C50) \\sim Ueq: with sigma of 0.001 and sigma for terminal atoms of 0.002
4. Rigid body (RIGU) restrains
 N3, O5, N4, C6, C9, C11, C12, C19, C20, C21, C22, C23, C24, C25, C26, C27, C28
 with sigma for 1-2 distances of 0.004 and sigma for 1-3 distances of 0.004
 N5, O6, N6, C29, C30, C31, C32, C33, C34, C35, C36, C37, C38, C39, C40, C41,
 C42
 with sigma for 1-2 distances of 0.004 and sigma for 1-3 distances of 0.004
 O1, N1, N2, O4, C1, C2, C3, C4, C5, C7, C8, C10, C13, C14, C15, C16, C17, C18
 with sigma for 1-2 distances of 0.004 and sigma for 1-3 distances of 0.004
 O7, N7, N8, O8, C43, C44, C45, C46, C47, C48, C49, C50, C51, C52, C53, C54,
 C55, C56
 with sigma for 1-2 distances of 0.004 and sigma for 1-3 distances of 0.004
5. Others
 Fixed Sof: O1(0.5) N1(0.5) H1(0.5) N2(0.5) O4(0.5) C1(0.5) H1A(0.5) H1B(0.5)
 N3(0.5) C2(0.5) O5(0.5) C3(0.5) C4(0.5) H4(0.5) C5(0.5) H5(0.5) N4(0.5)
 H4A(0.5) C6(0.5) C7(0.5) H7(0.5) C8(0.5) H8(0.5) C9(0.5) H9(0.5) C10(0.5)
 H10(0.5) C11(0.5) C12(0.5) H12(0.5) C13(0.5) C14(0.5) H14(0.5) C15(0.5)
 H15(0.5) C16(0.5) H16(0.5) C17(0.5) H17(0.5) C18(0.5) H18(0.5) C19(0.5)
 H19(0.5) C20(0.5) H20(0.5) C21(0.5) H21(0.5) C22(0.5) C23(0.5) H23(0.5)
 C24(0.5) H24(0.5) C25(0.5) H25(0.5) C26(0.5) H26(0.5) C27(0.5) H27(0.5)
 C28(0.5) H28A(0.5) H28B(0.5) N5(0.5) O6(0.5) N6(0.5) H6(0.5) C29(0.5) C30(0.5)
 H30(0.5) C31(0.5) C32(0.5) H32(0.5) C33(0.5) H33(0.5) C34(0.5) H34(0.5)
 C35(0.5) H35(0.5) C36(0.5) C37(0.5) H37(0.5) C38(0.5) H38(0.5) C39(0.5)
 H39(0.5) C40(0.5) H40(0.5) C41(0.5) H41(0.5) C42(0.5) H42A(0.5) H42B(0.5)
 O7(0.5) N7(0.5) H7A(0.5) N8(0.5) O8(0.5) C43(0.5) H43A(0.5) H43B(0.5) C44(0.5)
 C45(0.5) C46(0.5) H46(0.5) C47(0.5) H47(0.5) C48(0.5) H48(0.5) C49(0.5)
 H49(0.5) C50(0.5) H50(0.5) C51(0.5) C52(0.5) H52(0.5) C53(0.5) H53(0.5)
 C54(0.5) H54(0.5) C55(0.5) H55(0.5) C56(0.5) H56(0.5)
6.a Rotating group:
 O3(H3A,H3B)
6.b Ternary CH refined with riding coordinates:
 N1(H1), C4(H4), C9(H9), C30(H30), N7(H7A), C46(H46)
6.c Secondary CH2 refined with riding coordinates:
 C1(H1A,H1B), C28(H28A,H28B), C42(H42A,H42B), C43(H43A,H43B)
6.d Aromatic/amide H refined with riding coordinates:
 C5(H5), N4(H4A), C7(H7), C8(H8), C10(H10), C12(H12), C14(H14), C15(H15),
 C16(H16), C17(H17), C18(H18), C19(H19), C20(H20), C21(H21), C23(H23), C24(H24),
  C25(H25), C26(H26), C27(H27), N6(H6), C32(H32), C33(H33), C34(H34), C35(H35),
 C37(H37), C38(H38), C39(H39), C40(H40), C41(H41), C47(H47), C48(H48), C49(H49),
  C50(H50), C52(H52), C53(H53), C54(H54), C55(H55), C56(H56)
6.e Fitted hexagon refined as free rotating group:
 C13(C14,C15,C16,C17,C18), C51(C52,C53,C54,C55,C56)
;
_shelx_res_file
;
TITL 1_a.res in P2(1)
    1.res
    created by SHELXL-2018/3 at 17:45:21 on 29-May-2020
REM Old TITL 1_a.res in Pm
REM SHELXT solution in P2(1): R1 0.147, Rweak 0.056, Alpha 0.018
REM <I/s> 2.200 for 12 systematic absences, Orientation as input
REM Flack x = 0.010 ( 0.007 ) from 2693 Parsons' quotients
REM Formula found by SHELXT: C23 N5 O9 I
CELL 0.71073 6.3218 24.6864 9.3234 90 100.936 90
ZERR 2 0.0007 0.0028 0.0011 0 0.002 0
LATT -1
SYMM -X,0.5+Y,-Z
SFAC C H Co N O
UNIT 56 56 2 8 10
SADI O2 C6 O2 C29
SADI N3 C12 N5 C32
SADI N3 C19 N5 C33
SADI O5 C6 O6 C29
SADI N4 C9 N6 C30
SADI N4 C28 N6 C42
SADI C6 C9 C29 C30
SADI C9 C11 C30 C31
SADI C11 C21 C31 C35
SADI C11 C26 C31 C40
SADI C12 C23 C32 C37
SADI C19 C25 C33 C39
SADI C20 C24 C34 C38
SADI C20 C27 C34 C41
SADI C21 C24 C35 C38
SADI C22 C23 C36 C37
SADI C22 C25 C36 C39
SADI C22 C28 C36 C42
SADI C26 C27 C40 C41
SADI 0.04 O2 O5 O2 O6
SADI 0.04 O2 C9 O2 C30
SADI 0.04 N3 C23 N5 C37
SADI 0.04 N3 C25 N5 C39
SADI 0.04 O5 C9 O6 C30
SADI 0.04 N4 C6 N6 C29
SADI 0.04 N4 C11 N6 C31
SADI 0.04 N4 C22 N6 C36
SADI 0.04 C6 C11 C29 C31
SADI 0.04 C9 C21 C30 C35
SADI 0.04 C9 C26 C30 C40
SADI 0.04 C9 C28 C30 C42
SADI 0.04 C11 C24 C31 C38
SADI 0.04 C11 C27 C31 C41
SADI 0.04 C12 C19 C32 C33
SADI 0.04 C12 C22 C32 C36
SADI 0.04 C19 C22 C33 C36
SADI 0.04 C20 C21 C34 C35
SADI 0.04 C20 C26 C34 C40
SADI 0.04 C21 C26 C35 C40
SADI 0.04 C23 C25 C37 C39
SADI 0.04 C23 C28 C37 C42
SADI 0.04 C24 C27 C38 C41
SADI 0.04 C25 C28 C39 C42
SADI Co1 N2 Co1 N8
SADI O1 C2 O7 C44
SADI N2 C5 N8 C47
SADI O4 C2 O8 C44
SADI C1 C3 C43 C45
SADI C2 C4 C44 C46
SADI C3 C7 C45 C48
SADI C3 C8 C45 C49
SADI C4 C13 C46 C51
SADI C5 C7 C47 C48
SADI C13 C14 C51 C52
SADI C13 C18 C51 C56
SADI C14 C15 C52 C53
SADI C17 C18 C55 C56
SADI 0.04 Co1 C5 Co1 C47
SADI 0.04 O1 O4 O7 O8
SADI 0.04 O1 C4 O7 C46
SADI 0.04 N2 C7 N8 C48
SADI 0.04 N2 C8 N8 C49
SADI 0.04 O4 C4 O8 C46
SADI 0.04 C1 C4 C43 C46
SADI 0.04 C1 C7 C43 C48
SADI 0.04 C1 C8 C43 C49
SADI 0.04 C2 C13 C44 C51
SADI 0.04 C3 C5 C45 C47
SADI 0.04 C4 C14 C46 C52
SADI 0.04 C4 C18 C46 C56
SADI 0.04 C7 C8 C48 C49
SADI 0.04 C13 C15 C51 C53
SADI 0.04 C13 C17 C51 C55
SADI 0.04 C14 C18 C52 C56
SADI 0.04 C15 C17 C53 C55
SADI C15 C16 C53 C54
SADI C16 C17 C54 C55
SADI 0.04 C14 C16 C52 C54
SADI 0.04 C16 C18 C54 C56
SADI N1 C1 N7 C43
SADI N1 C4 N7 C46
SADI 0.04 N1 C2 N7 C44
SADI 0.04 N1 C3 N7 C45
SADI 0.04 N1 C13 N7 C51
SADI N2 C10 N8 C50
SADI C8 C10 C49 C50
SADI 0.04 Co1 C10 Co1 C50
SADI 0.04 C3 C10 C45 C50
SADI 0.04 C5 C10 C47 C50
RIGU N3 O5 N4 C6 C9 C11 C12 C19 C20 C21 C22 C23 C24 C25 C26 C27 C28
RIGU N5 O6 N6 C29 C30 C31 C32 C33 C34 C35 C36 C37 C38 C39 C40 C41 C42
RIGU O1 N1 N2 O4 C1 C2 C3 C4 C5 C7 C8 C10 C13 C14 C15 C16 C17 C18
RIGU O7 N7 N8 O8 C43 C44 C45 C46 C47 C48 C49 C50 C51 C52 C53 C54 C55 C56
ISOR 0.01 0.02 C42
ISOR 0.01 0.02 C16 C15 C14
ISOR 0.01 0.02 C54
ISOR 0.01 0.02 C53
ISOR 0.001 0.002 C10 N1
ISOR 0.01 0.02 C55 C56
ISOR 0.01 0.02 C18
ISOR 0.01 0.02 C47
ISOR 0.001 0.002 N7
ISOR 0.001 0.002 C50

L.S. 10
PLAN  10
SIZE 0.3 0.2 0.1
TEMP 0
BOND
list 4
fmap 2
acta
OMIT -2 -2 2
REM <olex2.extras>
REM <HklSrc "%.\\1.hkl">
REM </olex2.extras>

WGHT    0.065100
FVAR       0.68147
CO1   3    0.436563    0.401160   -0.112112    11.00000    0.03393    0.03448 =
         0.01696    0.00137    0.00650   -0.00045
PART 1
O1    5    0.128524    0.376021    0.842266    10.50000    0.03712    0.04186 =
         0.01660    0.00139    0.01163   -0.00530
PART 0
O2    5    0.320756    0.479715   -0.149124    11.00000    0.06448    0.03312 =
         0.03466   -0.00161    0.01245   -0.00207
O3    5    0.753244    0.431159   -0.079935    11.00000    0.03911    0.05860 =
         0.03637   -0.00836    0.01071   -0.00638
AFIX   7
H3A   2    0.752704    0.466099   -0.092346    11.00000   -1.50000
H3B   2    0.818304    0.419209   -0.147645    11.00000   -1.50000
AFIX   0
PART 1
N1    4    0.408304    0.391024    0.650668    10.50000    0.02697    0.02766 =
         0.02588   -0.00097    0.00666    0.00121
AFIX  13
H1    2    0.530735    0.369188    0.633826    10.50000   -1.20000
AFIX   0
N2    4    0.419913    0.408866    0.116126    10.50000    0.03660    0.04164 =
         0.01605    0.00706    0.00202   -0.01043
O4    5   -0.137532    0.368489    0.651971    10.50000    0.02458    0.15538 =
         0.06554    0.05239    0.00716    0.00898
C1    1    0.408528    0.441837    0.568764    10.50000    0.04219    0.03459 =
         0.02421    0.00517    0.01432    0.00516
AFIX  23
H1A   2    0.531761    0.463315    0.613928    10.50000   -1.20000
H1B   2    0.279662    0.462146    0.576111    10.50000   -1.20000
AFIX   0
N3    4    0.476287    0.816124    0.057740    10.50000    0.04937    0.05628 =
         0.06284   -0.01494    0.02255   -0.01332
C2    1    0.053967    0.366893    0.712194    10.50000    0.02318    0.06810 =
         0.02335    0.01075    0.01274    0.01217
O5    5    0.615696    0.529510   -0.073622    10.50000    0.10726    0.05078 =
         0.16594   -0.03065    0.04274   -0.01578
C3    1    0.416802    0.434184    0.409894    10.50000    0.03359    0.02661 =
         0.02323    0.00076    0.01395   -0.00062
C4    1    0.211283    0.358847    0.605000    10.50000    0.03464    0.04529 =
         0.01491   -0.00930    0.00541   -0.00207
AFIX  13
H4    2    0.138799    0.374951    0.512599    10.50000   -1.20000
AFIX   0
C5    1    0.263137    0.435124    0.159456    10.50000    0.06983    0.09222 =
         0.03587    0.01302    0.00120    0.03686
AFIX  43
H5    2    0.165028    0.453301    0.088806    10.50000   -1.20000
AFIX   0
N4    4    0.374840    0.619601   -0.107187    10.50000    0.11123    0.03403 =
         0.19632   -0.01094    0.07637    0.00109
AFIX  43
H4A   2    0.488928    0.628561   -0.139164    10.50000   -1.20000
AFIX   0
C6    1    0.422967    0.522213   -0.136942    10.50000    0.10846    0.05364 =
         0.12360   -0.01466    0.04655    0.00575
C7    1    0.232785    0.437831    0.301035    10.50000    0.03320    0.08682 =
         0.03495    0.00108   -0.00048    0.00746
AFIX  43
H7    2    0.096371    0.441894    0.323318    10.50000   -1.20000
AFIX   0
C8    1    0.609783    0.417210    0.368110    10.50000    0.02920    0.06638 =
         0.00418    0.00022    0.00328    0.00042
AFIX  43
H8    2    0.732600    0.408624    0.436326    10.50000   -1.20000
AFIX   0
C9    1    0.251386    0.569166   -0.154041    10.50000    0.14531    0.03773 =
         0.19467   -0.03253    0.05537    0.00103
AFIX  13
H9    2    0.141699    0.562382   -0.094710    10.50000   -1.20000
AFIX   0
C10   1    0.604497    0.414161    0.218923    10.50000    0.02870    0.03032 =
         0.02440   -0.00050    0.00582   -0.00261
AFIX  43
H10   2    0.734815    0.415822    0.186661    10.50000   -1.20000
AFIX   0
C11   1    0.152216    0.571187   -0.316621    10.50000    0.12268    0.01981 =
         0.18033    0.00473    0.07009    0.00969
C12   1    0.308779    0.792894    0.102291    10.50000    0.05403    0.08303 =
         0.08132   -0.03048    0.03321   -0.02041
AFIX  43
H12   2    0.227512    0.813662    0.155074    10.50000   -1.20000
AFIX  66
C13   1    0.243873    0.297410    0.569597    10.50000    0.04764    0.04376 =
         0.07678   -0.03102    0.03052   -0.02220
C14   1    0.114487    0.258757    0.618779    10.50000    0.12952    0.06813 =
         0.14107   -0.00167    0.07178   -0.00959
AFIX  43
H14   2    0.003197    0.269537    0.664844    10.50000   -1.20000
AFIX  65
C15   1    0.151436    0.203994    0.599112    10.50000    0.11928    0.06418 =
         0.15311   -0.01630    0.04049   -0.01886
AFIX  43
H15   2    0.064868    0.178133    0.632018    10.50000   -1.20000
AFIX  65
C16   1    0.317772    0.187883    0.530263    10.50000    0.13088    0.05832 =
         0.14932   -0.02467    0.04347   -0.00598
AFIX  43
H16   2    0.342493    0.151242    0.517105    10.50000   -1.20000
AFIX  65
C17   1    0.447160    0.226535    0.481080    10.50000    0.11310    0.06730 =
         0.13901   -0.03749    0.04998    0.01001
AFIX  43
H17   2    0.558449    0.215755    0.435016    10.50000   -1.20000
AFIX  65
C18   1    0.410213    0.281298    0.500747    10.50000    0.07885    0.06528 =
         0.11914   -0.02785    0.04251    0.00114
AFIX  43
H18   2    0.496782    0.307158    0.467841    10.50000   -1.20000
AFIX   0
C19   1    0.574637    0.786690   -0.029065    10.50000    0.08808    0.07628 =
         0.07592   -0.01043    0.04759    0.00889
AFIX  43
H19   2    0.658471    0.803816   -0.087409    10.50000   -1.20000
AFIX   0
C20   1   -0.027303    0.564757   -0.611263    10.50000    0.14943    0.09448 =
         0.17070    0.03265    0.00963    0.07673
AFIX  43
H20   2   -0.076277    0.554894   -0.708143    10.50000   -1.20000
AFIX   0
C21   1    0.259416    0.586692   -0.427885    10.50000    0.08105    0.12876 =
         0.18398    0.04982    0.04162    0.03102
AFIX  43
H21   2    0.405049    0.595107   -0.401850    10.50000   -1.20000
AFIX   0
C22   1    0.377230    0.706593    0.008659    10.50000    0.16107    0.08708 =
         0.07633   -0.03670    0.05362   -0.05283
C23   1    0.252012    0.740368    0.073945    10.50000    0.12190    0.11047 =
         0.15396   -0.05480    0.09270   -0.07102
AFIX  43
H23   2    0.126294    0.727145    0.099233    10.50000   -1.20000
AFIX   0
C24   1    0.167186    0.590365   -0.570457    10.50000    0.15746    0.09506 =
         0.18067    0.07012    0.03718    0.04771
AFIX  43
H24   2    0.231799    0.609169   -0.637116    10.50000   -1.20000
AFIX   0
C25   1    0.553831    0.729696   -0.034140    10.50000    0.15269    0.09084 =
         0.18663   -0.04076    0.09399   -0.03217
AFIX  43
H25   2    0.657010    0.708248   -0.065658    10.50000   -1.20000
AFIX   0
C26   1   -0.060573    0.552262   -0.359424    10.50000    0.12737    0.05136 =
         0.20795    0.00375    0.07069   -0.01195
AFIX  43
H26   2   -0.136807    0.539204   -0.290626    10.50000   -1.20000
AFIX   0
C27   1   -0.152405    0.553532   -0.504384    10.50000    0.15521    0.05203 =
         0.22994   -0.02307    0.05285    0.00767
AFIX  43
H27   2   -0.299179    0.546920   -0.533031    10.50000   -1.20000
AFIX   0
C28   1    0.298339    0.648153   -0.016643    10.50000    0.30378    0.09056 =
         0.12772   -0.05637    0.09710   -0.08604
AFIX  23
H28A  2    0.327689    0.629635    0.076790    10.50000   -1.20000
H28B  2    0.143083    0.649134   -0.048191    10.50000   -1.20000
AFIX   0
PART 0
PART 2
N5    4    0.445707    0.819781    0.047555    10.50000    0.04144    0.03182 =
         0.04057   -0.01352    0.01062    0.00392
O6    5    0.601611    0.535768   -0.131734    10.50000    0.04344    0.03756 =
         0.12871   -0.01113    0.03106   -0.00596
N6    4    0.341374    0.628425   -0.149850    10.50000    0.07331    0.01709 =
         0.09123   -0.01651    0.03060   -0.00844
AFIX  43
H6    2    0.473583    0.635942   -0.151955    10.50000   -1.20000
AFIX   0
C29   1    0.403520    0.526058   -0.142753    10.50000    0.04390    0.02491 =
         0.04866   -0.01744    0.02381   -0.00504
C30   1    0.245966    0.573625   -0.183784    10.50000    0.04570    0.01967 =
         0.07820   -0.00855    0.03698   -0.00622
AFIX  13
H30   2    0.128154    0.569258   -0.129923    10.50000   -1.20000
AFIX   0
C31   1    0.151385    0.569449   -0.345486    10.50000    0.04451    0.02573 =
         0.07638   -0.00132    0.01866    0.00139
C32   1    0.249633    0.801478    0.056174    10.50000    0.05735    0.04869 =
         0.11526   -0.03719    0.04485   -0.01086
AFIX  43
H32   2    0.157945    0.824028    0.095944    10.50000   -1.20000
AFIX   0
C33   1    0.570922    0.787423   -0.011444    10.50000    0.06178    0.03935 =
         0.14221   -0.04826    0.05253   -0.02117
AFIX  43
H33   2    0.711542    0.798166   -0.012758    10.50000   -1.20000
AFIX   0
C34   1   -0.029874    0.559537   -0.642251    10.50000    0.14060    0.05332 =
         0.08837   -0.00585    0.00300    0.00269
AFIX  43
H34   2   -0.091858    0.558952   -0.741024    10.50000   -1.20000
AFIX   0
C35   1    0.265922    0.583148   -0.455200    10.50000    0.07187    0.03032 =
         0.09352    0.01234    0.03408    0.00417
AFIX  43
H35   2    0.404484    0.597170   -0.429502    10.50000   -1.20000
AFIX   0
C36   1    0.296484    0.718458   -0.061977    10.50000    0.04685    0.03687 =
         0.12644   -0.03864    0.02084    0.00114
C37   1    0.178296    0.751603    0.009661    10.50000    0.05229    0.06528 =
         0.21414   -0.06872    0.06330   -0.02040
AFIX  43
H37   2    0.045845    0.739664    0.026902    10.50000   -1.20000
AFIX   0
C38   1    0.177973    0.576273   -0.597256    10.50000    0.10894    0.05616 =
         0.08565    0.01290    0.03543    0.02738
AFIX  43
H38   2    0.261712    0.583165   -0.667162    10.50000   -1.20000
AFIX   0
C39   1    0.498446    0.736984   -0.072700    10.50000    0.05777    0.04205 =
         0.11706   -0.04730    0.03289    0.00437
AFIX  43
H39   2    0.586827    0.716250   -0.120271    10.50000   -1.20000
AFIX   0
C40   1   -0.058011    0.550496   -0.390980    10.50000    0.04614    0.05096 =
         0.09585   -0.00693    0.02037    0.00161
AFIX  43
H40   2   -0.139814    0.542473   -0.320678    10.50000   -1.20000
AFIX   0
C41   1   -0.148840    0.543155   -0.536236    10.50000    0.06589    0.03963 =
         0.10832   -0.01796   -0.00115    0.00692
AFIX  43
H41   2   -0.284890    0.527813   -0.563539    10.50000   -1.20000
AFIX   0
C42   1    0.203302    0.664500   -0.116112    10.50000    0.06330    0.05020 =
         0.16286   -0.04848    0.03271   -0.00671
AFIX  23
H42A  2    0.133468    0.648931   -0.041649    10.50000   -1.20000
H42B  2    0.092732    0.670663   -0.202024    10.50000   -1.20000
AFIX   0
O7    5    0.110250    0.380524    0.816636    10.50000    0.03049    0.04146 =
         0.02068    0.00238    0.00931    0.00464
N7    4    0.418868    0.383869    0.653583    10.50000    0.01909    0.01890 =
         0.01661   -0.00078    0.00538    0.00088
AFIX  13
H7A   2    0.544468    0.362105    0.642615    10.50000   -1.20000
AFIX   0
N8    4    0.435995    0.419941    0.111850    10.50000    0.03418    0.03380 =
         0.01590    0.00390    0.01017   -0.00085
O8    5   -0.141033    0.353962    0.637816    10.50000    0.02262    0.07349 =
         0.04623   -0.01717    0.01008   -0.00491
C43   1    0.424577    0.435493    0.572683    10.50000    0.08129    0.02527 =
         0.01346   -0.00677    0.00423   -0.00428
AFIX  23
H43A  2    0.552225    0.455712    0.616243    10.50000   -1.20000
H43B  2    0.299681    0.457079    0.581989    10.50000   -1.20000
AFIX   0
C44   1    0.048657    0.364918    0.686628    10.50000    0.02845    0.03328 =
         0.01702    0.00436    0.00478   -0.00178
C45   1    0.426367    0.426404    0.410250    10.50000    0.06740    0.03842 =
         0.01412    0.00071   -0.00221   -0.00287
C46   1    0.219066    0.352577    0.592607    10.50000    0.02293    0.05305 =
         0.03278   -0.02173    0.01744   -0.01521
AFIX  13
H46   2    0.165787    0.361398    0.489604    10.50000   -1.20000
AFIX   0
C47   1    0.251467    0.432333    0.155672    10.50000    0.02974    0.06191 =
         0.00783   -0.00538    0.00155    0.00450
AFIX  43
H47   2    0.122747    0.433407    0.088142    10.50000   -1.20000
AFIX   0
C48   1    0.252697    0.443715    0.303927    10.50000    0.05969    0.05174 =
         0.01556    0.00130    0.01496    0.02488
AFIX  43
H48   2    0.139021    0.462575    0.330882    10.50000   -1.20000
AFIX   0
C49   1    0.595890    0.404682    0.355673    10.50000    0.03247    0.13244 =
         0.03860   -0.01051   -0.00440    0.00770
AFIX  43
H49   2    0.719971    0.395499    0.421983    10.50000   -1.20000
AFIX   0
C50   1    0.594012    0.396009    0.215274    10.50000    0.03642    0.03575 =
         0.03166    0.00093    0.00705    0.00111
AFIX  43
H50   2    0.697973    0.374034    0.186527    10.50000   -1.20000
AFIX  66
C51   1    0.286447    0.290837    0.612944    10.50000    0.04551    0.05741 =
         0.05741   -0.02557    0.01199   -0.00809
C52   1    0.171824    0.253877    0.680823    10.50000    0.09279    0.04794 =
         0.11327   -0.01890    0.05531   -0.00548
AFIX  43
H52   2    0.057790    0.265628    0.722885    10.50000   -1.20000
AFIX  65
C53   1    0.227639    0.199354    0.685838    10.50000    0.11653    0.05606 =
         0.13302   -0.01262    0.03684   -0.00640
AFIX  43
H53   2    0.150948    0.174626    0.731254    10.50000   -1.20000
AFIX  65
C54   1    0.398076    0.181791    0.622973    10.50000    0.13375    0.06802 =
         0.14823   -0.02217    0.04509    0.00702
AFIX  43
H54   2    0.435419    0.145311    0.626328    10.50000   -1.20000
AFIX  65
C55   1    0.512700    0.218750    0.555093    10.50000    0.11388    0.06307 =
         0.16326   -0.01626    0.03805    0.00303
AFIX  43
H55   2    0.626734    0.206999    0.513032    10.50000   -1.20000
AFIX  65
C56   1    0.456888    0.273273    0.550077    10.50000    0.06779    0.04809 =
         0.11991   -0.01361    0.03967   -0.00201
AFIX  43
H56   2    0.533579    0.298001    0.504661    10.50000   -1.20000
AFIX   0
HKLF 4




REM  1_a.res in P2(1)
REM wR2 = 0.0920, GooF = S = 1.068, Restrained GooF = 1.082 for all data
REM R1 = 0.0337 for 6805 Fo > 4sig(Fo) and 0.0355 for all 7133 data
REM 635 parameters refined using 672 restraints

END

WGHT      0.0651      0.0000

REM Highest difference peak  0.437,  deepest hole -0.287,  1-sigma level  0.064
Q1    1  -0.1421  0.6207  0.0000  11.00000  0.05    0.44
Q2    1  -0.0695  0.6944 -0.2511  11.00000  0.05    0.36
Q3    1   0.0821  0.2208  0.4027  11.00000  0.05    0.33
Q4    1   0.0412  0.2771  0.4538  11.00000  0.05    0.29
Q5    1   0.0894  0.2985  0.3918  11.00000  0.05    0.27
Q6    1   0.2096  0.1985  0.4108  11.00000  0.05    0.26
Q7    1   0.4011  0.6401 -0.0123  11.00000  0.05    0.26
Q8    1   0.1873  0.6718 -0.2134  11.00000  0.05    0.25
Q9    1   0.1790  0.3198  0.5366  11.00000  0.05    0.23
Q10   1   0.7315  0.3972  0.1850  11.00000  0.05    0.22
;
_shelx_res_checksum              29604
_shelx_hkl_file
;
   1   0   0 5696.13  236.08
   1   0   0 5295.17  238.58
   1   0   0 5597.14  236.18
  -1   0   0 5457.35  238.38
  -1   0   0 5728.33  236.08
  -2   0   0    3.10    0.30
  -2   0   0    3.00    0.30
  -2   0   0    3.80    0.60
   2   0   0    3.40    0.60
   2   0   0    4.70    0.60
   3   0   0  468.45   19.70
   3   0   0  429.96   19.50
  -3   0   0  446.66   19.50
   4   0   0   33.50    2.60
   4   0   0   41.60    2.50
  -4   0   0   36.80    2.40
  -5   0   0  161.58    8.00
   5   0   0  155.78    8.20
   5   0   0  174.98    8.10
   6   0   0  327.57   14.80
  -6   0   0  314.17   14.80
   6   0   0  316.97   15.20
  -7   0   0  109.29    6.50
   7   0   0  118.19    6.40
   7   0   0  111.29    6.80
   8   0   0   10.50    2.30
  -8   0   0    8.00    2.10
   8   0   0   10.40    2.80
   0  -1   0   -7.70    0.10
   0  -1   0   -7.70    0.10
   0  -1   0   -7.70    0.10
   0   1   0   -7.70    0.10
   0   1   0   -7.70    0.10
   0   1   0   -7.70    0.10
  -1  -1   0 2679.73  116.69
   1  -1   0 2752.22  116.99
   1  -1   0 2789.22  116.79
  -1  -1   0 2788.02  116.09
   1  -1   0 2662.63  116.09
   1   1   0 2712.33  116.99
  -1   1   0 2742.43  116.09
   1   1   0 2761.62  116.09
   1   1   0 2743.33  116.89
  -2  -1   0 1070.29   44.20
   2  -1   0 1041.50   44.50
  -2  -1   0 1000.90   44.50
   2  -1   0  983.00   44.50
  -2  -1   0 1046.40   44.20
   2  -1   0 1067.99   44.40
  -2   1   0 1057.29   44.20
   2   1   0 1088.19   44.50
  -2   1   0 1052.09   44.50
   2   1   0 1027.30   44.60
   3  -1   0 1123.79   46.20
   3  -1   0 1087.89   46.40
  -3  -1   0 1080.29   46.20
   3   1   0 1071.19   46.20
   3   1   0 1037.00   46.40
  -3   1   0 1078.99   46.30
   4  -1   0  463.15   20.80
  -4  -1   0  466.35   20.70
   4  -1   0  464.55   20.70
   4   1   0  473.05   20.70
  -4   1   0  472.95   20.70
   4   1   0  486.55   20.90
   5  -1   0  370.56   16.60
  -5  -1   0  374.66   16.60
   5  -1   0  378.66   16.90
   5   1   0  367.66   16.90
  -5   1   0  362.86   16.60
   5   1   0  354.56   16.60
   6  -1   0   50.99    3.90
   6  -1   0   40.20    3.30
  -6  -1   0   48.70    3.40
  -6   1   0   50.49    3.60
   6   1   0   55.79    3.90
   6   1   0   43.60    3.50
   7  -1   0    5.00    2.00
   7  -1   0    4.50    1.60
  -7  -1   0    5.20    1.80
   7   1   0    5.70    2.10
   7   1   0    4.40    1.70
  -7   1   0    5.40    1.90
   8  -1   0   -0.30    1.90
   8  -1   0   -0.40    1.50
  -8  -1   0   -0.50    1.70
   8   1   0    0.50    1.50
  -8   1   0   -0.30    1.60
   8   1   0    0.00    2.00
   0  -2   0 5238.68  220.08
   0  -2   0 5325.37  224.98
   0   2   0 4654.93  223.38
   0   2   0 5209.58  227.98
   1  -2   0 2904.21  126.29
   1  -2   0 2993.70  126.09
  -1  -2   0 3042.40  125.99
  -1   2   0 2912.11  125.69
   1   2   0 2914.71  126.29
   1   2   0 2936.31  125.59
  -1   2   0 2971.00  126.29
   1   2   0 2994.50  126.49
   2  -2   0  742.53   32.00
  -2  -2   0  776.02   31.90
   2  -2   0  756.62   32.00
   2   2   0  712.63   32.00
   2   2   0  750.42   31.70
  -2   2   0  738.93   31.70
  -2   2   0  738.43   32.00
   2   2   0  760.42   32.10
   3  -2   0  493.15   19.80
  -3  -2   0  458.75   19.60
   3  -2   0  447.16   19.60
  -3  -2   0  450.15   19.10
   3   2   0  448.46   19.80
   3   2   0  415.36   19.60
  -3   2   0  447.46   19.60
  -3   2   0  437.56   19.10
   4  -2   0   50.09    3.20
   4  -2   0   54.79    3.20
  -4  -2   0   55.69    3.20
   4   2   0   50.19    3.30
  -4   2   0   57.89    3.20
   4   2   0   60.29    3.20
  -5  -2   0  136.39    6.80
   5  -2   0  123.09    6.90
   5  -2   0  135.39    6.80
   5   2   0  144.79    6.90
   5   2   0  136.59    7.10
  -5   2   0  139.39    6.90
   6  -2   0  288.17   13.80
   6  -2   0  297.97   13.50
  -6  -2   0  288.97   13.50
   6   2   0  293.47   13.50
  -6   2   0  283.27   13.50
   6   2   0  274.07   13.80
   7  -2   0   92.89    5.40
  -7  -2   0   90.19    5.60
   7  -2   0   86.09    5.80
   7   2   0   86.79    5.50
  -7   2   0   91.49    5.50
   7   2   0   90.69    6.00
  -8  -2   0   13.70    2.60
   8  -2   0   13.50    2.40
   8  -2   0   13.00    2.70
   8   2   0    8.80    2.40
  -8   2   0    9.00    2.30
   8   2   0   11.50    2.30
   0  -3   0  -11.10    0.40
   0  -3   0  -11.10    0.30
   0   3   0  -11.40    0.30
   0   3   0  -10.50    0.40
   1  -3   0   94.19    3.90
  -1  -3   0   84.29    3.80
  -1   3   0   80.49    3.90
  -1   3   0   79.99    3.80
   2  -3   0  336.27   15.20
  -2  -3   0  334.57   15.20
   2  -3   0  329.47   15.30
   2   3   0  368.86   15.00
   2   3   0  352.46   15.40
  -2   3   0  356.66   15.30
  -2   3   0  370.66   15.00
   2   3   0  357.36   15.30
   3  -3   0 1273.97   53.69
   3  -3   0 1250.77   53.79
  -3  -3   0 1239.98   53.19
  -3  -3   0 1211.68   53.59
   3   3   0 1235.48   53.79
  -3   3   0 1284.37   53.69
  -3   3   0 1280.87   53.29
   3   3   0 1271.77   53.69
   4  -3   0  224.78   10.60
   4  -3   0  243.68   10.90
  -4  -3   0  227.08   10.60
  -4   3   0  231.48   10.00
  -4   3   0  244.78   10.80
   4   3   0  225.28   10.70
   4   3   0  236.18   10.90
   5  -3   0  280.37   13.10
  -5  -3   0  292.57   13.10
   5  -3   0  291.67   13.40
  -5   3   0  283.37   13.20
   5   3   0  291.27   13.50
   5   3   0  276.77   13.20
  -6  -3   0   45.90    3.50
   6  -3   0   48.70    3.90
   6  -3   0   44.70    3.40
   6   3   0   59.59    4.10
   6   3   0   50.49    3.60
  -6   3   0   50.09    3.50
   7  -3   0   14.30    2.60
   7  -3   0   11.00    2.00
  -7  -3   0   14.10    2.30
   7   3   0   13.90    2.30
   7   3   0   14.50    2.60
  -7   3   0   11.80    2.30
  -8  -3   0    0.10    1.70
   8  -3   0    0.40    1.50
   8  -3   0    1.30    1.90
  -8   3   0   -0.60    1.80
   8   3   0   -1.60    1.90
   8   3   0    1.20    1.60
   0  -4   0 2270.87   93.59
   0  -4   0 2147.39   93.59
   0   4   0 2152.68   93.69
   0   4   0 2214.58   93.29
   0   4   0 2180.08   93.89
  -1  -4   0 3120.79  138.39
   1  -4   0 3011.40  138.99
   1  -4   0 3177.68  138.69
   1   4   0 3352.76  139.19
  -1   4   0 3385.66  139.09
   1   4   0 3344.37  139.39
  -1   4   0 3405.86  138.89
   2  -4   0  206.48    9.30
  -2  -4   0  220.78    9.20
   2  -4   0  216.58    9.30
   2   4   0  203.68    9.30
   2   4   0  208.68    9.40
  -2   4   0  199.18    9.30
  -2   4   0  203.18    9.10
   2   4   0  214.68    9.10
   3  -4   0  252.17   10.50
  -3  -4   0  239.88   10.30
   3  -4   0  235.88   10.40
   3   4   0  217.68   10.40
  -3   4   0  222.68   10.00
   3   4   0  228.98   10.60
  -3   4   0  225.98   10.40
   3   4   0  225.98   10.00
  -4  -4   0   68.89    3.70
  -4  -4   0   68.29    3.10
   4  -4   0   63.99    3.80
   4  -4   0   70.09    3.80
  -4   4   0   68.29    3.20
   4   4   0   72.49    4.10
   4   4   0   73.99    3.90
  -4   4   0   71.89    3.90
   5  -4   0  121.99    6.00
   5  -4   0  103.39    6.00
  -5  -4   0  115.99    5.90
   5   4   0  114.29    6.30
   5   4   0  116.89    6.00
  -5   4   0  114.49    6.00
  -6  -4   0  157.88    8.20
   6  -4   0  158.28    8.60
   6  -4   0  172.48    8.30
   6   4   0  174.38    8.50
  -6   4   0  161.38    8.40
   6   4   0  163.38    8.70
   7  -4   0   51.49    3.80
   7  -4   0   47.30    4.10
  -7  -4   0   48.50    3.80
  -7   4   0   44.40    3.70
   7   4   0   49.20    3.80
   7   4   0   46.90    4.10
   8  -4   0   10.80    2.20
   8  -4   0    7.10    2.40
  -8  -4   0    9.10    2.30
   8   4   0    8.30    2.50
   8   4   0   11.70    2.30
  -8   4   0   11.60    2.60
   0  -5   0    0.20    0.40
   0  -5   0    0.00    0.30
   0   5   0    0.60    0.30
   0   5   0    0.50    0.30
   0   5   0   -0.10    0.20
   1  -5   0 1303.47   58.59
  -1  -5   0 1378.76   58.69
   1  -5   0 1387.56   58.89
  -1   5   0 1414.06   58.59
   1   5   0 1385.06   58.79
   1   5   0 1437.36   59.09
  -1   5   0 1353.06   58.59
  -2  -5   0  417.16   19.10
   2  -5   0  409.26   19.20
   2  -5   0  407.76   19.20
  -2   5   0  476.15   19.10
   2   5   0  452.45   19.40
   2   5   0  467.85   19.30
   2   5   0  460.45   19.10
  -2   5   0  470.75   19.30
  -3  -5   0 1113.09   49.99
   3  -5   0 1124.49   50.19
   3  -5   0 1151.38   50.19
   3   5   0 1199.98   50.39
   3   5   0 1174.18   50.19
  -3   5   0 1199.98   49.80
   3   5   0 1212.98   49.80
  -3   5   0 1201.68   50.19
  -4  -5   0  497.35   22.40
   4  -5   0  548.05   23.20
   4  -5   0  509.65   23.00
  -4  -5   0  522.75   23.00
  -4   5   0  527.25   23.10
  -4   5   0  531.05   22.50
   4   5   0  544.35   23.20
   4   5   0  531.15   23.30
   5  -5   0  207.08    9.70
   5  -5   0  209.48   10.00
  -5  -5   0  206.68    9.70
  -5   5   0  200.08    9.80
   5   5   0  198.08    9.80
   5   5   0  207.08   10.10
   6  -5   0   62.89    4.10
  -6  -5   0   65.79    4.20
   6  -5   0   64.49    4.50
  -6   5   0   67.39    4.40
   6   5   0   69.09    4.60
   6   5   0   64.19    4.20
   7  -5   0    7.60    2.10
  -7  -5   0    5.60    1.80
   7  -5   0    5.30    1.70
   7   5   0    8.40    1.80
   7   5   0    9.60    2.30
  -7   5   0    6.30    2.00
  -8  -5   0    0.70    1.70
   8  -5   0   -0.70    1.70
   8  -5   0    2.00    2.00
   8   5   0    0.60    1.60
   8   5   0    0.70    2.20
  -8   5   0   -1.10    1.80
   0  -6   0 9781.12  442.86
   0  -6   0 9999.00  417.66
   0   6   0 9757.72  424.96
   0   6   0 9769.92  417.36
   0   6   0 9821.42  417.36
   1  -6   0 1140.39   53.89
   1  -6   0 1198.68   53.89
  -1  -6   0 1189.18   53.99
  -1   6   0 1332.57   53.89
   1   6   0 1321.37   53.99
  -1   6   0 1316.27   53.89
   1   6   0 1298.77   53.99
   1   6   0 1341.97   54.09
  -2  -6   0 1135.19   46.60
   2  -6   0 1070.99   46.80
   2  -6   0 1117.39   46.80
   2   6   0 1091.09   46.60
   2   6   0 1066.39   46.80
   2   6   0 1129.59   46.90
  -2   6   0 1076.89   46.80
  -2   6   0 1079.39   46.60
   3  -6   0  378.96   17.20
  -3  -6   0  410.16   17.20
   3  -6   0  412.16   17.40
  -3   6   0  382.96   16.90
  -3   6   0  394.76   17.30
   3   6   0  380.36   17.30
   3   6   0  394.86   16.90
   3   6   0  391.56   17.40
   4  -6   0  184.58    8.90
   4  -6   0  194.48    8.80
  -4  -6   0  187.58    8.70
  -4   6   0  188.08    8.30
  -4   6   0  182.18    8.80
   4   6   0  188.78    9.10
   4   6   0  192.58    8.90
   4   6   0  185.08    8.20
   5  -6   0  120.49    5.80
  -5  -6   0  106.99    5.70
   5  -6   0  103.69    5.90
   5   6   0  110.39    6.20
  -5   6   0  108.59    5.90
   5   6   0  114.59    5.90
   6  -6   0  165.08    8.00
  -6  -6   0  149.39    7.80
   6  -6   0  143.59    8.10
   6   6   0  153.98    8.40
   6   6   0  168.78    8.10
  -6   6   0  156.98    8.10
   7  -6   0   65.69    4.40
  -7  -6   0   62.99    4.40
   7  -6   0   67.29    4.90
   7   6   0   68.09    5.10
  -7   6   0   59.19    4.50
   7   6   0   64.59    4.50
   8  -6   0   13.70    2.90
  -8  -6   0   12.30    2.50
   8   6   0   11.70    2.40
   8   6   0   11.20    2.70
  -8   6   0    8.50    2.60
   1  -7   0  305.17   13.70
   1  -7   0  296.97   13.70
  -1  -7   0  306.57   13.80
  -1   7   0  346.27   13.70
   1   7   0  335.57   13.70
   1   7   0  338.77   13.50
  -1   7   0  271.87   13.60
   2  -7   0  171.38    8.70
  -2  -7   0  176.18    8.50
   2  -7   0  180.58    8.70
  -2   7   0  202.78    8.60
   2   7   0  208.58    8.90
   2   7   0  208.78    8.60
   2   7   0  209.98    8.90
  -2   7   0  202.88    8.80
   3  -7   0  781.62   32.70
  -3  -7   0  758.22   32.50
   3  -7   0  760.92   32.60
   3   7   0  727.73   32.30
  -3   7   0  763.92   32.70
   3   7   0  732.43   32.70
   3   7   0  768.22   32.90
  -3   7   0  758.92   32.30
  -4  -7   0  689.73   30.30
   4  -7   0  696.43   30.50
   4  -7   0  654.33   30.40
  -4   7   0  714.23   30.00
  -4   7   0  709.23   30.50
   4   7   0  707.53   30.70
   4   7   0  711.23   30.60
   4   7   0  714.93   29.90
   5  -7   0  199.18    9.50
   5  -7   0  198.28    9.70
  -5  -7   0  196.18    9.40
  -5   7   0  205.78    9.70
   5   7   0  200.68    9.90
   5   7   0  198.38    9.60
  -6  -7   0  148.59    7.40
   6  -7   0  146.09    7.70
   6  -7   0  136.29    7.30
   6   7   0  153.08    7.60
   6   7   0  138.39    7.80
  -6   7   0  137.19    7.60
   7  -7   0    5.10    1.70
  -7  -7   0    8.60    1.90
   7  -7   0    7.20    2.10
   7   7   0    5.70    1.70
  -7   7   0    3.90    1.80
   7   7   0    8.40    2.30
   8  -7   0    2.80    2.20
  -8  -7   0    3.20    1.90
   8   7   0    1.50    2.30
  -8   7   0    4.10    2.20
   8   7   0    4.40    2.00
   0  -8   0 2461.25  107.49
   0  -8   0 2466.55  107.59
   0   8   0 2641.44  107.39
   0   8   0 2524.25  107.49
   1  -8   0 2024.70   86.69
  -1  -8   0 1991.70   86.99
   1  -8   0 2060.49   87.29
  -1   8   0 2093.29   86.89
   1   8   0 2009.50   86.59
   1   8   0 2047.90   86.69
   1   8   0 2048.99   86.99
  -2  -8   0 1260.67   53.59
   2  -8   0 1229.58   53.79
  -2  -8   0 1323.37   54.09
   2  -8   0 1288.47   53.79
  -2   8   0 1265.17   53.79
  -2   8   0 1264.67   53.69
   2   8   0 1199.18   53.89
  -3  -8   0   19.60    1.40
   3  -8   0   22.60    1.60
   3  -8   0   13.60    1.40
   3   8   0   16.90    1.20
  -3   8   0   16.20    1.60
  -3   8   0   16.00    1.20
   3   8   0   15.00    1.80
   3   8   0   13.90    1.50
   4  -8   0  240.88   11.40
   4  -8   0  255.87   11.40
  -4  -8   0  239.38   11.10
   4   8   0  247.18   10.80
  -4   8   0  243.58   10.80
   4   8   0  253.57   11.50
   4   8   0  245.18   11.60
  -4   8   0  244.78   11.40
   5  -8   0  169.38    8.50
  -5  -8   0  167.28    8.20
   5  -8   0  176.98    8.40
   5   8   0  180.68    8.60
   5   8   0  170.88    8.80
  -5   8   0  166.78    8.50
   6  -8   0  170.78    9.30
  -6  -8   0  180.88    9.00
   6  -8   0  180.28    9.10
   6   8   0  197.98    9.40
   6   8   0  183.68    9.70
  -6   8   0  188.48    9.40
  -7  -8   0   60.19    4.20
   7  -8   0   58.79    4.70
   7  -8   0   57.09    4.20
  -7   8   0   57.69    4.50
   7   8   0   64.79    5.10
   7   8   0   64.99    4.60
   8  -8   0   21.70    3.30
  -8  -8   0   22.50    3.00
  -8   8   0   19.30    3.10
   8   8   0   22.60    3.10
   8   8   0   16.10    3.30
  -1  -9   0  642.94   26.80
   1  -9   0  653.83   26.70
   1  -9   0  636.24   26.80
   1   9   0  599.34   26.70
   1   9   0  608.14   26.40
  -1   9   0  599.54   26.70
   1   9   0  602.74   26.80
  -2  -9   0  561.04   25.30
   2  -9   0  581.24   25.10
   2  -9   0  570.44   25.20
  -2  -9   0  582.44   24.90
  -2   9   0  597.34   25.20
   2   9   0  586.04   25.30
  -2   9   0  595.64   25.10
  -3  -9   0  910.01   40.40
  -3  -9   0  959.60   39.90
   3  -9   0  932.61   40.10
   3  -9   0  963.00   40.20
  -3   9   0  940.51   39.90
   3   9   0  913.11   39.80
   3   9   0  917.31   40.30
   3   9   0  918.41   40.20
  -3   9   0  935.41   40.20
   4  -9   0  243.68   11.90
   4  -9   0  240.18   11.80
  -4  -9   0  252.37   11.60
   4   9   0  260.67   12.00
   4   9   0  269.67   11.40
  -4   9   0  261.37   11.40
  -4   9   0  264.07   11.90
   4   9   0  273.37   12.20
  -5  -9   0  106.09    5.60
   5  -9   0  111.39    5.90
   5  -9   0  111.99    5.80
   5   9   0  105.59    5.90
   5   9   0  107.59    6.20
  -5   9   0  109.29    6.00
  -6  -9   0   79.69    4.60
   6  -9   0   83.09    5.10
   6  -9   0   74.19    4.70
  -6   9   0   80.39    5.00
   6   9   0   80.69    5.30
   6   9   0   75.59    4.90
   7  -9   0    9.20    2.30
  -7  -9   0    8.50    1.90
   7  -9   0    9.80    2.00
   7   9   0    5.90    1.90
  -7   9   0    8.00    2.30
   7   9   0    7.60    2.40
   0 -10   0  299.97   13.80
   0 -10   0  313.77   13.80
   0  10   0  327.87   13.50
   0  10   0  316.47   13.80
   1 -10   0 3921.01  166.98
  -1 -10   0 3847.82  165.98
   1 -10   0 3754.92  165.68
  -1  10   0 3947.81  165.88
   1  10   0 3886.21  167.08
   1  10   0 3899.41  167.08
   1  10   0 4022.20  166.08
  -1  10   0 3994.00  166.98
  -2 -10   0  392.46   17.30
   2 -10   0  358.36   17.00
   2 -10   0  370.96   17.00
  -2 -10   0  379.36   16.70
  -2  10   0  386.76   17.00
  -2  10   0  402.46   17.00
   2  10   0  411.56   17.00
   2  10   0  411.86   17.20
  -3 -10   0    5.90    1.30
  -3 -10   0    5.10    0.80
   3 -10   0    6.80    1.10
   3 -10   0    7.20    1.10
   3  10   0    4.70    1.10
   3  10   0    4.30    0.70
  -3  10   0    4.30    1.00
  -3  10   0    3.60    0.80
   4 -10   0   18.10    1.90
   4 -10   0   20.70    1.90
  -4 -10   0   18.10    1.60
  -4  10   0   17.40    1.90
   4  10   0   19.20    1.40
   4  10   0   18.30    2.00
  -4  10   0   18.50    1.50
   4  10   0   19.90    2.30
   5 -10   0   43.80    3.20
  -5 -10   0   40.80    2.80
   5 -10   0   45.00    3.10
   5  10   0   46.80    3.30
  -5  10   0   43.60    3.20
   5  10   0   48.20    3.70
   6 -10   0   65.59    4.60
   6 -10   0   70.79    4.40
  -6 -10   0   72.79    4.30
   6  10   0   75.39    4.70
  -6  10   0   71.89    4.60
   6  10   0   65.69    5.00
   7 -10   0   56.79    4.20
  -7 -10   0   59.09    4.70
   7 -10   0   52.79    4.40
  -7 -10   0   60.49    4.10
  -7  10   0   58.99    4.60
   7  10   0   60.99    4.40
   7  10   0   53.89    4.60
   0 -11   0    0.70    0.60
   0  11   0    0.30    0.30
   0  11   0    0.30    0.50
  -1 -11   0  680.33   28.60
   1 -11   0  663.43   28.50
   1 -11   0  694.53   28.40
   1  11   0  654.83   28.40
   1  11   0  645.14   28.10
   1  11   0  641.64   28.50
  -1  11   0  645.54   28.50
  -1  11   0  654.83   28.30
   2  11   0   11.40    1.20
   2  11   0   12.50    1.40
  -2  11   0   13.30    1.30
  -2  11   0   10.90    1.20
   3 -11   0  184.58    8.70
  -3 -11   0  184.78    8.40
   3 -11   0  184.58    8.70
  -3 -11   0  181.88    9.00
  -3  11   0  188.78    8.50
  -3  11   0  190.78    8.80
   3  11   0  195.18    8.90
   3  11   0  187.38    8.50
  -4 -11   0  231.68   11.30
  -4 -11   0  230.98   10.60
   4 -11   0  243.98   10.90
   4 -11   0  229.78   10.90
   4  11   0  244.18   10.50
  -4  11   0  232.18   11.00
   4  11   0  232.38   11.00
  -4  11   0  231.68   10.50
   5 -11   0   30.50    2.60
   5 -11   0   30.30    2.70
  -5 -11   0   29.80    2.30
  -5 -11   0   30.70    3.20
   5  11   0   35.50    2.90
   5  11   0   32.90    3.20
  -5  11   0   32.70    2.70
  -6 -11   0   59.09    3.80
   6 -11   0   57.09    4.20
  -6 -11   0   58.69    4.40
   6 -11   0   56.79    3.90
   6  11   0   55.59    4.40
   6  11   0   53.79    4.00
  -6  11   0   60.09    4.30
   7 -11   0    5.20    1.90
   7 -11   0    3.90    1.70
  -7 -11   0    3.60    1.90
  -7 -11   0    3.80    1.60
   7  11   0    5.40    1.90
  -7  11   0    4.50    2.10
   0 -12   0  576.14   23.30
   0 -12   0  554.54   23.40
   0  12   0  506.95   22.90
   0  12   0  509.95   23.30
   1 -12   0  414.06   18.20
   1 -12   0  409.86   18.30
  -1 -12   0  430.56   18.40
   1  12   0  411.66   18.30
  -1  12   0  426.76   18.30
   1  12   0  421.56   17.90
  -1  12   0  406.76   18.10
   1  12   0  425.06   18.40
   2 -12   0  386.16   16.30
  -2 -12   0  383.26   16.60
   2 -12   0  376.26   16.40
  -2 -12   0  378.66   16.00
   2  12   0  354.36   16.30
   2  12   0  351.26   16.50
  -2  12   0  367.46   16.30
  -2  12   0  371.16   16.30
   3 -12   0   79.29    4.60
  -3 -12   0   89.29    5.00
  -3 -12   0   89.69    4.30
   3 -12   0   85.39    4.60
  -3  12   0   89.89    4.50
   3  12   0   99.39    4.50
  -3  12   0   95.79    4.70
   3  12   0   99.29    4.90
  -4 -12   0   35.50    2.20
  -4 -12   0   33.80    3.00
   4 -12   0   34.80    2.60
   4 -12   0   36.40    2.60
  -4  12   0   34.10    2.70
  -4  12   0   32.30    2.20
   4  12   0   34.40    2.60
   4  12   0   37.40    2.20
  -5 -12   0   34.30    3.30
   5 -12   0   32.10    2.70
  -5 -12   0   32.70    2.40
   5 -12   0   29.80    2.80
   5  12   0   42.40    3.10
  -5  12   0   41.70    3.00
   6 -12   0   12.10    2.00
   6 -12   0    8.00    1.90
  -6 -12   0    7.70    1.60
  -6 -12   0    8.90    2.30
   6  12   0   10.00    2.00
  -6  12   0    7.60    1.80
  -7 -12   0   28.30    3.70
   7 -12   0   29.70    3.40
   7 -12   0   29.50    3.10
   7  12   0   27.60    3.30
  -7  12   0   29.10    3.50
   1 -13   0  162.28    8.10
   1 -13   0  164.98    8.30
  -1 -13   0  171.08    8.30
  -1  13   0  188.18    8.10
   1  13   0  186.18    7.80
   1  13   0  186.68    8.30
  -1  13   0  191.28    8.30
   1  13   0  186.78    8.40
   2 -13   0  361.86   15.70
   2 -13   0  365.86   15.80
  -2 -13   0  340.77   15.90
  -2 -13   0  348.37   15.30
   2  13   0  348.77   15.90
  -2  13   0  368.76   15.70
  -2  13   0  358.06   15.70
   2  13   0  345.57   15.70
  -3 -13   0  105.29    5.50
   3 -13   0  107.29    5.20
  -3 -13   0  106.29    4.70
   3 -13   0  103.09    5.10
  -3  13   0   90.59    4.90
  -3  13   0   97.09    5.10
   3  13   0   86.39    5.10
   4 -13   0   39.30    2.80
  -4 -13   0   37.60    3.30
   4 -13   0   35.90    2.80
  -4 -13   0   38.50    2.50
  -4  13   0   47.80    2.70
  -4  13   0   44.40    3.00
   4  13   0   40.80    3.00
   4  13   0   44.90    2.50
  -5 -13   0    2.10    1.00
   5 -13   0    2.40    1.20
   5 -13   0    3.30    1.40
  -5 -13   0    4.50    1.80
   5  13   0   10.20    1.80
  -5  13   0    8.90    1.80
   6 -13   0   57.19    4.10
  -6 -13   0   55.59    3.80
  -6 -13   0   56.79    4.50
   6 -13   0   55.79    4.00
  -6  13   0   57.79    4.30
   6  13   0   61.09    4.20
   7 -13   0    6.80    1.90
  -7 -13   0    9.40    2.60
   7 -13   0    5.90    2.00
  -7  13   0    6.20    2.10
   7  13   0   10.60    2.30
   0  14   0   98.09    4.90
   1 -14   0  497.95   21.10
   1 -14   0  489.05   21.30
  -1 -14   0  492.55   21.30
  -1  14   0  488.05   21.20
  -1  14   0  482.95   20.90
   1  14   0  463.95   21.30
   1  14   0  483.15   20.70
   1  14   0  473.45   21.20
   2 -14   0  530.75   23.90
  -2 -14   0  552.24   23.40
  -2 -14   0  559.84   24.10
   2 -14   0  549.65   23.80
  -2  14   0  540.05   23.80
   2  14   0  552.74   24.00
   2  14   0  534.55   23.80
   3 -14   0   20.50    1.70
   3 -14   0   19.60    1.80
  -3 -14   0   21.20    2.30
  -3 -14   0   19.30    1.30
  -3  14   0   13.80    1.60
  -3  14   0   17.80    1.90
   3  14   0   14.90    1.70
   4 -14   0   86.29    4.80
  -4 -14   0   84.49    5.30
   4 -14   0   93.59    4.90
  -4 -14   0   85.99    4.40
  -4  14   0   91.19    5.00
   4  14   0   85.19    4.90
   4  14   0   84.89    4.40
  -4  14   0   85.29    4.50
   5 -14   0   24.30    2.50
   5 -14   0   24.60    2.50
  -5 -14   0   26.90    3.10
  -5 -14   0   24.50    2.10
   5  14   0   25.80    2.70
  -5  14   0   25.60    2.80
   6 -14   0    4.40    1.70
  -6 -14   0    5.00    2.20
   6 -14   0    5.60    1.60
   6  14   0    3.60    1.60
  -6  14   0    1.20    1.70
  -7 -14   0   17.70    3.30
   7 -14   0   14.50    2.50
   7 -14   0   16.40    2.70
   7  14   0   19.30    2.80
  -7  14   0   17.50    2.90
   0 -15   0    0.80    0.70
   0 -15   0   -0.10    0.80
   0  15   0    0.50    0.40
   0  15   0    0.10    0.70
   1 -15   0   91.89    4.40
  -1 -15   0   93.39    4.50
   1 -15   0   88.89    4.30
   1  15   0   81.39    4.30
   1  15   0   73.89    3.70
  -1  15   0   80.99    4.30
   1  15   0   75.29    4.40
  -1  15   0   79.59    4.00
  -2 -15   0  179.48    9.20
  -2 -15   0  179.98    8.40
   2 -15   0  184.08    9.00
   2 -15   0  181.18    8.80
  -2  15   0  207.18    9.00
   2  15   0  217.38    9.30
   2  15   0  201.08    9.00
  -3 -15   0   44.50    3.20
   3 -15   0   43.40    2.70
   3 -15   0   43.20    2.80
  -3 -15   0   44.40    2.30
  -3  15   0   37.50    2.70
  -3  15   0   41.30    2.90
   3  15   0   41.90    3.00
   3  15   0   38.20    2.60
   4 -15   0   69.39    4.40
  -4 -15   0   74.19    3.90
  -4 -15   0   76.09    4.90
   4 -15   0   71.29    4.30
   4  15   0   85.39    4.70
   4  15   0   77.49    4.10
  -4  15   0   79.69    4.60
  -4  15   0   78.79    4.20
   5 -15   0   47.60    3.50
  -5 -15   0   47.60    4.10
   5 -15   0   45.10    3.50
  -5  15   0   53.49    3.70
   5  15   0   55.29    3.80
   6 -15   0   32.00    3.10
   6 -15   0   33.70    3.30
  -6 -15   0   36.30    3.90
  -6  15   0   29.30    3.10
   6  15   0   29.90    3.20
   7 -15   0   14.90    2.60
   7 -15   0   15.20    2.50
  -7 -15   0   11.90    3.00
   7  15   0   16.20    2.70
  -7  15   0   15.50    2.90
   0 -16   0   19.60    1.90
   0 -16   0   20.20    1.90
   0  16   0   29.10    2.10
   0  16   0   29.40    1.50
  -1 -16   0  715.43   31.90
   1 -16   0  698.83   31.90
   1 -16   0  717.43   31.70
   1  16   0  767.82   31.90
  -1  16   0  734.93   31.50
   1  16   0  741.03   31.20
  -1  16   0  760.12   31.90
   1  16   0  737.13   32.00
   2 -16   0  164.08    7.90
  -2 -16   0  174.48    8.30
  -2 -16   0  167.38    7.40
   2 -16   0  165.68    8.10
   2  16   0  170.38    8.00
  -2  16   0  174.88    7.90
   2  16   0  164.48    8.20
  -2  16   0  165.28    8.00
   3 -16   0   23.30    2.10
  -3 -16   0   21.90    1.40
  -3 -16   0   22.20    2.40
   3 -16   0   23.40    1.90
  -3  16   0   16.40    1.80
   3  16   0   16.30    1.90
   3  16   0   18.10    1.80
  -3  16   0   19.90    2.10
   4 -16   0   20.60    2.10
  -4 -16   0   14.30    2.30
   4 -16   0   15.70    1.90
   4  16   0   14.30    2.00
  -4  16   0   14.30    1.70
  -4  16   0   16.30    2.00
   4  16   0   15.10    1.70
  -5 -16   0   18.80    2.80
   5 -16   0   17.40    2.30
   5 -16   0   22.70    2.60
   5  16   0   23.80    2.70
  -5  16   0   19.90    2.50
  -6 -16   0   14.30    2.80
   6 -16   0   14.90    2.30
   6 -16   0   17.10    2.50
   6  16   0   11.50    2.20
  -6  16   0   12.40    2.50
   7 -16   0   31.70    3.60
  -7 -16   0   28.20    3.90
  -7  16   0   30.80    3.70
   7  16   0   30.90    3.60
   0 -17   0    1.30    1.00
   0 -17   0    2.40    0.90
   0  17   0    1.10    0.80
   0  17   0    1.00    0.50
   1 -17   0   99.39    5.00
  -1 -17   0  102.99    5.30
   1 -17   0  107.19    5.30
   1  17   0   98.49    5.30
   1  17   0   96.59    5.20
  -1  17   0  105.79    5.20
   1  17   0   91.39    4.40
  -1  17   0   98.29    4.80
  -2 -17   0   95.89    5.00
   2 -17   0  110.19    5.60
   2 -17   0  107.19    5.30
  -2 -17   0  103.09    5.70
   2  17   0  105.79    5.50
   2  17   0  111.59    5.70
  -2  17   0  110.39    5.30
  -2  17   0  107.89    5.50
   3 -17   0  144.39    6.90
   3 -17   0  143.49    6.70
  -3 -17   0  140.69    7.20
   3  17   0  134.79    7.00
  -3  17   0  129.39    6.70
  -3  17   0  129.69    6.80
   3  17   0  128.09    6.70
  -4 -17   0  170.28    8.80
   4 -17   0  180.48    8.60
   4 -17   0  175.48    8.40
   4  17   0  161.68    8.60
   4  17   0  165.68    8.10
  -4  17   0  166.98    8.20
  -4  17   0  171.08    8.50
   5 -17   0   93.09    5.30
  -5 -17   0   84.99    5.80
   5 -17   0   82.69    5.10
   5  17   0   93.49    5.60
  -5  17   0   91.19    5.50
  -6 -17   0   19.30    3.20
   6 -17   0   18.70    2.60
   6 -17   0   20.10    2.90
   6  17   0   24.00    3.00
  -6  17   0   20.40    3.00
  -7 -17   0   13.90    3.10
  -7  17   0    9.20    2.70
   7  17   0   15.40    2.80
   0 -18   0   94.79    5.50
   0 -18   0   96.99    5.40
   0  18   0  114.99    5.60
   0  18   0  115.09    4.90
   1 -18   0  209.18   10.00
  -1 -18   0  217.58   10.20
   1 -18   0  208.68    9.80
  -1 -18   0  221.08   10.10
   1  18   0  206.18   10.10
  -1  18   0  212.78    9.50
  -1  18   0  211.88   10.00
   1  18   0  215.38   10.00
   2 -18   0  132.69    6.20
   2 -18   0  127.59    6.40
  -2 -18   0  135.49    6.70
   2  18   0  126.99    6.40
  -2  18   0  117.79    6.30
   2  18   0  114.49    6.50
  -2  18   0  124.19    6.10
  -3 -18   0    6.80    1.80
   3 -18   0    4.50    1.30
   3 -18   0    3.80    1.10
   3  18   0    5.00    1.20
  -3  18   0    4.50    1.20
   3  18   0    3.90    1.30
  -3  18   0    3.50    1.30
   4 -18   0    1.40    1.20
  -4 -18   0    0.50    1.50
   4 -18   0    0.30    1.00
   4  18   0    1.70    1.30
  -4  18   0   -0.70    1.30
   4  18   0    0.70    0.90
  -4  18   0   -0.50    0.90
   5 -18   0   10.70    1.90
   5 -18   0   17.20    2.30
  -5 -18   0   11.80    2.60
  -5  18   0   13.90    2.40
   5  18   0   16.60    2.50
  -6 -18   0   10.90    2.50
   6 -18   0   13.30    2.30
  -6  18   0    6.00    2.20
   6  18   0    8.00    2.20
   0 -19   0    0.70    1.00
   0 -19   0    1.00    1.10
   0  19   0    0.90    1.00
   0  19   0    1.70    0.50
  -1 -19   0   18.00    2.10
  -1 -19   0   19.10    2.10
   1 -19   0   19.70    1.90
   1 -19   0   20.40    2.10
  -1  19   0   23.60    1.70
   1  19   0   24.20    2.20
  -1  19   0   19.80    2.00
  -2 -19   0  191.58    9.00
   2 -19   0  182.18    8.80
   2 -19   0  185.68    8.50
   2  19   0  173.68    8.90
  -2  19   0  175.38    8.70
   2  19   0  174.78    8.60
  -2  19   0  174.58    8.40
   3 -19   0   42.40    2.90
   3 -19   0   36.80    2.60
  -3 -19   0   40.80    3.30
   3  19   0   31.90    2.80
   3  19   0   34.20    2.60
  -3  19   0   29.10    2.60
  -3  19   0   31.50    2.70
   4 -19   0  120.59    6.30
  -4 -19   0  116.79    6.80
   4 -19   0  116.29    6.10
  -4  19   0  111.39    6.00
  -4  19   0  116.19    6.30
   4  19   0  110.49    6.40
  -5 -19   0   45.00    4.20
   5 -19   0   46.20    3.60
   5  19   0   43.90    3.80
  -5  19   0   44.80    3.80
   6 -19   0   14.60    2.40
  -6 -19   0   11.50    2.80
  -6  19   0   12.10    2.60
   6  19   0    9.20    2.20
   0 -20   0   17.00    2.10
   0 -20   0   18.20    2.10
  -1 -20   0   70.09    4.00
  -1 -20   0   64.59    3.80
   1 -20   0   71.69    3.60
   1 -20   0   67.79    3.80
  -1  20   0   51.99    3.10
   1  20   0   46.40    3.50
  -1  20   0   49.10    3.50
   2 -20   0   50.19    3.40
  -2 -20   0   48.50    3.60
   2 -20   0   44.80    3.10
   2  20   0   53.49    3.40
  -2  20   0   50.09    3.40
   2  20   0   51.09    3.50
  -2  20   0   55.89    3.20
   3 -20   0   36.20    2.90
  -3 -20   0   40.80    3.40
   3 -20   0   32.90    2.60
   3  20   0   40.80    2.90
  -3  20   0   35.80    2.90
   3  20   0   35.10    3.10
  -4 -20   0    5.00    1.90
   4 -20   0    5.00    1.40
   4 -20   0    5.10    1.50
  -4  20   0    4.40    1.30
  -4  20   0    4.10    1.70
   4  20   0    5.10    1.50
   4  20   0    1.40    0.70
  -5 -20   0    7.90    2.40
   5 -20   0   10.60    2.00
  -5  20   0    8.00    2.20
   5  20   0    9.80    2.10
  -6 -20   0   15.20    3.00
   6 -20   0   20.40    2.80
   6  20   0   14.40    2.50
  -6  20   0   13.80    2.80
   0 -21   0    2.80    1.10
   0 -21   0    2.30    1.20
   0  21   0    1.20    1.10
  -1 -21   0   95.49    5.30
  -1 -21   0   90.39    5.10
   1 -21   0  102.79    5.30
   1 -21   0   94.49    4.90
  -1  21   0   83.99    5.00
   1  21   0   87.89    5.10
  -2 -21   0   42.50    3.40
   2 -21   0   47.80    2.90
   2 -21   0   49.80    3.30
  -2  21   0   41.80    3.20
  -2  21   0   41.40    2.80
   2  21   0   37.60    3.10
   2  21   0   37.50    3.20
   3 -21   0    6.30    1.30
  -3 -21   0    8.30    2.00
   3 -21   0    5.50    1.50
  -3  21   0    6.40    1.50
   3  21   0    4.20    1.50
  -3  21   0    5.20    1.40
   3  21   0    5.40    1.40
   4 -21   0   35.60    3.00
  -4 -21   0   38.40    3.70
   4  21   0   31.10    2.60
  -4  21   0   29.70    2.80
  -4  21   0   32.40    3.10
   4  21   0   32.90    3.20
  -5 -21   0   47.50    4.40
   5 -21   0   45.50    3.80
  -5  21   0   40.20    3.80
   5  21   0   46.60    4.00
  -6 -21   0    4.20    2.50
   6 -21   0    4.10    1.90
   6  21   0    4.20    2.00
  -6  21   0    0.60    2.00
   0 -22   0  245.68   11.20
   0 -22   0  234.08   10.80
   0  22   0  210.18   10.90
   1 -22   0  137.29    7.10
  -1 -22   0  135.59    7.00
   1 -22   0  135.49    6.70
  -1 -22   0  137.19    7.10
   1  22   0  128.99    6.90
  -1  22   0  128.69    7.00
   2 -22   0   86.69    5.40
  -2 -22   0   88.69    5.60
   2 -22   0   79.69    5.00
  -2  22   0  108.19    5.50
   2  22   0   99.29    5.60
   2  22   0  112.59    5.50
  -2  22   0  105.59    5.50
  -3 -22   0    6.00    1.90
   3 -22   0    6.10    1.60
   3  22   0    6.10    1.80
   3  22   0    5.90    1.40
  -3  22   0    6.20    1.60
  -3  22   0    5.90    1.50
  -4 -22   0   -1.00    1.70
   4 -22   0   -0.20    1.20
  -4  22   0    0.60    1.50
  -4  22   0   -0.50    1.10
   4  22   0    0.40    1.10
   4  22   0   -0.20    1.30
  -5 -22   0   12.00    2.70
   5 -22   0   19.40    2.70
  -5  22   0   11.90    2.50
   5  22   0   14.90    2.60
   6 -22   0   11.10    2.40
  -6 -22   0    7.50    2.80
  -6  22   0    4.50    2.30
   6  22   0    6.70    2.20
   0 -23   0    4.70    1.40
   0 -23   0    4.10    1.40
   0  23   0    3.30    1.30
  -1 -23   0   70.99    4.50
  -1 -23   0   78.99    4.70
   1 -23   0   76.79    4.70
   1 -23   0   78.49    4.30
  -1  23   0   71.29    4.60
   1  23   0   69.49    4.50
  -2 -23   0   36.60    3.40
   2 -23   0   38.00    3.10
  -2 -23   0   37.60    3.30
   2  23   0   32.00    3.00
  -2  23   0   33.30    3.00
   2  23   0   30.90    2.90
   3 -23   0   36.50    3.00
  -3 -23   0   34.10    3.50
   3  23   0   28.10    2.70
  -3  23   0   30.00    2.70
   3  23   0   26.90    2.90
  -3  23   0   25.80    2.70
  -4 -23   0   47.00    4.10
   4 -23   0   48.00    3.60
   4  23   0   35.70    3.60
   4  23   0   38.80    3.20
  -4  23   0   36.60    3.20
  -4  23   0   35.30    3.40
   5 -23   0   26.40    3.20
  -5 -23   0   30.40    3.80
  -5  23   0   30.70    3.40
   5  23   0   27.60    3.20
   0 -24   0  133.19    7.00
   0 -24   0  141.69    7.40
   0  24   0  137.59    7.20
  -1 -24   0  141.79    7.20
   1 -24   0  125.19    6.80
   1 -24   0  142.79    7.40
  -1 -24   0  134.09    7.30
   1  24   0  131.19    7.10
  -1  24   0  140.49    7.30
   2 -24   0   49.70    3.70
  -2 -24   0   45.40    3.90
  -2 -24   0   51.89    3.90
   2  24   0   50.69    3.60
  -2  24   0   48.50    3.60
   3 -24   0    6.70    1.80
  -3 -24   0    5.30    2.00
  -3  24   0    5.60    1.60
   3  24   0    7.30    1.60
   3  24   0    8.70    2.00
   4 -24   0    2.20    1.50
  -4 -24   0    1.10    1.80
  -4  24   0    2.80    1.40
   4  24   0    3.90    1.40
   4  24   0    2.50    1.60
  -5 -24   0   12.90    2.90
   5 -24   0   14.90    2.50
  -5  24   0    8.00    2.40
   5  24   0   12.40    2.60
   0 -25   0    2.70    1.30
   0 -25   0    4.60    1.40
   0  25   0    2.30    1.40
   1 -25   0   21.90    2.60
  -1 -25   0   18.80    2.50
  -1 -25   0   19.10    2.40
   1  25   0   20.40    2.50
  -1  25   0   18.30    2.40
  -2 -25   0   89.19    5.60
  -2 -25   0   91.09    5.50
   2 -25   0   98.99    5.50
  -2  25   0   81.49    5.10
   2  25   0   77.99    5.10
  -3 -25   0   19.90    2.90
   3 -25   0   27.10    2.90
   3  25   0   25.30    2.60
  -3  25   0   18.90    2.50
   3  25   0   27.60    3.10
   4 -25   0   26.60    3.10
  -4 -25   0   22.70    3.30
  -4  25   0   19.00    2.60
   4  25   0   21.30    2.50
   4  25   0   20.30    3.00
  -5 -25   0   14.20    3.20
   5 -25   0   13.60    2.50
   5  25   0   18.10    2.90
   0 -26   0   79.89    5.20
   0  26   0   89.09    5.30
  -1 -26   0   52.09    3.90
   1 -26   0   51.89    3.90
  -1 -26   0   52.99    3.80
  -1  26   0   48.70    3.80
   1  26   0   50.79    3.70
  -2 -26   0   24.70    3.00
  -2 -26   0   19.90    2.60
   2 -26   0   25.80    2.80
  -2  26   0   26.40    2.70
   2  26   0   27.70    2.80
  -3 -26   0    4.40    2.10
   3 -26   0    6.30    1.80
  -3  26   0    6.00    1.70
   3  26   0    5.10    1.90
   3  26   0    4.50    1.50
  -4 -26   0    2.30    2.20
   4 -26   0    1.50    1.60
  -4  26   0    4.10    1.70
   4  26   0    4.30    2.00
   4  26   0    3.20    1.50
  -5 -26   0    4.90    2.70
   5 -26   0    7.10    2.20
   5  26   0    5.30    2.00
   0 -27   0    2.30    1.50
   0  27   0    1.60    1.40
  -1 -27   0   12.40    2.20
   1 -27   0   10.30    2.00
   1  27   0   10.20    2.10
  -1  27   0    9.40    1.90
   2 -27   0   64.79    4.50
  -2 -27   0   61.09    4.60
  -2 -27   0   64.09    4.60
   2  27   0   64.79    4.50
  -2  27   0   67.99    4.60
  -3 -27   0   20.40    2.90
   3 -27   0   22.30    2.90
  -3 -27   0   19.20    3.00
   3  27   0   23.40    3.10
   3  27   0   18.40    2.50
  -3  27   0   24.70    2.90
   4 -27   0   11.70    2.50
  -4 -27   0   11.90    2.90
   4  27   0   14.50    2.70
  -4  27   0   12.90    2.30
   4  27   0   12.90    2.20
   0 -28   0   67.29    4.70
   0  28   0   62.49    4.50
   1 -28   0   24.40    3.00
  -1 -28   0   26.50    3.10
   1  28   0   23.20    2.90
  -1  28   0   17.90    2.50
   2 -28   0    2.10    1.50
  -2 -28   0    2.20    1.60
   2  28   0    1.20    1.50
  -2  28   0    3.50    1.70
  -3 -28   0    4.40    2.30
   3 -28   0    7.90    2.10
  -3 -28   0    8.60    2.20
   3  28   0    2.70    1.50
  -3  28   0    4.10    1.80
   4 -28   0    2.00    1.90
  -4 -28   0    2.30    2.40
   4  28   0    1.70    1.70
   4  28   0    3.10    1.80
  -4  28   0    2.50    1.70
   0 -29   0    0.30    1.50
   0  29   0    1.30    1.40
   1 -29   0   11.30    2.30
  -1 -29   0    9.80    2.20
   1  29   0    8.70    1.90
  -1  29   0    7.30    2.00
   2 -29   0    0.90    1.50
  -2 -29   0    0.50    1.50
   2  29   0    2.70    1.60
  -2  29   0    3.80    1.80
   3 -29   0   11.60    2.30
  -3 -29   0   13.60    2.60
   3  29   0    8.40    2.00
  -3  29   0   12.40    2.40
   0 -30   0   19.60    2.90
   0  30   0   21.30    2.80
  -1 -30   0    9.50    2.20
   1 -30   0   11.40    2.20
   1  30   0    9.90    2.20
  -1  30   0   10.00    2.20
  -2 -30   0    8.20    2.20
   2 -30   0    6.40    2.00
  -2  30   0    5.00    1.90
   2  30   0    5.50    1.90
  -3 -30   0    4.80    2.20
   3 -30   0    6.00    2.10
  -3  30   0    4.40    1.90
   3  30   0    5.90    1.90
   0 -31   0    0.40    1.60
   0  31   0    1.20    1.70
   1 -31   0   -0.40    1.60
  -1 -31   0    2.20    1.90
  -1  31   0    1.60    1.80
   1  31   0    4.10    1.90
   2 -31   0    8.80    2.30
  -2 -31   0    8.90    2.30
   2  31   0    7.00    2.00
  -2  31   0    6.30    2.10
   0 -32   0    5.30    2.00
   0  32   0   12.60    2.50
   1 -32   0   19.20    2.90
  -1 -32   0   16.40    2.90
   1  32   0   18.90    2.80
  -1  32   0   18.60    2.90
   2 -32   0   21.40    3.10
  -2 -32   0   15.90    2.90
   2  32   0   18.70    2.80
  -2  32   0   22.20    3.10
   0  33   0    1.90    1.80
  -8   0   1   22.00    3.00
   8   0  -1   18.30    3.10
   8   0  -1   21.10    2.90
  -7   0   1    7.50    1.90
   7   0  -1   10.20    2.40
   7   0  -1   12.40    2.00
   6   0  -1   21.40    2.40
  -6   0   1   20.90    2.50
   6   0  -1   19.50    2.60
   5   0  -1   14.80    1.80
   5   0  -1   20.50    2.30
  -5   0   1   17.10    1.80
   4   0  -1  203.78    9.40
  -4   0   1  202.08    9.30
   4   0  -1  196.68    9.30
  -3   0   1  582.84   25.60
   3   0  -1  584.64   25.60
   3   0  -1  606.64   25.70
   2   0  -1  855.51   37.00
  -2   0   1  876.31   37.00
   2   0  -1  866.31   37.00
  -1   0   1 7831.42  338.27
   1   0  -1 8383.46  338.47
   1   0  -1 7858.01  345.07
   1   0  -1 7817.92  338.47
   0   0   1  491.05   20.20
   0   0  -1  486.55   20.30
   0   0   1  439.06   20.20
   0   0   1  462.95   20.20
   0   0  -1  483.55   20.20
   1   0   1  536.35   22.50
   1   0   1  520.65   22.30
   1   0   1  515.15   22.40
  -1   0  -1  529.45   22.40
   2   0   1  200.88    9.20
  -2   0  -1  203.08    9.10
  -2   0  -1  212.38    8.90
   3   0   1  622.14   27.50
  -3   0  -1  645.84   27.40
  -3   0  -1  629.84   27.00
   4   0   1   19.90    1.60
  -4   0  -1   19.80    1.70
   4   0   1   17.10    1.80
  -4   0  -1   18.40    1.10
   5   0   1   33.60    2.40
  -5   0  -1   31.80    2.40
   5   0   1   27.20    2.70
   6   0   1   37.00    3.50
  -6   0  -1   39.30    3.00
   6   0   1   37.20    3.00
   7   0   1   27.00    3.40
  -7   0  -1   23.70    2.80
   7   0   1   24.30    2.80
  -8   0  -1    0.50    1.80
   8   0   1    2.00    2.00
  -8  -1   1    6.40    2.20
   8  -1  -1    7.40    2.50
   8  -1  -1    5.30    1.90
   8   1  -1    7.70    2.40
  -8   1   1    6.50    2.10
   8   1  -1    7.40    2.10
   7  -1  -1   57.19    4.30
  -7  -1   1   53.09    4.00
   7  -1  -1   57.69    4.10
   7   1  -1   57.69    4.10
  -7   1   1   51.39    4.00
   7   1  -1   52.69    4.20
   6  -1  -1  125.89    6.80
   6  -1  -1  119.59    6.50
  -6  -1   1  124.29    6.60
   6   1  -1  119.59    6.80
   6   1  -1  121.49    6.50
  -6   1   1  119.99    6.50
  -5   1   1    8.00    1.50
   5   1  -1    9.50    1.50
   5   1  -1   10.60    1.80
   4  -1  -1  177.58    8.20
   4  -1  -1  169.38    8.20
  -4  -1   1  172.08    8.10
  -4   1   1  172.28    8.10
   4   1  -1  166.68    8.20
   4   1  -1  174.78    8.20
   3  -1  -1  267.87   12.70
   3  -1  -1  288.37   12.70
  -3  -1   1  280.67   12.60
   3   1  -1  274.67   12.70
   3   1  -1  300.07   12.70
  -3   1   1  302.47   12.70
   2  -1  -1    8.90    0.50
   2  -1  -1    9.60    0.90
  -2  -1   1    7.60    0.80
  -2  -1   1    8.70    0.50
   2  -1  -1    8.20    0.80
   2   1  -1    9.90    0.50
   2   1  -1   10.80    1.00
   2   1  -1   10.20    0.90
  -1  -1   1  956.70   40.70
  -1  -1   1 1004.30   40.70
   1  -1  -1  970.10   40.90
   1  -1  -1  950.20   40.60
  -1   1   1  941.61   40.60
   1   1  -1  932.21   40.60
   1   1  -1  955.80   40.70
  -1   1   1  937.31   40.60
   0  -1  -1 3780.32  174.38
   0  -1   1 3759.22  170.68
   0  -1   1 3988.50  167.48
   0  -1  -1 4135.99  167.48
   0  -1  -1 3927.01  179.68
   0  -1   1 3970.70  166.98
   0   1  -1 3977.10  170.78
   0   1  -1 3926.21  167.28
   1  -1   1 1580.24   71.79
   1  -1   1 1573.94   71.49
  -1  -1  -1 1564.64   71.69
   1   1   1 1692.43   71.69
   1   1   1 1735.73   71.99
   1   1   1 1776.02   71.89
  -1   1  -1 1797.22   71.99
  -1   1  -1 1778.32   82.29
  -2  -1  -1  204.78    9.40
   2  -1   1  199.78    9.30
  -2  -1  -1  207.88    9.20
   2  -1   1  219.98    9.50
   2   1   1  213.38    9.50
  -2   1  -1  219.28    9.40
  -2   1  -1  216.58    9.20
   3  -1   1 1266.37   52.99
  -3  -1  -1 1258.67   52.39
  -3  -1  -1 1261.67   52.79
   3   1   1 1274.67   52.99
  -3   1  -1 1237.68   52.39
  -3   1  -1 1233.98   52.79
   3   1   1 1107.39   52.69
   4   1   1   21.00    1.90
  -4   1  -1   21.90    1.70
   4   1   1   18.70    1.70
  -4   1  -1   19.20    1.10
   5  -1   1    5.40    1.20
   5  -1   1    6.70    1.60
  -5  -1  -1    4.60    1.20
   5   1   1    8.70    1.70
  -5   1  -1    7.80    1.40
   5   1   1    6.90    1.30
   6  -1   1   22.60    2.70
  -6  -1  -1   24.20    2.60
   6  -1   1   19.20    2.20
   6   1   1   24.20    2.90
  -6   1  -1   21.00    2.50
   6   1   1   18.90    2.20
   7  -1   1   11.10    1.90
   7  -1   1    9.00    2.10
  -7  -1  -1    6.20    1.80
  -7   1  -1    5.10    1.90
   7   1   1    8.40    2.30
   7   1   1    5.20    1.60
   8  -1   1   10.40    2.80
  -8  -1  -1   13.20    2.40
   8   1   1   11.80    2.90
  -8   1  -1    9.70    2.30
   8  -2  -1   19.10    2.80
  -8  -2   1   16.80    2.80
   8  -2  -1   16.90    3.00
  -8   2   1   13.80    2.60
   8   2  -1   20.30    2.90
   8   2  -1   18.10    3.20
   7  -2  -1   16.60    2.70
   7  -2  -1   19.20    2.60
  -7  -2   1   16.80    2.50
   7   2  -1   17.00    2.70
  -7   2   1   14.70    2.40
   7   2  -1   19.50    2.50
   6  -2  -1   21.50    2.30
   6  -2  -1   17.00    2.40
  -6  -2   1   18.50    2.30
   6   2  -1   16.20    2.40
  -6   2   1   18.60    2.30
   6   2  -1   17.10    2.20
   5  -2  -1  100.39    5.40
   5  -2  -1   96.59    5.10
  -5  -2   1   94.89    5.10
   5   2  -1   92.49    5.40
  -5   2   1   97.89    5.30
   5   2  -1   96.49    5.20
   4  -2  -1  238.28   11.10
   4  -2  -1  264.37   11.20
  -4  -2   1  246.08   11.00
  -4   2   1  240.38   11.00
   4   2  -1  231.68   11.10
   4   2  -1  229.68   11.20
  -3  -2   1 1580.54   67.69
   3  -2  -1 1581.54   67.79
   3  -2  -1 1610.74   67.79
   3   2  -1 1592.94   67.79
  -3   2   1 1582.84   67.69
   3   2  -1 1583.34   67.79
   2  -2  -1  904.11   37.90
   2  -2  -1  881.81   38.00
  -2  -2   1  897.21   37.90
   2   2  -1  889.31   38.00
   2   2  -1  890.61   37.60
  -2   2   1  878.21   38.00
   2   2  -1  874.61   38.00
  -2   2   1  886.81   37.70
  -1  -2   1   79.99    3.60
   0  -2  -1  779.32   30.80
   0  -2   1  708.53   30.80
   0  -2  -1  738.43   30.80
   0  -2   1  756.22   30.80
   0   2  -1  684.23   30.80
   0   2   1  717.63   30.90
   0   2   1  703.03   30.80
   0   2  -1  698.53   31.00
   0   2   1  728.23   30.80
   1  -2   1  372.06   16.40
   1  -2   1  370.76   16.50
   1   2   1  395.66   16.50
  -1   2  -1  381.56   16.50
  -1   2  -1  392.46   16.40
   1   2   1  388.26   16.40
  -2  -2  -1  255.07   11.60
  -2  -2  -1  273.67   11.50
   2  -2   1  271.87   11.80
   2  -2   1  275.47   11.60
  -2   2  -1  267.97   11.50
   2   2   1  252.57   11.70
  -2   2  -1  260.17   11.70
  -3  -2  -1  497.25   21.80
   3  -2   1  486.35   21.90
  -3  -2  -1  511.55   21.40
  -3   2  -1  510.75   21.80
   3   2   1  516.75   21.80
   3   2   1  483.85   21.90
  -3   2  -1  499.35   21.40
  -4  -2  -1    8.00    0.80
  -4  -2  -1   10.30    1.30
   4  -2   1    7.30    1.10
   4  -2   1    8.60    1.50
   4   2   1   10.00    1.30
  -4   2  -1   11.20    0.80
   4   2   1   11.70    1.60
  -4   2  -1   10.60    1.30
   5  -2   1   37.00    2.90
   5  -2   1   40.50    2.60
  -5  -2  -1   45.10    2.80
   5   2   1   32.20    3.00
  -5   2  -1   32.70    2.60
   5   2   1   35.60    2.60
   6  -2   1   40.90    3.00
   6  -2   1   33.50    3.30
  -6  -2  -1   38.30    3.20
  -6   2  -1   44.50    3.40
   6   2   1   45.60    3.70
   6   2   1   46.10    3.20
  -7  -2  -1   27.70    3.00
   7  -2   1   30.20    2.90
   7  -2   1   28.60    3.50
   7   2   1   29.50    3.00
   7   2   1   27.60    3.30
  -7   2  -1   29.30    3.20
   8  -2   1    5.80    2.50
  -8  -2  -1    3.10    1.80
   8   2   1    3.00    2.30
  -8   2  -1    1.60    1.70
   8  -3  -1    9.70    2.20
   8  -3  -1    9.60    2.60
  -8  -3   1    7.20    2.20
   8   3  -1   11.50    2.80
  -8   3   1   10.10    2.40
   8   3  -1    8.50    2.10
   7  -3  -1   36.80    3.60
   7  -3  -1   37.60    3.30
  -7  -3   1   33.10    3.30
   7   3  -1   39.20    3.90
   7   3  -1   37.70    3.40
  -7   3   1   35.30    3.50
   6  -3  -1  113.49    6.20
   6  -3  -1  114.19    6.30
  -6  -3   1  114.79    6.20
   6   3  -1  115.19    6.30
  -6   3   1  111.59    6.30
   6   3  -1  111.89    6.40
   5  -3  -1   19.50    2.10
  -5  -3   1   14.10    1.70
   5  -3  -1   16.10    1.90
   5   3  -1   26.80    2.40
   4  -3  -1  235.98   11.30
  -4  -3   1  245.18   11.10
   4  -3  -1  251.27   11.30
  -4   3   1  252.77   11.30
   4   3  -1  240.58   11.40
   4   3  -1  248.88   11.30
  -3  -3   1   19.70    1.60
   3  -3  -1   18.30    1.70
   3  -3  -1   22.60    1.70
   3   3  -1   22.30    1.80
   3   3  -1   27.40    1.20
  -3   3   1   27.40    1.20
   3   3  -1   26.30    1.90
  -3   3   1   29.90    1.80
  -2  -3   1  330.57   14.00
   2  -3  -1  318.47   14.10
   2  -3  -1  325.57   14.10
  -2   3   1  317.47   13.80
  -2   3   1  328.07   14.10
   2   3  -1  317.47   14.10
   2   3  -1  323.87   14.20
   2   3  -1  324.87   13.80
   1  -3  -1 1561.34   66.69
  -1  -3   1 1599.64   66.79
  -1  -3   1 1599.74   66.89
   1  -3  -1 1503.65   66.99
  -1   3   1 1569.84   66.79
   1   3  -1 1571.94   66.59
  -1   3   1 1547.65   66.39
   0  -3   1  812.22   31.60
   0  -3  -1  773.82   31.50
   0  -3   1  801.22   31.60
   0  -3  -1  783.22   31.50
   0   3   1  687.53   31.50
   0   3   1  689.53   31.50
   0   3   1  696.03   31.50
   0   3  -1  701.43   31.50
   0   3  -1  721.43   31.50
   1  -3   1  532.05   24.20
   1  -3   1  529.55   24.30
   1   3   1  569.04   24.20
  -1   3  -1  587.84   24.30
  -1   3  -1  605.94   24.30
   1   3   1  586.24   24.30
  -2  -3  -1 1147.59   49.10
   2  -3   1 1156.78   49.20
   2  -3   1 1151.38   49.00
   2   3   1 1155.08   49.20
   2   3   1 1109.59   49.00
  -2   3  -1 1150.98   48.90
  -2   3  -1 1180.98   49.10
   2   3   1 1156.28   48.90
   3  -3   1  785.92   33.00
  -3  -3  -1  784.02   32.80
  -3  -3  -1  790.02   32.50
   3   3   1  742.03   32.80
  -3   3  -1  753.22   32.90
  -3   3  -1  735.73   32.50
   3   3   1  743.43   33.00
  -4  -3  -1  133.19    6.30
   4  -3   1  132.59    6.60
  -4  -3  -1  125.89    5.70
   4   3   1  127.89    6.50
  -4   3  -1  129.49    6.40
   4   3   1  130.39    6.30
  -4   3  -1  125.49    5.70
   5  -3   1   36.00    3.00
   5  -3   1   28.80    2.50
  -5  -3  -1   33.50    2.60
  -5   3  -1   39.10    2.70
   5   3   1   39.70    2.70
   5   3   1   40.30    3.00
   6  -3   1   46.20    3.40
   6  -3   1   47.70    3.80
  -6  -3  -1   51.59    3.40
  -6   3  -1   44.40    3.40
   6   3   1   50.69    3.40
   6   3   1   46.50    3.70
   7  -3   1    5.20    1.90
  -7  -3  -1    6.70    1.80
   7  -3   1    6.50    1.70
   7   3   1    6.40    2.00
   7   3   1    6.40    1.70
  -7   3  -1    5.60    1.90
   8  -3   1   12.30    2.90
  -8  -3  -1   15.20    2.70
  -8   3  -1   18.50    2.90
   8   3   1   12.20    2.90
   8  -4  -1   13.90    2.90
   8  -4  -1   14.10    2.50
  -8  -4   1   10.50    2.40
   8   4  -1   11.90    2.70
   8   4  -1   12.90    2.40
  -8   4   1    9.80    2.40
   7  -4  -1   19.30    2.50
   7  -4  -1   16.30    2.60
  -7  -4   1   16.00    2.30
   7   4  -1   14.20    2.60
   7   4  -1   19.10    2.60
  -7   4   1   12.90    2.40
   6  -4  -1   30.40    2.70
   6  -4  -1   22.20    2.70
  -6  -4   1   27.40    2.60
   6   4  -1   24.40    2.90
   6   4  -1   29.10    2.70
  -6   4   1   24.70    2.70
   5  -4  -1   92.09    5.00
  -5  -4   1   95.89    4.90
   5  -4  -1   99.39    5.20
   5   4  -1   86.39    5.20
   5   4  -1   91.49    5.10
  -5   4   1   86.69    5.00
   4  -4  -1  233.98   10.90
  -4  -4   1  236.88   10.70
   4  -4  -1  215.88   10.80
   4   4  -1  255.17   11.10
   4   4  -1  239.48   10.90
  -4   4   1  239.78   10.10
  -4   4   1  237.58   10.90
   3  -4  -1 1620.84   72.29
  -3  -4   1 1686.03   72.09
   3  -4  -1 1645.54   72.19
   3   4  -1 1769.92   71.89
  -3   4   1 1670.53   71.89
   3   4  -1 1730.13   72.39
   3   4  -1 1717.63   72.29
  -3   4   1 1718.03   72.29
  -2  -4   1 1184.58   48.70
   2  -4  -1 1181.08   48.70
   2  -4  -1 1178.08   48.80
  -2  -4   1 1161.58   49.00
  -2   4   1 1116.69   48.60
   2   4  -1 1120.19   48.90
   2   4  -1 1117.89   48.60
   2   4  -1 1115.49   48.80
  -2   4   1 1120.59   48.80
   1  -4  -1 1698.23   67.59
  -1  -4   1 1692.93   67.49
   1  -4  -1 1571.84   67.39
  -1  -4   1 1651.03   67.49
  -1   4   1 1503.85   67.69
   1   4  -1 1473.05   67.29
  -1   4   1 1516.55   67.49
   0  -4   1  980.50   43.70
   0  -4  -1  924.11   43.60
   0  -4  -1  986.30   43.70
   0   4   1 1055.39   43.60
   0   4  -1 1121.09   44.10
   0   4   1 1065.19   43.80
   0   4  -1 1058.79   43.70
   1  -4   1  465.45   19.40
   1  -4   1  483.15   19.50
  -1   4  -1  454.75   19.40
  -1   4  -1  459.55   19.40
   1   4   1  431.56   19.40
   1   4   1  436.06   19.40
   1   4   1  449.66   19.40
   1   4   1  441.56   19.50
   2  -4   1  872.81   37.50
   2  -4   1  867.71   37.30
  -2  -4  -1  885.81   37.40
  -2   4  -1  880.61   37.40
   2   4   1  890.61   37.40
   2   4   1  860.71   37.50
  -2   4  -1  870.11   37.30
   2   4   1  870.71   37.30
   3  -4   1  384.46   16.70
  -3  -4  -1  366.76   16.50
  -3  -4  -1  379.66   16.20
  -3   4  -1  384.96   16.60
   3   4   1  368.76   16.50
   3   4   1  366.46   16.70
  -3   4  -1  383.26   16.20
  -4  -4  -1   62.79    2.80
   4  -4   1   64.19    3.60
  -4  -4  -1   65.49    3.40
   4   4   1   55.29    3.30
  -4   4  -1   56.29    3.40
   4   4   1   49.60    3.50
  -4   4  -1   55.29    2.80
  -5  -4  -1   96.39    4.80
   5  -4   1   94.79    5.10
   5  -4   1   99.09    4.80
   5   4   1   72.59    5.00
  -5   4  -1   78.39    4.80
   5   4   1   76.19    4.60
   6  -4   1   31.40    3.10
  -6  -4  -1   28.00    2.50
   6  -4   1   27.30    2.60
  -6   4  -1   29.50    2.70
   6   4   1   29.20    2.60
   6   4   1   32.90    3.30
   7  -4   1   19.10    2.40
   7  -4   1   22.40    3.20
  -7  -4  -1   16.30    2.40
   7   4   1   21.80    3.10
   7   4   1   22.30    2.60
  -7   4  -1   22.20    2.80
   8  -4   1    2.10    2.20
  -8  -4  -1    1.80    1.90
  -8   4  -1    4.40    2.20
   8   4   1    1.00    2.10
   8  -5  -1   13.00    2.50
   8  -5  -1   10.20    2.60
  -8  -5   1   15.40    2.70
  -8   5   1   14.10    2.80
   8   5  -1   15.10    3.10
   8   5  -1   13.20    2.40
   7  -5  -1   27.70    2.90
   7  -5  -1   26.20    3.20
  -7  -5   1   24.20    2.80
   7   5  -1   22.50    2.70
  -7   5   1   23.30    3.00
   7   5  -1   24.10    3.10
   6  -5  -1  140.09    7.20
   6  -5  -1  148.79    7.10
  -6  -5   1  142.49    6.90
   6   5  -1  123.59    7.00
  -6   5   1  120.49    6.90
   6   5  -1  116.59    7.30
   5  -5  -1   94.39    5.30
   5  -5  -1  103.69    5.20
  -5  -5   1   99.49    5.10
  -5   5   1   89.49    5.20
   5   5  -1   91.09    5.50
   5   5  -1   95.99    5.30
   4  -5  -1  240.18   10.70
   4  -5  -1  219.98   10.60
  -4  -5   1  227.18   10.50
   4   5  -1  239.88   10.90
  -4   5   1  223.48   10.00
   4   5  -1  231.08   10.70
  -4   5   1  237.48   10.70
   4   5  -1  233.08    9.90
  -3  -5   1   76.49    4.10
   3  -5  -1   75.39    4.20
   3  -5  -1   86.89    4.40
  -3   5   1   95.69    4.00
   3   5  -1   88.69    3.90
   3   5  -1   92.49    4.50
   3   5  -1   84.69    4.50
  -3   5   1   96.09    4.50
  -2  -5   1  551.24   23.50
  -2  -5   1  556.14   23.90
   2  -5  -1  541.35   23.60
   2  -5  -1  534.85   23.70
  -2   5   1  558.24   23.70
  -2   5   1  557.94   23.50
   2   5  -1  535.85   23.70
   2   5  -1  559.94   23.50
   1  -5  -1   69.69    3.30
   1  -5  -1   69.89    3.50
  -1  -5   1   66.89    3.20
  -1  -5   1   67.89    3.60
   1   5  -1   81.59    3.50
   1   5  -1   76.49    3.40
  -1   5   1   78.89    3.50
  -1   5   1   80.79    3.40
   0  -5   1 1459.95   58.89
   0  -5  -1 1371.26   58.59
   0  -5  -1 1504.75   58.69
   0   5  -1 1311.37   58.69
   0   5  -1 1316.67   58.89
   0   5   1 1333.47   58.69
   0   5  -1 1348.97   58.59
   1  -5   1   37.10    1.70
   1   5   1   35.90    1.80
   1   5   1   32.40    1.80
   1   5   1   34.30    1.70
   1   5   1   30.40    1.70
  -1   5  -1   31.90    1.70
  -1   5  -1   34.10    1.80
  -2  -5  -1  787.42   35.40
   2  -5   1  784.92   35.60
   2   5   1  828.22   35.60
  -2   5  -1  843.12   35.40
  -2   5  -1  838.02   35.50
   2   5   1  868.31   35.40
   2   5   1  837.42   35.50
   2   5   1  843.12   35.40
   3  -5   1 1037.20   42.90
  -3  -5  -1 1011.20   42.60
   3   5   1  979.20   42.70
  -3   5  -1  996.20   42.70
   3   5   1  987.80   42.30
  -3   5  -1  995.20   42.40
   3   5   1  954.40   42.80
   4  -5   1  107.19    5.90
  -4  -5  -1  109.79    5.20
  -4  -5  -1  106.19    5.60
  -4   5  -1  124.79    5.90
  -4   5  -1  119.09    5.30
   4   5   1  123.09    6.10
   4   5   1  119.19    5.80
   5  -5   1   62.09    3.80
   5  -5   1   62.09    4.20
  -5  -5  -1   64.59    3.90
   5   5   1   79.89    4.60
  -5   5  -1   71.79    4.10
   5   5   1   70.09    4.00
   6  -5   1    9.80    2.10
   6  -5   1    7.60    1.60
  -6  -5  -1   10.00    1.70
  -6   5  -1    8.70    1.70
   6   5   1   10.60    2.20
   6   5   1    8.70    1.70
   7  -5   1    8.80    1.80
   7  -5   1    9.70    2.40
  -7  -5  -1   10.20    2.10
  -7   5  -1    9.30    2.20
   7   5   1    7.40    1.80
   7   5   1    6.20    2.30
   8  -5   1    7.10    2.40
  -8  -5  -1    2.30    1.80
   8   5   1    2.40    2.30
  -8   5  -1    5.20    2.00
  -8  -6   1   16.80    2.80
  -8  -6   1   20.20    3.20
   8  -6  -1   21.30    2.90
   8  -6  -1   17.30    2.90
   8   6  -1   16.70    3.00
   8   6  -1   17.30    2.80
  -8   6   1   13.70    2.80
   7  -6  -1   27.80    3.00
   7  -6  -1   27.70    3.20
  -7  -6   1   24.70    2.80
  -7   6   1   19.40    2.80
   7   6  -1   26.00    2.90
   7   6  -1   24.40    3.30
   6  -6  -1   10.70    2.00
   6  -6  -1   15.20    2.00
  -6  -6   1   14.40    2.00
   6   6  -1    9.20    2.10
   6   6  -1   12.10    1.90
  -6   6   1   10.20    1.90
   5  -6  -1   58.79    3.60
   5  -6  -1   60.99    3.60
  -5  -6   1   57.49    3.40
  -5   6   1   50.99    3.60
   5   6  -1   53.49    3.50
   5   6  -1   51.99    3.90
   4  -6  -1  319.17   14.90
   4  -6  -1  325.77   14.90
  -4  -6   1  326.87   14.70
   4   6  -1  342.37   15.00
   4   6  -1  336.97   15.10
  -4   6   1  341.17   15.00
  -4   6   1  327.07   14.30
   4   6  -1  336.17   14.20
  -3  -6   1  867.71   37.40
  -3  -6   1  850.31   37.80
   3  -6  -1  869.11   37.50
   3  -6  -1  812.12   37.60
   3   6  -1  898.91   37.80
   3   6  -1  915.51   37.20
  -3   6   1  903.71   37.70
  -3   6   1  886.71   37.20
   3   6  -1  860.91   37.70
   2  -6  -1  224.38   10.20
  -2  -6   1  245.48   10.00
   2  -6  -1  244.98   10.10
  -2  -6   1  253.47   10.50
   2   6  -1  220.38   10.20
  -2   6   1  218.18   10.00
   2   6  -1  217.08   10.00
  -2   6   1  212.28   10.20
  -1  -6   1 2226.88   92.09
  -1  -6   1 2271.67   92.29
   1  -6  -1 2327.67   92.39
   1  -6  -1 2160.48   92.39
  -1   6   1 2154.88   92.69
   1   6  -1 2061.39   92.29
   1   6  -1 2086.69   92.39
  -1   6   1 2074.39   92.09
   0  -6  -1  205.68   10.10
   0  -6   1  207.48   10.30
   0  -6  -1  213.28   10.30
   0   6  -1  262.37   10.30
   0   6   1  245.38   10.30
   0   6  -1  255.97   10.30
   0   6  -1  262.17   10.10
   1  -6   1   51.79    2.60
   1   6   1   53.39    2.60
  -1   6  -1   49.50    2.50
   1   6   1   52.09    2.50
   1   6   1   51.39    2.60
  -1   6  -1   46.30    2.40
   2  -6   1  235.08   10.10
   2   6   1  220.48   10.00
  -2   6  -1  233.98    9.90
  -2   6  -1  224.48   10.00
   2   6   1  219.88   10.10
   2   6   1  223.48    9.80
   2   6   1  214.58    9.90
   3  -6   1  188.98    9.20
  -3  -6  -1  194.88    9.00
  -3   6  -1  197.18    9.10
  -3   6  -1  206.88    8.80
   3   6   1  202.98    9.10
   3   6   1  195.38    9.30
   3   6   1  206.88    8.80
   4  -6   1  140.29    6.90
  -4  -6  -1  144.39    6.20
  -4  -6  -1  145.59    6.70
  -4   6  -1  134.99    6.20
  -4   6  -1  130.79    6.70
   4   6   1  127.19    6.90
   4   6   1  132.29    6.70
   5  -6   1  159.38    7.80
  -5  -6  -1  156.78    7.40
   5  -6   1  158.28    7.30
   5   6   1  137.69    7.30
   5   6   1  140.39    7.70
  -5   6  -1  136.99    7.40
  -6  -6  -1   82.79    5.00
   6  -6   1   94.29    5.00
   6  -6   1   79.19    5.20
   6   6   1   85.59    5.50
   6   6   1   88.19    5.10
  -6   6  -1   85.09    5.10
   7  -6   1   10.20    2.40
  -7  -6  -1   12.90    2.20
   7  -6   1    9.70    3.10
  -7   6  -1   10.10    2.10
   7   6   1    8.50    2.50
   7   6   1   10.50    2.10
  -8  -6  -1   -1.30    1.70
   8  -6   1    1.70    2.10
   8   6   1    1.60    2.00
  -8   6  -1   -0.50    1.90
  -8  -7   1   10.10    2.80
   8  -7  -1   11.30    2.40
  -8  -7   1   10.10    2.40
   8  -7  -1   12.20    2.70
   8   7  -1   11.70    2.50
  -8   7   1    9.20    2.40
   7  -7  -1   34.00    3.30
  -7  -7   1   38.20    3.50
   7  -7  -1   38.10    3.60
   7   7  -1   42.40    4.10
  -7   7   1   37.90    3.70
   7   7  -1   38.30    3.50
  -6  -7   1  147.39    7.30
   6  -7  -1  148.09    7.50
   6  -7  -1  145.19    7.60
  -6   7   1  129.79    7.50
   6   7  -1  137.19    7.70
   6   7  -1  144.79    7.50
   5  -7  -1  248.58   11.00
   5  -7  -1  230.28   10.90
  -5  -7   1  234.58   10.70
   5   7  -1  223.68   11.00
   5   7  -1  222.08   11.20
  -5   7   1  226.68   11.00
   4  -7  -1  345.07   15.00
   4  -7  -1  352.26   15.00
  -4  -7   1  358.16   14.80
   4   7  -1  316.37   15.20
   4   7  -1  322.17   14.30
  -4   7   1  320.27   15.00
  -4   7   1  325.57   14.40
   4   7  -1  324.97   15.00
  -3  -7   1   64.49    3.90
   3  -7  -1   58.99    3.50
  -3  -7   1   62.59    3.40
   3  -7  -1   65.89    3.70
  -3   7   1   78.99    3.80
   3   7  -1   78.79    3.80
   3   7  -1   77.09    3.40
  -3   7   1   77.99    3.40
  -2  -7   1   94.29    4.20
   2  -7  -1   88.09    4.50
   2  -7  -1   91.79    4.40
  -2  -7   1   97.99    4.70
   2   7  -1   95.99    4.30
  -2   7   1   95.49    4.40
   2   7  -1   94.09    4.60
  -2   7   1   93.59    4.50
   1  -7  -1  853.01   36.10
  -1  -7   1  801.52   36.10
   1  -7  -1  851.81   35.80
  -1  -7   1  814.12   35.70
  -1  -7   1  800.32   35.70
   1   7  -1  841.92   36.00
  -1   7   1  891.61   36.00
   1   7  -1  846.42   36.10
  -1   7   1  886.51   36.00
   0  -7  -1 1415.06   56.09
   0  -7   1 1377.46   56.29
   0  -7  -1 1359.46   56.19
   0   7  -1 1247.78   55.99
   0   7  -1 1267.17   56.19
   0   7   1 1256.47   56.19
   1  -7   1  365.16   16.40
   1   7   1  366.66   16.50
   1   7   1  390.46   16.50
   1   7   1  381.06   16.30
  -1   7  -1  397.46   16.50
   1   7   1  378.36   16.40
   2  -7   1  377.96   15.90
  -2   7  -1  358.66   15.70
  -2   7  -1  355.56   15.70
   2   7   1  355.26   15.90
   2   7   1  356.96   15.80
  -3  -7  -1  658.23   28.80
   3  -7   1  668.13   29.10
   3   7   1  696.73   29.20
  -3   7  -1  661.33   29.00
   3   7   1  674.53   28.70
   3   7   1  654.53   29.00
  -3   7  -1  664.73   28.70
  -4  -7  -1  159.48    7.50
  -4  -7  -1  160.58    7.90
   4  -7   1  159.68    8.10
   4   7   1  173.68    8.00
   4   7   1  175.48    8.30
  -4   7  -1  173.58    7.60
  -4   7  -1  168.28    8.00
   5  -7   1   84.79    5.10
  -5  -7  -1   87.09    4.80
   5  -7   1   83.49    4.70
   5   7   1   92.69    5.40
  -5   7  -1   84.19    4.90
   5   7   1   96.49    5.00
   6  -7   1    1.90    1.60
  -6  -7  -1    1.40    1.20
   6  -7   1    2.00    1.20
   6   7   1    2.10    1.70
   6   7   1    1.00    1.30
  -6   7  -1    1.00    1.40
  -7  -7  -1    7.10    1.90
   7  -7   1    7.90    2.10
   7   7   1    8.10    2.40
   7   7   1   10.50    2.10
  -7   7  -1    6.90    1.90
  -8  -8   1   20.50    3.30
  -8  -8   1   16.00    2.70
   8  -8  -1   18.70    3.10
   8  -8  -1   18.60    2.90
   8   8  -1   21.80    3.10
  -8   8   1   19.10    3.20
  -7  -8   1   30.70    3.80
   7  -8  -1   30.00    3.10
   7  -8  -1   30.10    3.20
  -7  -8   1   25.90    2.90
  -7   8   1   22.20    3.00
   7   8  -1   28.10    3.10
  -6  -8   1    4.10    1.80
   6  -8  -1    4.40    1.60
   6  -8  -1    5.20    1.40
  -6  -8   1    3.80    1.40
   6   8  -1    5.20    1.60
  -6   8   1    4.10    1.70
   6   8  -1    3.30    1.90
   5  -8  -1   50.69    3.20
  -5  -8   1   47.20    3.50
  -5  -8   1   46.00    3.00
   5  -8  -1   53.39    3.30
   5   8  -1   39.80    3.40
  -5   8   1   43.40    3.30
   5   8  -1   45.30    3.30
  -4  -8   1  234.28   10.60
   4  -8  -1  221.48   10.80
  -4  -8   1  226.38   11.20
   4  -8  -1  213.28   10.80
  -4   8   1  245.18   10.40
   4   8  -1  239.08   10.30
   4   8  -1  251.37   11.00
  -4   8   1  248.68   11.00
  -3  -8   1 1070.39   45.70
   3  -8  -1 1044.10   46.00
   3  -8  -1 1081.69   45.90
  -3  -8   1 1064.79   46.30
   3   8  -1 1067.99   45.70
  -3   8   1 1087.39   46.00
   3   8  -1 1067.89   46.10
  -3   8   1 1087.59   45.70
   2  -8  -1  592.84   24.00
  -2  -8   1  602.54   24.40
  -2  -8   1  572.94   23.80
   2  -8  -1  552.24   24.20
  -2   8   1  539.65   24.00
  -2   8   1  521.95   24.10
   2   8  -1  518.85   24.20
  -1  -8   1 1098.19   44.30
   1  -8  -1 1053.69   43.90
   1  -8  -1 1049.40   44.20
  -1   8   1 1008.40   44.10
   1   8  -1 1010.00   44.20
   1   8  -1 1008.50   44.10
  -1   8   1 1006.60   44.10
   0  -8   1 1823.42   76.89
   0  -8  -1 1822.72   76.89
   0  -8  -1 1886.91   76.69
   0   8   1 1777.12   76.79
   0   8  -1 1782.82   76.79
   0   8   1 1730.33   76.59
   0   8  -1 1842.72   76.79
   0   8  -1 1796.42   76.79
  -1  -8  -1  514.75   23.40
   1  -8   1  514.25   23.30
   1  -8   1  537.85   23.40
   1   8   1  544.25   23.30
   1   8   1  554.64   23.40
   1   8   1  560.24   23.20
  -1   8  -1  520.45   23.20
  -1   8  -1  589.54   23.40
   2  -8   1   11.40    1.20
   2   8   1   12.40    1.20
   2   8   1   10.30    1.30
  -2   8  -1   12.60    1.10
  -2   8  -1   12.50    1.10
  -3  -8  -1  129.79    6.00
   3  -8   1  128.79    6.20
   3   8   1  130.39    6.20
   3   8   1  112.49    6.20
   3   8   1  127.49    5.80
  -3   8  -1  126.89    5.90
  -3   8  -1  130.79    6.10
   4  -8   1  227.78   11.10
  -4  -8  -1  248.88   10.90
   4   8   1  231.68   11.20
  -4   8  -1  237.18   11.00
  -4   8  -1  233.48   10.50
   4   8   1  245.38   11.00
   4   8   1  236.48   10.50
  -5  -8  -1  173.38    8.20
   5  -8   1  180.58    8.30
   5  -8   1  177.58    8.70
  -5   8  -1  162.38    8.40
   5   8   1  158.38    8.60
   5   8   1  165.78    8.40
  -6  -8  -1   87.09    5.00
   6  -8   1   81.59    5.40
   6  -8   1   81.49    4.90
  -6   8  -1   88.19    5.30
   6   8   1   86.09    5.60
   6   8   1   94.79    5.20
   7  -8   1   10.70    2.30
  -7  -8  -1    7.70    1.90
   7   8   1   10.00    2.00
   7   8   1    8.60    2.30
  -7   8  -1    7.20    2.00
  -8  -9   1   13.40    3.10
  -8  -9   1   11.50    3.00
   8  -9  -1   10.90    2.40
   8  -9  -1    9.30    2.60
   8   9  -1    8.50    2.30
  -8   9   1    5.10    2.30
   7  -9  -1   30.70    3.10
  -7  -9   1   31.90    3.80
  -7  -9   1   28.60    3.00
   7  -9  -1   26.90    3.20
  -7   9   1   26.10    3.10
   7   9  -1   27.00    3.10
   6  -9  -1   82.89    4.90
  -6  -9   1   77.39    5.30
  -6  -9   1   77.09    4.50
   6  -9  -1   77.39    4.70
  -6   9   1   64.19    4.70
   6   9  -1   73.69    4.80
  -5  -9   1   98.29    5.80
   5  -9  -1  102.49    5.50
  -5  -9   1  100.59    5.20
   5  -9  -1   98.09    5.40
  -5   9   1  102.39    5.70
   5   9  -1  101.29    5.60
   4  -9  -1  272.17   12.20
  -4  -9   1  265.97   12.60
   4  -9  -1  279.37   12.30
  -4  -9   1  274.97   12.00
   4   9  -1  255.77   12.30
  -4   9   1  269.77   11.70
  -4   9   1  257.17   12.30
   4   9  -1  256.77   11.70
   3  -9  -1  300.17   13.70
  -3  -9   1  306.67   14.10
   3  -9  -1  317.97   13.90
  -3  -9   1  304.67   13.50
  -3   9   1  314.17   13.90
  -3   9   1  311.77   13.60
   3   9  -1  309.07   13.90
   3   9  -1  311.17   13.50
  -2  -9   1  191.88    8.90
   2  -9  -1  189.08    8.70
   2  -9  -1  198.08    8.50
  -2  -9   1  193.88    8.30
  -2   9   1  193.08    8.60
  -2   9   1  183.08    8.70
   2   9  -1  188.88    8.80
   1  -9  -1  196.58    8.90
  -1  -9   1  209.58    9.30
   1  -9  -1  192.68    9.20
  -1   9   1  204.38    9.10
   1   9  -1  209.98    9.10
   1   9  -1  210.98    9.20
  -1   9   1  210.18    9.20
   0  -9  -1  894.01   35.90
   0  -9   1  919.11   36.10
   0   9  -1  834.92   35.70
   0   9  -1  808.42   36.00
   0   9  -1  782.92   36.00
   0   9   1  815.32   35.80
   0   9   1  831.72   36.00
   1  -9   1 1056.79   45.70
  -1  -9  -1 1057.29   45.60
   1  -9   1 1073.69   45.60
   1   9   1 1088.99   45.40
   1   9   1 1040.40   45.60
  -1   9  -1 1079.49   45.50
  -1   9  -1 1106.99   45.60
   1   9   1 1036.60   45.70
   2  -9   1  942.81   38.50
   2  -9   1  879.91   38.30
   2   9   1  866.41   38.30
  -2   9  -1  904.01   38.30
   2   9   1  884.41   38.50
   2   9   1  910.11   38.50
   2   9   1  866.71   38.20
  -2   9  -1  901.11   38.30
   3  -9   1  192.88    9.10
  -3  -9  -1  201.48    8.90
   3  -9   1  169.28    8.80
  -3   9  -1  196.78    8.80
   3   9   1  197.98    9.10
   3   9   1  206.58    9.30
   3   9   1  202.08    8.80
  -3   9  -1  198.68    9.10
   4  -9   1  240.08   11.80
  -4  -9  -1  257.77   11.80
   4  -9   1  261.77   12.20
   4   9   1  268.67   11.60
  -4   9  -1  256.47   12.00
   4   9   1  268.97   12.30
  -4   9  -1  266.67   11.60
   4   9   1  267.67   12.10
   5  -9   1   68.79    4.20
  -5  -9  -1   70.79    3.90
   5  -9   1   60.09    3.90
   5   9   1   64.09    4.10
  -5   9  -1   65.39    4.20
   5   9   1   69.49    4.40
   6  -9   1    2.30    1.50
   6  -9   1    2.40    1.30
  -6  -9  -1    2.40    1.30
   6   9   1    1.10    1.50
  -6   9  -1    1.40    1.40
   6   9   1    2.10    1.30
   7  -9   1    8.50    2.20
  -7  -9  -1    9.80    2.10
   7   9   1    5.70    2.10
  -7   9  -1    5.70    1.90
   7   9   1    8.80    2.00
   8 -10  -1   27.70    3.70
  -8 -10   1   28.10    4.00
   8 -10  -1   34.40    3.70
  -8  10   1   30.50    3.90
   8  10  -1   32.80    3.70
   7 -10  -1   41.30    3.50
  -7 -10   1   35.80    4.20
   7 -10  -1   41.10    3.90
  -7 -10   1   41.40    3.40
  -7  10   1   41.50    4.00
   7  10  -1   40.50    3.70
  -6 -10   1    5.30    1.50
   6 -10  -1    6.50    1.70
   6 -10  -1    6.30    1.60
  -6 -10   1    4.90    1.80
  -6  10   1    5.30    1.70
   6  10  -1    5.00    1.50
  -5 -10   1   59.89    4.10
   5 -10  -1   63.09    3.70
  -5 -10   1   56.79    3.30
   5 -10  -1   57.09    3.60
   5  10  -1   46.80    3.50
  -5  10   1   50.59    3.60
   4 -10  -1   45.60    3.00
   4 -10  -1   44.10    3.10
  -4 -10   1   48.60    2.80
  -4 -10   1   49.20    3.50
  -4  10   1   48.40    3.30
   4  10  -1   51.99    2.60
  -4  10   1   48.40    2.60
   4  10  -1   49.70    3.20
  -3 -10   1  362.86   16.60
  -3 -10   1  372.86   16.00
   3 -10  -1  356.26   16.40
   3 -10  -1  371.26   16.20
   3  10  -1  361.36   16.40
  -3  10   1  374.36   16.10
  -3  10   1  364.76   16.40
   3  10  -1  377.26   16.10
  -2 -10   1 1463.45   62.79
   2 -10  -1 1500.25   62.99
   2 -10  -1 1401.96   63.29
  -2 -10   1 1511.05   63.49
  -2  10   1 1513.35   63.09
   2  10  -1 1491.25   63.29
  -2  10   1 1484.55   63.19
   2  10  -1 1485.05   63.09
  -1 -10   1 1255.07   51.19
   1 -10  -1 1248.18   50.79
   1 -10  -1 1232.88   51.09
   1  10  -1 1123.49   50.99
  -1  10   1 1157.38   50.99
   1  10  -1 1148.59   50.99
   0 -10   1 1853.71   81.79
   0 -10  -1 1848.22   81.59
   0 -10  -1 1862.11   81.79
   0 -10   1 1869.11   81.79
   0  10   1 1954.00   81.79
   0  10  -1 2018.80   81.79
   0  10   1 1947.11   81.79
   0  10  -1 1960.00   81.59
   0  10  -1 1994.60   81.79
  -1 -10  -1 1013.70   44.80
   1 -10   1  971.30   44.80
   1 -10   1  997.10   44.80
   1  10   1 1071.79   44.90
  -1  10  -1 1089.49   44.80
  -1  10  -1 1070.89   44.60
   1  10   1 1099.59   44.60
   1  10   1 1064.29   44.80
   2 -10   1   38.90    2.30
  -2 -10  -1   44.10    2.60
   2 -10   1   39.90    2.40
  -2  10  -1   37.30    2.30
   2  10   1   39.80    2.10
   2  10   1   44.00    2.60
  -2  10  -1   36.60    2.30
   2  10   1   39.30    2.20
   2  10   1   39.10    2.40
   3 -10   1   30.00    2.00
   3 -10   1   28.30    2.20
  -3 -10  -1   32.30    1.90
   3  10   1   29.10    2.20
   3  10   1   27.90    2.40
  -3  10  -1   27.90    2.10
   3  10   1   29.90    1.90
  -3  10  -1   28.10    1.90
   4 -10   1  188.78    8.60
  -4 -10  -1  185.08    8.50
   4 -10   1  178.18    8.90
  -4  10  -1  182.68    8.40
   4  10   1  182.28    8.80
   4  10   1  180.48    9.00
   4  10   1  187.18    8.30
  -4  10  -1  176.68    8.80
   5 -10   1   91.39    5.30
   5 -10   1   99.89    5.00
  -5 -10  -1   88.39    4.80
  -5  10  -1   81.59    5.10
   5  10   1   87.09    5.50
   5  10   1   89.69    5.10
   6 -10   1   63.89    4.00
  -6 -10  -1   63.29    4.00
   6 -10   1   62.89    4.50
   6  10   1   64.49    4.30
  -6  10  -1   59.19    4.30
   6  10   1   64.39    4.80
   7 -10   1    8.00    2.20
  -7 -10  -1    7.10    1.90
  -7  10  -1   10.00    2.20
   7  10   1    9.80    2.10
   7  10   1    7.40    2.40
   7 -11  -1   24.90    2.90
  -7 -11   1   23.80    3.50
   7 -11  -1   27.50    3.20
  -7  11   1   24.60    3.30
   7  11  -1   21.30    2.90
   6 -11  -1   31.00    2.80
  -6 -11   1   32.20    3.50
   6 -11  -1   27.80    2.70
  -6 -11   1   24.50    2.40
   6  11  -1   24.40    2.90
  -6  11   1   21.30    2.70
   5 -11  -1   75.19    4.30
  -5 -11   1   66.59    4.70
   5 -11  -1   64.89    4.10
  -5 -11   1   65.89    3.80
  -5  11   1   71.39    4.40
   5  11  -1   64.39    4.20
  -4 -11   1   60.49    3.90
   4 -11  -1   64.99    3.50
   4 -11  -1   62.69    3.60
  -4 -11   1   63.79    3.20
  -4  11   1   55.29    3.70
   4  11  -1   56.39    3.10
   4  11  -1   55.29    3.60
  -4  11   1   54.79    3.10
  -3 -11   1   75.49    4.40
   3 -11  -1   73.59    3.90
  -3 -11   1   71.19    3.60
   3 -11  -1   78.59    4.10
   3  11  -1   74.19    3.80
  -3  11   1   81.09    4.20
  -3  11   1   77.59    3.80
   3  11  -1   76.29    4.20
   2 -11  -1  358.56   15.50
  -2 -11   1  359.86   16.00
   2 -11  -1  357.86   15.80
  -2 -11   1  349.37   15.30
   2  11  -1  349.17   15.60
   2  11  -1  356.66   15.90
  -2  11   1  358.96   15.70
  -2  11   1  365.36   15.70
   1 -11  -1   77.79    4.20
   1 -11  -1   84.39    3.90
  -1 -11   1   77.49    4.30
  -1  11   1   93.19    4.20
   1  11  -1   88.59    4.20
   1  11  -1   84.69    4.20
   0 -11   1  800.12   33.10
   0 -11  -1  834.42   32.90
   0 -11  -1  811.12   33.10
   0 -11   1  791.42   33.10
   0  11   1  726.23   32.70
   0  11   1  732.33   33.00
   0  11  -1  711.73   33.00
   0  11  -1  736.83   32.60
   1 -11   1  367.26   15.00
   1 -11   1  365.36   15.00
  -1 -11  -1  362.76   14.90
   1  11   1  328.07   14.90
  -1  11  -1  323.87   14.70
   1  11   1  323.07   15.00
   1  11   1  321.07   14.60
  -1  11  -1  321.57   14.90
   2 -11   1  337.37   15.80
  -2 -11  -1  338.97   15.90
   2 -11   1  327.37   15.70
   2  11   1  366.46   15.90
  -2  11  -1  377.66   15.80
   2  11   1  369.96   15.60
   2  11   1  369.26   15.70
  -2  11  -1  380.46   15.80
   3 -11   1  347.77   15.40
  -3 -11  -1  353.26   15.20
   3 -11   1  335.67   15.50
   3  11   1  342.77   15.60
  -3  11  -1  345.87   15.30
   3  11   1  348.97   15.60
   3  11   1  345.17   15.20
  -3  11  -1  348.37   15.40
   4 -11   1  308.67   14.80
  -4 -11  -1  314.17   14.40
   4 -11   1  323.57   14.60
   4  11   1  331.77   14.30
   4  11   1  333.07   14.80
  -4  11  -1  328.17   14.30
   4  11   1  334.47   15.00
  -4  11  -1  308.97   14.70
   5 -11   1   79.79    4.70
  -5 -11  -1   88.29    4.70
   5 -11   1   83.19    5.00
   5  11   1   88.39    5.40
  -5  11  -1   84.59    5.00
   5  11   1   88.29    5.00
  -6 -11  -1    7.90    1.60
   6 -11   1    8.90    1.80
   6 -11   1    8.30    2.00
   6  11   1    7.50    2.20
  -6  11  -1    7.20    1.80
   6  11   1   11.70    2.00
   7 -11   1    5.90    2.10
  -7 -11  -1    9.60    2.00
   7  11   1   11.10    2.20
  -7  11  -1    5.80    2.20
   7  11   1    8.70    2.70
  -7 -12   1   24.20    3.60
   7 -12  -1   23.60    2.90
   7 -12  -1   26.20    3.20
  -7  12   1   21.90    3.20
   7  12  -1   26.50    3.20
  -6 -12   1    8.30    1.60
  -6 -12   1    7.50    2.20
   6 -12  -1    6.00    1.70
   6 -12  -1    5.90    1.70
  -6  12   1    5.90    2.00
   6  12  -1    8.20    1.80
  -5 -12   1   16.90    1.70
   5 -12  -1   15.40    1.90
  -5 -12   1   15.30    2.40
   5 -12  -1   14.80    2.00
  -5  12   1   12.60    1.90
   5  12  -1    8.60    1.70
  -4 -12   1  165.98    7.70
   4 -12  -1  150.48    8.00
  -4 -12   1  161.68    8.50
   4 -12  -1  158.18    7.90
   4  12  -1  168.68    8.20
   4  12  -1  172.58    7.70
  -4  12   1  179.48    8.30
  -4  12   1  173.78    7.70
  -3 -12   1  227.28   10.10
   3 -12  -1  211.08   10.60
  -3 -12   1  222.58   10.90
   3 -12  -1  221.88   10.40
   3  12  -1  240.68   10.40
   3  12  -1  242.68   10.80
  -3  12   1  239.88   10.40
  -3  12   1  239.08   10.70
   2 -12  -1  454.95   19.80
  -2 -12   1  449.06   19.60
  -2 -12   1  475.65   20.40
   2 -12  -1  447.86   20.20
  -2  12   1  463.25   20.00
  -2  12   1  448.76   20.00
   2  12  -1  471.35   20.20
   2  12  -1  456.85   20.00
   1 -12  -1 1853.61   77.39
   1 -12  -1 1873.11   77.79
  -1 -12   1 1879.81   77.79
   1  12  -1 1846.72   77.69
   1  12  -1 1723.63   77.69
  -1  12   1 1760.02   77.59
   0 -12  -1  913.11   40.50
   0 -12   1  926.41   40.50
   0 -12   1  941.51   40.50
   0 -12  -1  954.40   40.30
   0  12  -1  931.01   40.00
   0  12  -1  957.80   40.50
   0  12   1  967.60   40.50
   0  12   1  951.10   40.20
  -1 -12  -1   15.60    1.40
   1 -12   1   13.70    1.30
   1 -12   1   13.90    1.50
  -1  12  -1   12.00    1.30
   1  12   1   14.40    1.40
   1  12   1   15.20    1.30
   1  12   1   15.50    1.00
  -2 -12  -1    9.30    1.40
   2 -12   1    7.00    1.10
   2 -12   1    9.80    1.20
   2  12   1    8.80    0.90
  -2  12  -1    9.20    1.20
   2  12   1    9.20    1.20
  -2  12  -1   10.90    1.20
   2  12   1    8.80    1.10
   3 -12   1   50.19    2.90
  -3 -12  -1   52.49    2.70
   3 -12   1   48.70    3.00
  -3 -12  -1   53.39    3.30
  -3  12  -1   45.60    2.90
  -3  12  -1   43.20    2.80
   3  12   1   42.70    3.00
   4 -12   1   56.49    3.50
   4 -12   1   60.39    3.30
  -4 -12  -1   55.09    3.00
  -4  12  -1   50.79    3.00
   4  12   1   43.70    3.40
  -4  12  -1   50.29    3.40
   4  12   1   47.40    2.90
   4  12   1   45.90    3.30
   5 -12   1   40.10    3.30
   5 -12   1   46.10    3.10
  -5 -12  -1   43.00    2.90
   5  12   1   41.10    3.70
  -5  12  -1   43.70    3.30
   5  12   1   42.30    3.30
   6 -12   1   55.59    4.20
   6 -12   1   54.49    3.80
  -6 -12  -1   57.79    3.70
   6  12   1   55.19    4.00
   6  12   1   54.79    4.40
  -6  12  -1   53.69    4.20
  -7 -12  -1    4.60    1.80
   7 -12   1    6.10    2.20
  -7 -12  -1    7.40    2.40
  -7  12  -1    3.70    2.10
   7  12   1    3.80    1.80
   7  12   1    5.10    2.40
  -7 -13   1   18.00    3.30
   7 -13  -1   16.70    2.60
   7 -13  -1   22.90    3.00
  -7  13   1   13.60    2.60
   7  13  -1   17.00    2.80
   6 -13  -1   34.90    3.00
  -6 -13   1   34.40    3.60
   6 -13  -1   38.40    3.20
   6  13  -1   30.90    3.20
  -6  13   1   27.20    3.10
  -5 -13   1   96.99    5.90
   5 -13  -1   99.19    5.50
   5 -13  -1   98.99    5.40
  -5 -13   1   96.39    5.10
  -5  13   1   95.49    5.60
   5  13  -1  105.89    5.80
  -4 -13   1   56.49    3.90
   4 -13  -1   64.29    3.60
  -4 -13   1   60.59    2.90
   4 -13  -1   59.79    3.30
   4  13  -1   45.00    2.90
  -4  13   1   45.70    3.50
  -4  13   1   46.10    2.90
   4  13  -1   45.20    3.30
  -3 -13   1   76.69    3.60
  -3 -13   1   71.19    4.50
   3 -13  -1   84.39    4.30
   3 -13  -1   77.89    4.00
   3  13  -1   76.29    4.30
  -3  13   1   75.59    4.00
  -3  13   1   70.89    4.10
  -2 -13   1  496.15   21.50
   2 -13  -1  492.85   21.80
  -2 -13   1  500.45   22.30
   2 -13  -1  516.65   22.20
  -2  13   1  513.55   22.00
  -2  13   1  497.45   22.00
   2  13  -1  495.35   22.20
   2  13  -1  517.45   22.00
   1 -13  -1   78.99    3.90
   1 -13  -1   72.79    3.50
  -1 -13   1   75.99    4.00
  -1  13   1   65.29    3.50
   1  13  -1   67.19    3.80
  -1  13   1   73.29    3.80
   1  13  -1   70.39    3.80
   0 -13  -1  218.48    9.10
   0 -13   1  217.28    9.40
   0 -13  -1  207.38    9.30
   0 -13   1  223.38    9.40
   0  13  -1  191.38    8.80
   0  13   1  187.78    8.90
   0  13  -1  195.38    9.30
   0  13   1  184.58    9.20
  -1 -13  -1 1358.36   57.09
   1 -13   1 1348.67   57.09
   1 -13   1 1369.46   57.09
   1  13   1 1341.17   57.19
  -1  13  -1 1318.27   57.09
  -1  13  -1 1339.07   56.79
   1  13   1 1302.87   56.69
   1  13   1 1297.57   57.09
   2 -13   1  361.66   15.80
  -2 -13  -1  351.86   15.90
   2 -13   1  360.16   15.70
   2  13   1  351.46   15.90
  -2  13  -1  360.06   15.80
   2  13   1  350.56   15.40
   2  13   1  346.77   15.70
   3 -13   1   79.59    4.50
  -3 -13  -1   84.79    4.30
   3 -13   1   82.29    4.60
  -3 -13  -1   84.49    4.80
  -3  13  -1   95.09    4.60
  -3  13  -1   92.79    4.50
   3  13   1   87.89    4.70
   4 -13   1   44.90    3.20
   4 -13   1   39.40    3.00
  -4 -13  -1   42.20    3.40
  -4 -13  -1   42.00    2.80
   4  13   1   53.39    3.40
  -4  13  -1   55.79    3.00
  -4  13  -1   55.99    3.40
   4  13   1   55.89    2.90
   5 -13   1   71.59    4.60
  -5 -13  -1   76.09    4.90
   5 -13   1   69.79    4.30
  -5 -13  -1   72.09    4.20
   5  13   1   79.79    4.90
   5  13   1   73.69    4.60
  -5  13  -1   79.59    4.70
  -6 -13  -1    8.80    1.70
  -6 -13  -1   12.80    2.60
   6 -13   1    7.80    2.00
   6 -13   1   10.30    1.90
   6  13   1    8.90    2.00
  -6  13  -1    9.50    2.00
   6  13   1    8.20    2.40
   7 -13   1    2.30    1.90
  -7 -13  -1    6.20    2.10
  -7  13  -1    2.60    1.80
   7  13   1    4.90    2.00
  -7 -14   1   15.80    3.20
   7 -14  -1   18.30    2.70
   7  14  -1   17.10    2.80
  -7  14   1   15.60    2.80
  -6 -14   1    4.80    2.10
   6 -14  -1    3.60    1.60
   6 -14  -1    4.30    1.60
   6  14  -1    5.00    1.70
  -6  14   1    4.10    1.90
   5 -14  -1    6.50    1.50
  -5 -14   1    4.60    1.80
   5 -14  -1    8.90    1.70
  -5  14   1    6.50    1.80
   5  14  -1    7.00    1.80
  -4 -14   1   57.19    3.90
   4 -14  -1   53.69    3.50
   4 -14  -1   54.09    3.20
  -4 -14   1   52.49    2.90
  -4  14   1   45.00    3.50
  -4  14   1   49.90    3.00
   4  14  -1   53.79    3.00
   4  14  -1   51.29    3.50
  -3 -14   1  329.07   13.70
  -3 -14   1  323.57   14.60
   3 -14  -1  325.07   14.00
   3 -14  -1  327.97   14.40
  -3  14   1  290.67   14.20
   3  14  -1  301.07   14.30
  -3  14   1  302.07   14.00
  -2 -14   1  813.82   34.90
   2 -14  -1  805.32   34.40
   2 -14  -1  806.42   34.70
  -2 -14   1  784.72   34.00
  -2  14   1  818.02   34.60
  -2  14   1  794.82   34.50
   2  14  -1  790.82   34.60
   2  14  -1  791.72   34.80
   1 -14  -1 1100.39   47.10
   1 -14  -1 1070.99   46.70
  -1 -14   1 1092.19   47.10
  -1  14   1 1105.19   47.00
   1  14  -1 1106.19   47.00
   1  14  -1 1085.19   47.10
  -1  14   1 1097.19   46.70
   0 -14  -1  560.04   23.40
   0 -14   1  539.95   23.60
   0 -14   1  562.84   23.60
   0 -14  -1  539.15   23.60
   0  14   1  532.75   23.20
   0  14  -1  533.25   23.00
   0  14  -1  531.35   23.60
   0  14   1  518.75   23.50
   1 -14   1   62.39    3.50
  -1 -14  -1   68.09    3.60
   1 -14   1   58.19    3.50
  -1  14  -1   64.09    3.60
   1  14   1   65.49    3.60
   1  14   1   68.59    3.10
   1  14   1   71.09    3.70
  -1  14  -1   64.99    3.30
  -2 -14  -1   63.59    3.70
   2 -14   1   66.79    3.50
   2 -14   1   64.79    3.50
  -2  14  -1   63.49    3.50
   2  14   1   62.99    3.10
   2  14   1   63.19    3.60
   2  14   1   61.69    3.40
  -2  14  -1   51.19    3.20
   3 -14   1   -0.10    0.80
  -3 -14  -1    0.40    0.60
   3 -14   1    0.40    0.80
  -3 -14  -1    0.80    1.10
  -3  14  -1    1.30    1.00
  -3  14  -1    1.00    0.80
   3  14   1    1.20    0.80
   3  14   1    1.60    1.00
   4 -14   1  118.69    6.40
   4 -14   1  135.89    6.30
  -4 -14  -1  118.29    6.70
  -4 -14  -1  123.09    6.00
   4  14   1  121.29    6.00
  -4  14  -1  121.99    6.40
  -4  14  -1  120.19    6.00
   4  14   1  118.19    6.40
  -5 -14  -1   77.49    4.50
   5 -14   1   80.89    5.00
   5 -14   1   85.69    4.80
  -5 -14  -1   79.59    5.40
  -5  14  -1   88.49    5.10
   5  14   1   82.19    5.00
   6 -14   1   44.00    3.70
   6 -14   1   43.40    3.40
  -6 -14  -1   43.50    4.20
   6  14   1   42.30    3.70
  -6  14  -1   38.60    3.50
   7 -14   1   11.30    2.50
  -7 -14  -1   11.60    2.80
  -7  14  -1   11.60    2.60
   7  14   1   14.90    2.60
  -7 -15   1   13.30    3.20
   7 -15  -1   14.80    2.60
   7  15  -1   13.40    2.50
  -7  15   1   12.00    2.80
   6 -15  -1   44.20    3.50
   6 -15  -1   39.00    4.10
  -6 -15   1   34.30    3.70
   6  15  -1   34.00    3.20
  -6  15   1   29.40    3.30
  -5 -15   1  161.28    8.80
   5 -15  -1  156.08    8.00
   5 -15  -1  170.38    8.30
  -5  15   1  156.38    8.30
   5  15  -1  157.88    8.30
   4 -15  -1   79.69    4.30
   4 -15  -1   81.29    4.60
  -4 -15   1   75.49    5.00
   4  15  -1   78.89    4.20
  -4  15   1   79.19    4.20
  -4  15   1   80.69    4.60
   4  15  -1   76.49    4.60
  -3 -15   1  113.49    6.40
   3 -15  -1  110.39    5.80
   3 -15  -1  109.99    6.10
  -3 -15   1  111.59    5.50
  -3  15   1  132.19    6.00
  -3  15   1  129.49    6.20
   3  15  -1  124.79    6.20
   3  15  -1  123.79    5.90
  -2 -15   1   89.39    4.90
   2 -15  -1   82.79    4.70
   2 -15  -1   82.19    4.20
   2  15  -1   88.19    4.50
   2  15  -1   92.09    4.80
  -2  15   1   86.19    4.50
  -2  15   1   88.99    4.60
   1 -15  -1  231.48   10.20
   1 -15  -1  228.88   10.60
  -1 -15   1  240.28   10.70
  -1  15   1  219.78   10.20
   1  15  -1  225.58   10.50
  -1  15   1  222.08   10.40
   1  15  -1  228.98   10.50
   0 -15   1  146.99    6.50
   0 -15  -1  137.29    6.30
   0 -15  -1  136.79    6.50
   0 -15   1  134.79    6.40
   0  15  -1  126.19    6.40
   0  15  -1  125.89    5.80
   0  15   1  128.39    6.40
   0  15   1  125.29    6.00
   1 -15   1  680.43   29.60
  -1 -15  -1  666.53   29.60
   1 -15   1  686.23   29.70
  -1 -15  -1  680.03   29.80
   1  15   1  683.93   29.20
  -1  15  -1  677.63   29.70
   1  15   1  686.33   29.80
  -1  15  -1  692.23   29.30
   1  15   1  687.93   29.60
   2 -15   1  300.37   13.60
  -2 -15  -1  307.07   13.70
   2 -15   1  304.07   13.60
   2  15   1  289.37   13.70
   2  15   1  305.57   13.20
   2  15   1  298.27   13.50
  -2  15  -1  313.37   13.40
  -2  15  -1  291.67   13.60
   3 -15   1   65.29    4.00
  -3 -15  -1   71.69    4.40
   3 -15   1   65.19    4.10
  -3 -15  -1   67.19    3.60
  -3  15  -1   78.59    4.10
   3  15   1   80.99    4.30
  -3  15  -1   79.99    4.10
   3  15   1   73.89    3.90
   4 -15   1  133.59    7.50
   4 -15   1  136.59    7.30
  -4 -15  -1  141.49    7.90
  -4 -15  -1  144.19    7.10
  -4  15  -1  161.08    7.60
   4  15   1  150.38    7.70
  -4  15  -1  159.68    7.30
   4  15   1  166.78    7.20
  -5 -15  -1   30.40    2.50
   5 -15   1   25.10    2.70
  -5 -15  -1   31.20    3.40
   5 -15   1   33.30    3.00
   5  15   1   34.00    3.10
  -5  15  -1   30.80    2.80
   6 -15   1    8.80    2.00
   6 -15   1   11.20    2.00
  -6 -15  -1   10.30    2.40
  -6  15  -1    6.10    2.00
   6  15   1    8.50    1.90
  -7 -15  -1   10.40    2.80
   7 -15   1    9.20    2.30
   7  15   1    6.90    2.20
  -7  15  -1    5.20    2.30
  -7 -16   1   18.80    3.50
   7 -16  -1   20.50    2.90
   7  16  -1   21.50    3.10
  -7  16   1   19.70    3.30
   6 -16  -1    9.50    2.00
  -6 -16   1    8.40    2.50
   6  16  -1    8.80    2.00
  -6  16   1    6.90    2.20
   5 -16  -1    5.40    1.60
   5 -16  -1    6.10    1.50
  -5 -16   1    6.90    2.10
   5  16  -1    7.40    1.90
  -5  16   1    5.10    1.90
   4 -16  -1   42.30    2.70
   4 -16  -1   41.50    3.00
  -4 -16   1   41.60    3.50
  -4  16   1   34.10    3.10
  -4  16   1   36.30    2.60
   4  16  -1   35.20    2.50
   4  16  -1   33.70    3.00
   3 -16  -1  100.49    4.60
  -3 -16   1  103.19    5.40
   3 -16  -1  105.49    5.10
  -3  16   1   82.79    4.60
  -3  16   1   82.49    4.80
   3  16  -1   75.19    4.50
   3  16  -1   77.19    4.90
   2 -16  -1  588.84   26.90
   2 -16  -1  609.34   26.50
  -2 -16   1  615.54   27.10
  -2  16   1  625.34   26.80
   2  16  -1  630.04   26.80
   2  16  -1  614.64   27.00
   1 -16  -1  335.07   15.10
  -1 -16   1  342.47   15.50
   1 -16  -1  338.57   15.50
   1  16  -1  356.06   15.40
  -1  16   1  344.37   15.10
   1  16  -1  338.97   15.50
  -1  16   1  345.97   15.40
   0 -16  -1  199.88    9.90
   0 -16   1  200.78    9.80
   0 -16  -1  204.38    9.60
   0 -16   1  192.78    9.80
   0  16   1  225.48    9.40
   0  16  -1  220.18    9.20
   0  16  -1  225.18    9.90
   0  16   1  222.88    9.80
   1 -16   1  124.89    6.50
   1 -16   1  125.69    6.60
  -1 -16  -1  126.59    6.50
  -1 -16  -1  123.49    6.60
  -1  16  -1  135.19    6.20
   1  16   1  148.59    6.60
  -1  16  -1  141.19    6.60
   1  16   1  148.79    6.10
   2 -16   1   11.10    1.50
   2 -16   1   13.50    1.60
  -2 -16  -1   14.90    1.80
  -2  16  -1   10.70    1.40
   2  16   1   12.40    1.10
   2  16   1   13.10    1.70
  -2  16  -1   13.00    1.40
   2  16   1   11.40    1.50
   3 -16   1   25.90    2.10
  -3 -16  -1   22.60    2.40
  -3 -16  -1   25.60    1.70
   3 -16   1   24.20    2.20
  -3  16  -1   21.60    2.10
   3  16   1   21.80    2.00
   3  16   1   22.30    2.20
  -3  16  -1   21.40    2.00
   4 -16   1  195.18    9.70
  -4 -16  -1  196.58    9.20
   4 -16   1  211.48    9.60
  -4 -16  -1  199.98   10.10
  -4  16  -1  195.78    9.60
  -4  16  -1  191.68    9.30
   4  16   1  207.68    9.80
   4  16   1  190.58    9.20
   5 -16   1  148.79    7.50
  -5 -16  -1  140.19    8.10
   5 -16   1  132.69    7.60
   5  16   1  149.59    7.80
  -5  16  -1  151.58    7.70
  -6 -16  -1   41.30    4.20
   6 -16   1   41.50    3.40
   6 -16   1   39.10    3.70
  -6  16  -1   39.10    3.70
   6  16   1   40.70    3.70
   7 -16   1    8.30    2.30
  -7 -16  -1    7.40    2.50
  -7  16  -1   13.30    2.80
   7  16   1   15.90    2.80
  -7 -17   1   12.90    3.10
   7 -17  -1   12.50    2.50
  -7  17   1   10.10    2.60
   7  17  -1   19.20    3.00
   6 -17  -1   30.40    3.20
  -6 -17   1   33.40    4.00
  -6  17   1   27.20    3.30
   6  17  -1   33.20    3.20
  -5 -17   1  111.69    6.90
   5 -17  -1  121.79    6.70
  -5  17   1  119.29    6.80
   5  17  -1  124.19    6.80
   4 -17  -1  125.69    6.60
  -4 -17   1  127.09    7.40
   4 -17  -1  138.49    7.10
  -4  17   1  135.19    7.00
   4  17  -1  132.69    7.10
   4  17  -1  137.29    6.60
  -4  17   1  136.99    6.70
   3 -17  -1  182.28    9.10
  -3 -17   1  200.08    9.90
   3 -17  -1  192.88    9.60
  -3  17   1  201.58    9.40
   3  17  -1  198.98    9.60
  -3  17   1  200.48    9.30
   3  17  -1  209.68    9.30
   2 -17  -1  164.88    8.00
   2 -17  -1  158.18    7.60
  -2 -17   1  161.78    8.30
   2  17  -1  168.78    7.90
  -2  17   1  167.78    8.00
   2  17  -1  165.48    8.10
  -1 -17   1   75.39    4.40
   1 -17  -1   74.09    4.20
   1 -17  -1   74.69    3.80
  -1  17   1   70.99    3.70
   1  17  -1   75.09    4.20
  -1  17   1   73.39    4.20
   1  17  -1   76.09    4.10
   0 -17   1   41.90    2.70
   0 -17   1   36.50    2.70
   0 -17  -1   36.20    2.50
   0 -17  -1   39.10    2.60
   0  17  -1   37.00    1.90
   0  17   1   39.50    2.60
   0  17   1   36.60    2.10
   0  17  -1   37.70    2.60
   1 -17   1  316.37   13.90
  -1 -17  -1  306.47   14.00
  -1 -17  -1  315.27   13.90
   1 -17   1  304.07   13.80
  -1  17  -1  303.27   13.40
  -1  17  -1  291.27   13.90
   1  17   1  300.77   13.90
   1  17   1  310.47   13.30
   2 -17   1  271.57   12.50
  -2 -17  -1  268.87   12.60
   2 -17   1  281.07   12.50
  -2  17  -1  271.67   12.50
   2  17   1  266.87   11.90
   2  17   1  268.97   12.40
  -2  17  -1  282.87   12.30
   2  17   1  261.17   12.60
   3 -17   1  161.68    8.20
  -3 -17  -1  163.18    8.50
   3 -17   1  158.08    8.20
  -3 -17  -1  162.88    7.70
  -3  17  -1  174.68    8.20
  -3  17  -1  181.58    8.20
   3  17   1  173.18    8.10
   3  17   1  178.28    8.50
   4 -17   1  218.48   11.00
   4 -17   1  224.28   11.10
  -4 -17  -1  231.18   11.50
   4  17   1  240.08   11.30
  -4  17  -1  237.48   11.10
  -4  17  -1  234.08   10.90
   4  17   1  240.98   10.80
  -5 -17  -1   27.20    3.10
   5 -17   1   26.70    2.90
   5 -17   1   27.30    2.70
  -5  17  -1   25.40    2.90
   5  17   1   27.10    2.90
   6 -17   1    8.90    2.10
  -6 -17  -1   12.50    2.80
   6  17   1   10.50    2.20
  -6  17  -1    6.50    2.20
  -7 -18   1    8.90    2.70
   7 -18  -1   14.20    2.60
  -7  18   1    8.70    2.80
   7  18  -1   15.00    2.90
   6 -18  -1   19.80    2.70
  -6 -18   1   17.50    3.00
  -6  18   1   15.70    2.60
   6  18  -1   15.20    2.50
  -5 -18   1   15.10    2.80
   5 -18  -1    8.10    1.90
  -5  18   1   11.70    2.30
   5  18  -1   10.40    2.10
  -4 -18   1   88.49    5.40
   4 -18  -1   85.89    4.90
  -4  18   1   77.49    4.90
  -4  18   1   74.79    4.50
   4  18  -1   77.89    4.40
   4  18  -1   82.39    5.00
   3 -18  -1  133.89    6.60
   3 -18  -1  132.49    6.20
  -3 -18   1  136.29    7.00
   3  18  -1  114.89    6.60
  -3  18   1  115.39    6.30
  -3  18   1  120.39    6.40
   3  18  -1  122.39    6.30
   2 -18  -1  468.25   21.20
  -2 -18   1  471.65   21.80
   2 -18  -1  454.55   21.60
   2  18  -1  512.65   21.60
   2  18  -1  495.95   21.80
  -2  18   1  498.05   21.40
  -2  18   1  504.75   21.60
  -1 -18   1  446.86   21.10
   1 -18  -1  469.25   21.20
   1 -18  -1  455.65   20.70
   1  18  -1  475.95   21.00
  -1  18   1  496.15   21.10
  -1  18   1  503.45   20.70
   1  18  -1  474.75   21.10
   0 -18  -1  116.29    6.20
   0 -18  -1  118.19    6.00
   0 -18   1  117.79    6.20
   0 -18   1  111.39    6.10
   0  18   1  125.79    6.20
   0  18  -1  132.39    6.20
   0  18   1  126.89    5.60
   0  18  -1  126.19    5.70
  -1 -18  -1   36.10    2.80
   1 -18   1   38.00    2.70
  -1 -18  -1   35.40    2.70
   1 -18   1   35.60    2.70
  -1  18  -1   37.80    2.70
   1  18   1   43.70    2.80
   1  18   1   43.10    2.10
  -1  18  -1   41.20    2.30
   2 -18   1   48.30    3.10
   2 -18   1   53.49    3.30
  -2 -18  -1   45.40    3.40
   2  18   1   48.70    3.20
   2  18   1   50.19    2.60
  -2  18  -1   52.89    3.10
   2  18   1   51.89    3.40
  -2  18  -1   48.60    3.30
   3 -18   1   13.90    1.80
   3 -18   1   14.20    1.80
  -3 -18  -1   13.20    2.00
   3  18   1   11.60    1.60
   3  18   1   11.10    1.80
  -3  18  -1   10.90    1.60
   4 -18   1  101.59    6.00
  -4 -18  -1  108.19    6.50
   4 -18   1  120.69    6.10
  -4  18  -1  109.69    5.80
  -4  18  -1  114.99    6.10
   4  18   1  109.09    6.20
   5 -18   1   85.09    5.40
   5 -18   1   91.09    5.30
  -5 -18  -1   86.69    5.90
   5  18   1   93.89    5.60
  -5  18  -1   87.39    5.50
  -6 -18  -1   16.80    3.00
   6 -18   1   14.40    2.50
   6  18   1   17.50    2.60
  -6  18  -1   12.70    2.50
  -6 -19   1   27.90    3.90
   6 -19  -1   33.70    3.30
  -6  19   1   24.90    3.30
   6  19  -1   29.70    3.50
  -5 -19   1  100.59    6.50
   5 -19  -1   98.39    5.90
   5  19  -1  101.99    6.10
  -5  19   1   95.69    5.90
   4 -19  -1   67.79    4.10
  -4 -19   1   56.59    4.50
   4  19  -1   55.79    4.10
  -4  19   1   55.99    4.00
  -4  19   1   55.79    3.60
   3 -19  -1   58.49    3.70
   3 -19  -1   61.79    4.00
  -3 -19   1   63.59    4.40
   3  19  -1   62.69    3.80
  -3  19   1   65.39    3.90
  -3  19   1   61.99    3.80
   3  19  -1   59.69    4.10
   2 -19  -1  294.17   13.30
  -2 -19   1  285.77   13.90
   2 -19  -1  297.27   13.80
  -2  19   1  309.87   13.40
   2  19  -1  296.27   13.80
   2  19  -1  293.97   13.60
  -2  19   1  301.87   13.70
   1 -19  -1   16.80    1.80
   1 -19  -1   12.70    1.50
  -1 -19   1   10.70    1.80
   0 -19  -1   32.30    2.70
   0 -19   1   30.00    2.50
   0 -19   1   32.50    2.70
   0 -19  -1   31.30    2.50
   0  19  -1   42.90    2.80
   0  19   1   45.10    2.70
  -1 -19  -1  135.99    6.60
   1 -19   1  133.59    6.50
  -1 -19  -1  124.89    6.60
   1 -19   1  135.69    6.60
   1  19   1  130.39    5.90
  -1  19  -1  122.89    6.00
  -1  19  -1  122.19    6.50
   1  19   1  125.09    6.50
   2 -19   1  111.69    6.20
  -2 -19  -1  111.29    6.40
   2 -19   1  116.99    6.30
   2  19   1  128.59    6.30
   2  19   1  133.19    6.60
  -2  19  -1  133.09    6.10
  -2  19  -1  130.49    6.40
   3 -19   1  249.97   12.20
  -3 -19  -1  251.77   12.60
   3 -19   1  256.67   12.30
   3  19   1  279.17   12.60
  -3  19  -1  273.47   12.30
   3  19   1  270.07   12.20
   4 -19   1  113.79    6.40
   4 -19   1  118.99    6.40
  -4 -19  -1  114.39    6.80
  -4  19  -1  132.29    6.60
  -4  19  -1  121.89    6.30
   4  19   1  120.89    6.70
   5 -19   1   16.90    2.30
  -5 -19  -1   16.00    2.80
   5 -19   1   19.50    2.50
   5  19   1   16.40    2.40
  -5  19  -1   13.90    2.30
   6 -19   1    2.00    1.80
  -6 -19  -1    5.60    2.30
   6  19   1    2.10    1.60
  -6  19  -1    2.00    1.90
  -6 -20   1   11.10    2.90
   6 -20  -1   14.30    2.50
  -6  20   1   13.50    2.70
   6  20  -1   17.20    2.90
  -5 -20   1    7.20    2.20
   5 -20  -1    7.90    1.90
   5  20  -1    6.70    1.90
  -5  20   1    5.00    1.80
  -4 -20   1   69.19    4.80
   4 -20  -1   68.69    4.40
   4  20  -1   66.29    4.60
  -4  20   1   65.39    4.10
  -4  20   1   65.09    4.40
   3 -20  -1   61.99    3.90
  -3 -20   1   59.39    4.30
   3  20  -1   55.29    3.60
   3  20  -1   55.59    3.90
  -3  20   1   56.29    3.70
  -3  20   1   57.89    3.70
   2 -20  -1  218.98    9.90
  -2 -20   1  209.98   10.50
   2 -20  -1  210.78   10.30
  -2  20   1  224.08   10.00
   2  20  -1  219.88   10.30
  -2  20   1  212.78   10.30
   2  20  -1  209.18   10.40
   1 -20  -1  123.49    6.90
  -1 -20   1  119.49    6.90
   1 -20  -1  118.49    6.40
  -1 -20   1  125.19    6.90
   1  20  -1  151.48    7.00
   1  20  -1  147.39    7.00
  -1  20   1  150.68    7.00
  -1  20   1  144.59    6.40
   0 -20   1    3.30    1.30
   0 -20  -1    4.00    1.20
   0 -20   1    4.20    1.20
   0 -20  -1    4.10    1.20
   0  20   1    9.40    1.50
   0  20  -1    6.80    1.30
   1 -20   1  112.29    5.70
  -1 -20  -1  103.69    5.70
  -1 -20  -1  108.29    5.90
   1 -20   1  108.19    5.80
   1  20   1  111.99    5.80
  -1  20  -1  105.49    5.80
   2 -20   1   22.30    2.30
  -2 -20  -1   23.70    2.40
   2 -20   1   23.50    2.20
  -2  20  -1   22.50    2.10
   2  20   1   23.60    2.40
   2  20   1   23.20    2.30
  -2  20  -1   21.40    2.30
   3 -20   1    2.00    1.10
  -3 -20  -1    2.30    1.50
   3 -20   1    1.70    1.20
  -3  20  -1   -1.40    1.10
   3  20   1    0.90    1.20
  -3  20  -1    2.00    1.20
   3  20   1    1.40    1.00
  -4 -20  -1   52.89    4.30
   4 -20   1   64.79    4.00
   4 -20   1   56.39    3.80
   4  20   1   55.59    4.20
  -4  20  -1   56.49    3.80
   4  20   1   55.89    3.60
  -4  20  -1   55.79    3.90
   5 -20   1   57.89    4.10
   5 -20   1   53.29    4.20
  -5 -20  -1   58.09    4.70
  -5  20  -1   61.09    4.40
   5  20   1   59.89    4.40
  -6 -20  -1    8.20    2.40
  -6  20  -1    3.20    2.10
   6  20   1    7.60    2.20
   6 -21  -1   27.20    3.30
  -6 -21   1   29.00    4.00
  -6  21   1   24.70    3.50
   6  21  -1   28.40    3.50
   5 -21  -1   44.50    3.70
  -5 -21   1   38.80    4.20
   5  21  -1   39.00    3.70
  -5  21   1   34.10    3.60
   4 -21  -1   16.50    2.30
  -4 -21   1   15.80    2.70
   4  21  -1   16.20    2.00
  -4  21   1   12.50    2.20
   4  21  -1   17.20    2.50
  -4  21   1   14.90    2.00
  -3 -21   1   27.80    3.20
   3 -21  -1   30.50    2.70
   3  21  -1   28.60    2.70
   3  21  -1   28.40    2.50
  -3  21   1   32.00    2.60
  -3  21   1   26.20    2.40
   2 -21  -1   16.20    2.20
  -2 -21   1   19.10    2.50
   2  21  -1   21.20    2.40
  -2  21   1   18.40    2.10
  -2  21   1   15.80    1.80
   2  21  -1   17.40    2.10
   1 -21  -1  139.39    6.60
  -1 -21   1  135.69    7.10
  -1 -21   1  139.59    7.20
   1 -21  -1  137.59    7.10
  -1  21   1  133.09    6.40
   1  21  -1  139.59    7.00
  -1  21   1  130.89    7.00
   0 -21   1   68.39    4.10
   0 -21  -1   68.49    3.80
   0 -21   1   78.89    4.20
   0 -21  -1   69.69    4.20
   0  21   1   57.89    4.00
   0  21  -1   52.79    3.90
   1 -21   1   45.80    3.20
  -1 -21  -1   48.70    3.30
  -1 -21  -1   44.90    3.20
   1 -21   1   42.90    3.00
  -1  21  -1   41.40    3.20
   1  21   1   42.80    3.20
   2 -21   1  167.38    8.30
   2 -21   1  164.28    8.10
  -2 -21  -1  160.58    8.30
  -2 -21  -1  161.58    8.40
  -2  21  -1  168.48    8.30
   2  21   1  163.98    8.20
  -2  21  -1  167.18    8.10
   2  21   1  161.08    8.40
   3 -21   1  114.09    6.00
  -3 -21  -1  103.49    6.30
   3 -21   1  115.19    6.10
   3  21   1  113.59    6.40
  -3  21  -1  114.09    6.10
  -3  21  -1  114.09    6.00
   3  21   1  109.59    5.90
   4 -21   1   64.39    4.30
   4 -21   1   57.89    4.20
  -4 -21  -1   63.09    4.80
  -4  21  -1   70.29    4.30
   4  21   1   72.09    4.20
  -4  21  -1   69.09    4.50
   4  21   1   76.09    4.80
  -5 -21  -1    6.40    2.30
   5 -21   1    5.20    1.70
  -5  21  -1    6.30    2.10
   5  21   1    6.60    1.90
  -6 -21  -1    0.80    2.10
  -6  21  -1   -0.40    2.00
   6  21   1    0.90    1.70
   6 -22  -1    5.90    2.10
  -6 -22   1    5.30    2.70
   6  22  -1    6.20    2.00
  -6  22   1    7.00    2.50
   5 -22  -1    7.90    2.00
  -5 -22   1    6.30    2.40
  -5  22   1    3.20    2.00
   5  22  -1    5.20    2.00
   4 -22  -1   22.30    2.70
  -4 -22   1   24.90    3.30
  -4  22   1   17.20    2.40
   4  22  -1   17.00    2.10
   4  22  -1   20.30    2.60
  -4  22   1   17.90    2.20
   3 -22  -1    7.20    1.80
  -3 -22   1    9.70    2.20
   3  22  -1   13.00    2.10
   3  22  -1   11.70    1.70
  -3  22   1   13.00    1.90
   2 -22  -1  157.38    8.20
  -2 -22   1  155.78    8.40
   2  22  -1  167.18    8.40
  -2  22   1  159.48    7.80
   2  22  -1  169.68    8.20
  -2  22   1  161.18    8.20
  -1 -22   1  117.49    6.40
  -1 -22   1  123.29    6.50
   1 -22  -1  117.89    6.40
  -1  22   1  115.49    6.30
   1  22  -1  115.99    6.20
   0 -22   1   40.90    3.00
   0 -22  -1   42.50    2.80
   0 -22   1   43.50    3.10
   0 -22  -1   39.30    3.00
   0  22   1   35.00    2.90
   0  22  -1   31.30    2.80
   1 -22   1   63.19    4.00
  -1 -22  -1   55.69    4.00
   1 -22   1   58.89    3.80
  -1 -22  -1   59.69    3.80
  -1  22  -1   65.79    4.10
   1  22   1   66.19    4.00
   2 -22   1   25.80    2.50
  -2 -22  -1   21.10    2.50
   2 -22   1   26.20    2.40
  -2 -22  -1   23.00    2.70
   2  22   1   25.60    2.50
  -2  22  -1   26.10    2.60
   3 -22   1   38.90    3.00
   3 -22   1   40.30    3.10
  -3 -22  -1   40.00    3.60
  -3  22  -1   33.80    3.00
   3  22   1   33.70    3.20
  -3  22  -1   33.00    2.90
   3  22   1   34.60    2.90
   4 -22   1   31.40    3.00
  -4 -22  -1   37.00    3.70
   4 -22   1   38.60    3.10
  -4  22  -1   31.20    3.10
  -4  22  -1   32.60    3.00
   4  22   1   35.80    3.40
   4  22   1   35.70    2.90
   5 -22   1   29.90    3.20
  -5 -22  -1   27.50    3.60
   5  22   1   28.80    3.40
  -5  22  -1   29.60    3.20
  -6 -22  -1    3.60    2.50
   6  22   1    6.00    2.10
  -6  22  -1    2.40    2.10
  -6 -23   1   15.60    3.30
   6 -23  -1   13.00    2.60
   6  23  -1   11.30    2.60
  -6  23   1   12.60    2.80
   5 -23  -1   35.30    3.50
  -5 -23   1   38.80    4.40
  -5  23   1   33.60    3.60
   5  23  -1   31.50    3.40
   4 -23  -1   19.50    2.70
  -4 -23   1   21.40    3.10
   4  23  -1   18.60    2.20
   4  23  -1   22.40    2.90
  -4  23   1   18.20    2.30
  -4  23   1   19.50    2.60
  -3 -23   1    8.10    2.20
   3 -23  -1    9.40    1.90
   3  23  -1   11.70    2.10
   3  23  -1   11.00    1.80
  -3  23   1   10.60    1.80
  -3  23   1   11.00    1.90
   2 -23  -1    2.10    1.40
  -2 -23   1   -0.30    1.50
   2  23  -1    0.90    1.20
  -2  23   1    0.80    1.20
   2  23  -1    0.30    1.20
  -2  23   1   -0.90    1.50
  -1 -23   1   72.79    4.50
  -1 -23   1   70.59    4.50
   1 -23  -1   73.49    4.50
  -1  23   1   62.59    4.20
   1  23  -1   66.59    4.20
   0 -23  -1   93.39    5.30
   0 -23  -1   96.09    5.40
   0 -23   1   93.49    5.20
   0 -23   1   96.99    5.40
   0  23  -1   87.09    5.30
   0  23   1   86.19    5.20
  -1 -23  -1  115.29    6.20
   1 -23   1  109.49    6.00
   1 -23   1  111.49    5.90
  -1 -23  -1  106.79    5.90
  -1  23  -1  103.49    6.00
   1  23   1  105.39    6.00
   2 -23   1   84.99    4.90
  -2 -23  -1   82.09    5.10
  -2 -23  -1   85.19    5.20
   2 -23   1   87.59    5.10
   2  23   1   86.49    5.00
  -2  23  -1   83.19    5.00
   3 -23   1    9.90    1.80
   3 -23   1   13.80    2.00
  -3 -23  -1   10.50    2.20
   3  23   1   13.70    1.90
  -3  23  -1   13.50    2.00
   3  23   1   14.00    2.30
  -4 -23  -1   18.50    3.00
   4 -23   1   22.50    2.70
   4  23   1   28.70    3.30
  -4  23  -1   24.80    2.80
   4  23   1   28.90    2.60
   5 -23   1    1.60    1.60
  -5 -23  -1    0.60    1.90
   5  23   1    2.60    1.80
  -5  23  -1    1.20    1.80
   5 -24  -1   14.60    2.60
  -5 -24   1   13.50    3.10
  -5  24   1   13.80    2.60
   5  24  -1   13.90    2.70
   4 -24  -1   35.60    3.30
  -4 -24   1   32.50    3.80
  -4  24   1   30.00    3.00
   4  24  -1   33.40    3.00
  -4  24   1   30.10    3.10
   4  24  -1   32.90    3.50
  -3 -24   1   41.60    3.90
   3 -24  -1   40.80    3.50
  -3  24   1   39.30    3.20
   3  24  -1   39.70    3.50
   3  24  -1   37.60    3.20
  -2 -24   1   97.19    6.00
   2 -24  -1   97.39    5.80
   2  24  -1  101.29    5.70
   2  24  -1  103.49    5.90
  -2  24   1   99.99    5.70
  -1 -24   1  145.39    7.90
   1 -24  -1  148.39    7.90
  -1 -24   1  145.89    7.90
   1  24  -1  155.08    7.80
  -1  24   1  156.58    7.90
   0 -24   1   83.99    5.10
   0 -24   1   79.79    5.00
   0 -24  -1   82.39    5.20
   0  24   1   91.49    5.10
   0  24  -1   93.29    5.20
  -1 -24  -1   45.60    3.30
   1 -24   1   41.40    3.20
  -1 -24  -1   41.30    3.40
   1 -24   1   41.70    3.30
  -1  24  -1   42.80    3.40
   1  24   1   42.30    3.40
  -2 -24  -1   45.10    3.80
   2 -24   1   50.89    3.50
  -2 -24  -1   47.80    3.80
   2 -24   1   52.19    3.70
  -2  24  -1   52.69    3.70
   2  24   1   53.89    3.70
   3 -24   1   18.80    2.30
  -3 -24  -1   15.30    2.60
  -3  24  -1   17.80    2.30
   3  24   1   16.50    2.50
   3  24   1   12.10    2.00
  -4 -24  -1   12.60    2.70
   4 -24   1   12.70    2.20
   4  24   1   12.30    2.40
  -4  24  -1   11.10    2.10
   4  24   1   13.80    2.00
   5 -24   1   25.70    3.10
  -5 -24  -1   20.30    3.30
   5  24   1   29.20    3.50
  -5 -25   1   21.40    3.60
   5 -25  -1   25.80    3.20
  -5  25   1   23.90    3.10
   5  25  -1   20.00    2.90
   4 -25  -1   14.20    2.40
  -4 -25   1   14.10    3.00
   4  25  -1   15.80    2.60
   4  25  -1   16.40    2.20
  -4  25   1   18.70    2.40
  -3 -25   1    3.60    2.00
   3 -25  -1    6.30    1.80
  -3  25   1    6.30    1.70
   3  25  -1    5.20    1.60
   3  25  -1    5.90    1.80
   2 -25  -1   25.10    2.80
  -2 -25   1   27.80    3.00
  -2 -25   1   23.10    3.00
   2  25  -1   24.50    2.70
  -2  25   1   24.80    2.80
   2  25  -1   26.10    2.60
  -1 -25   1   11.00    1.90
  -1 -25   1   11.10    2.10
   1 -25  -1   11.80    2.10
   1  25  -1   10.30    1.90
  -1  25   1    8.70    1.80
   0 -25   1   27.20    2.80
   0 -25   1   28.10    2.70
   0 -25  -1   23.60    2.60
   0  25  -1   28.60    2.80
   0  25   1   26.90    2.80
  -1 -25  -1   66.69    4.50
   1 -25   1   70.59    4.30
   1 -25   1   72.99    4.60
   1  25   1   69.09    4.50
  -1  25  -1   64.29    4.50
   2 -25   1   80.19    4.80
  -2 -25  -1   66.99    4.80
   2 -25   1   72.39    4.80
  -2 -25  -1   76.59    4.90
  -2  25  -1   76.79    4.80
   2  25   1   70.69    4.60
   3 -25   1   19.80    2.60
  -3 -25  -1   16.30    2.70
  -3 -25  -1   19.20    2.80
  -3  25  -1   24.70    2.70
   3  25   1   22.50    2.90
   3  25   1   22.30    2.50
  -4 -25  -1    6.10    2.40
   4 -25   1    7.60    2.00
   4  25   1    9.70    2.30
   4  25   1   14.30    2.10
  -4  25  -1   11.50    2.00
   5 -25   1    8.80    3.50
  -5 -25  -1    9.30    2.80
   5  25   1   13.30    2.60
  -5 -26   1    0.90    2.50
   5 -26  -1    4.20    2.10
   5  26  -1    1.90    2.00
  -4 -26   1   12.30    2.80
   4 -26  -1   13.90    2.50
   4  26  -1    9.30    2.20
  -4  26   1    7.60    1.90
   4  26  -1    9.50    1.90
  -3 -26   1   36.20    3.90
   3 -26  -1   37.40    3.40
   3  26  -1   32.70    3.50
  -3  26   1   34.70    3.20
   3  26  -1   38.50    3.30
  -2 -26   1   79.79    5.10
   2 -26  -1   81.29    5.00
  -2 -26   1   74.29    5.10
   2  26  -1   67.19    4.70
  -2  26   1   74.19    4.90
  -1 -26   1   70.69    4.80
  -1 -26   1   67.29    4.70
   1 -26  -1   73.19    4.90
   1  26  -1   81.59    4.90
  -1  26   1   71.19    4.70
   0 -26   1   40.70    3.20
   0 -26   1   35.20    3.30
   0 -26  -1   44.40    3.60
   0  26   1   40.70    3.40
   0  26  -1   39.20    3.30
   1 -26   1   30.50    2.80
  -1 -26  -1   33.10    3.00
   1 -26   1   30.20    3.00
   1  26   1   33.50    3.10
  -1  26  -1   31.20    3.10
  -2 -26  -1    4.60    1.70
   2 -26   1    8.20    1.80
   2  26   1    6.30    1.70
  -2  26  -1    6.00    1.70
   3 -26   1    9.10    2.00
  -3 -26  -1    6.10    2.10
  -3 -26  -1    8.90    2.20
  -3  26  -1    9.80    2.00
   3  26   1    7.10    1.80
   4 -26   1    5.90    1.90
  -4 -26  -1    2.90    2.20
   4  26   1    9.00    1.90
  -4  26  -1    7.80    2.00
   4  26   1    6.10    2.00
   4 -27  -1   20.40    3.00
  -4 -27   1   19.60    3.30
   4  27  -1   23.80    3.40
  -4  27   1   23.70    2.80
   4  27  -1   24.90    2.80
   3 -27  -1   41.20    3.70
  -3 -27   1   37.80    4.20
   3  27  -1   40.50    3.50
   3  27  -1   46.20    4.00
  -3  27   1   43.00    3.60
  -2 -27   1    3.40    1.90
  -2 -27   1    2.10    1.50
   2 -27  -1    1.50    1.50
  -2  27   1    2.50    1.50
   2  27  -1    1.80    1.50
   1 -27  -1   14.10    2.30
  -1 -27   1   13.70    2.30
  -1 -27   1   11.90    2.10
  -1  27   1   11.80    2.20
   1  27  -1   10.00    2.10
   0 -27   1   21.40    2.60
   0 -27   1   20.00    2.50
   0 -27  -1   19.60    2.60
   0  27   1   15.60    2.20
   0  27  -1   16.10    2.30
   1 -27   1   34.40    3.30
  -1 -27  -1   33.90    3.40
   1  27   1   34.20    3.30
  -1  27  -1   36.50    3.20
  -2 -27  -1   42.80    3.80
   2 -27   1   43.40    3.60
   2  27   1   47.30    3.60
  -2  27  -1   40.50    3.50
   3 -27   1   17.40    2.60
  -3 -27  -1   16.50    2.70
   3  27   1   17.80    2.40
  -3  27  -1   16.50    2.40
   4 -27   1   22.40    3.00
  -4 -27  -1   17.80    3.70
   4  27   1   21.90    2.70
   4  27   1   20.70    3.10
  -4  27  -1   27.30    3.10
  -4 -28   1    5.90    2.70
   4 -28  -1    7.40    2.20
   4  28  -1    3.90    1.70
   4  28  -1    5.50    2.20
  -4  28   1    5.20    1.80
  -3 -28   1   11.70    2.50
  -3 -28   1   10.70    2.60
   3 -28  -1   11.50    2.40
   3  28  -1   14.40    2.70
  -3  28   1   14.30    2.40
   3  28  -1   12.70    2.20
  -2 -28   1   27.30    3.00
   2 -28  -1   21.20    2.90
  -2 -28   1   22.40    3.10
   2  28  -1   27.80    3.10
  -2  28   1   29.50    3.10
   1 -28  -1   16.70    2.60
  -1 -28   1   18.80    2.60
  -1 -28   1   19.60    2.70
  -1  28   1   17.30    2.40
   1  28  -1   17.80    2.60
   0 -28  -1    4.60    1.80
   0 -28   1    3.90    1.70
   0  28   1    5.30    1.80
   0  28  -1    5.70    1.90
  -1 -28  -1    8.00    2.10
   1 -28   1    5.90    1.90
   1  28   1    7.10    1.90
  -1  28  -1    5.10    1.80
   2 -28   1    3.80    1.70
  -2 -28  -1    1.50    1.60
  -2  28  -1    1.30    1.50
   2  28   1    2.40    1.50
   3 -28   1    5.70    1.80
  -3 -28  -1    4.00    1.90
  -3  28  -1    4.30    1.80
   3  28   1    4.00    1.70
   4 -28   1    3.00    1.90
  -4 -28  -1    2.10    1.90
   4  28   1    4.20    1.80
   4  28   1    1.90    1.90
  -4  28  -1    2.50    1.80
  -4 -29   1    2.80    2.50
   4 -29  -1    4.00    2.00
   4  29  -1    3.50    1.80
  -4  29   1    4.90    1.90
   4  29  -1    3.30    1.90
  -3 -29   1    5.00    2.10
  -3 -29   1    2.60    2.20
   3 -29  -1    4.00    1.90
  -3  29   1    5.70    1.90
   3  29  -1    4.90    1.90
   2 -29  -1    1.70    1.70
  -2 -29   1    1.50    2.00
  -2 -29   1    2.50    1.70
   2  29  -1   -0.30    1.50
  -2  29   1    1.20    1.50
  -1 -29   1   14.10    2.40
   1 -29  -1   13.40    2.30
  -1  29   1   11.90    2.30
   1  29  -1   15.60    2.50
   0 -29  -1   17.20    2.70
   0 -29   1   16.30    2.50
   0  29   1   13.90    2.40
   0  29  -1   15.40    2.50
  -1 -29  -1    7.10    2.00
   1 -29   1    4.00    1.70
  -1  29  -1    5.00    1.90
   1  29   1    5.80    1.70
   2 -29   1   15.00    2.50
  -2 -29  -1   18.70    2.80
  -2  29  -1   18.40    2.70
   2  29   1   22.00    2.70
  -3 -29  -1    9.30    2.20
   3 -29   1   11.40    2.30
  -3  29  -1   13.30    2.50
   3  29   1   12.30    2.30
   3 -30  -1   15.00    2.60
  -3 -30   1   10.10    2.50
  -3 -30   1   12.70    3.00
  -3  30   1   16.20    2.60
   3  30  -1    9.10    2.10
  -2 -30   1    6.20    2.10
   2 -30  -1    4.10    1.90
  -2  30   1    3.00    1.80
   2  30  -1    1.90    1.70
  -1 -30   1   18.00    2.80
   1 -30  -1   15.40    2.60
   1  30  -1   16.80    2.70
  -1  30   1   14.30    2.30
   0 -30  -1   18.40    2.80
   0 -30   1   14.20    2.40
   0  30  -1   14.30    2.50
   0  30   1   13.90    2.40
  -1 -30  -1    8.20    2.20
   1 -30   1    7.50    2.20
   1  30   1    6.20    2.00
  -1  30  -1    6.90    2.00
  -2 -30  -1    2.70    1.80
   2 -30   1    1.40    1.60
  -2  30  -1    1.30    1.60
   2  30   1    3.00    1.70
   3 -30   1    1.90    1.80
  -3 -30  -1    3.90    2.00
  -3  30  -1    3.60    1.90
   3  30   1    4.20    1.90
  -2 -31   1    3.00    1.90
   2 -31  -1    1.50    1.70
   2  31  -1    0.10    1.60
  -2  31   1   -0.60    1.60
   1 -31  -1    4.50    2.00
  -1 -31   1    4.30    2.00
  -1  31   1    1.60    1.80
   1  31  -1    2.80    1.80
   0 -31   1    5.30    1.90
   0 -31  -1    5.00    1.90
   0  31  -1    9.30    2.20
   0  31   1    7.10    2.00
   1 -31   1   13.60    2.50
  -1 -31  -1   16.70    2.80
   1  31   1   13.70    2.50
  -1  31  -1   13.60    2.40
  -2 -31  -1   21.30    3.10
   2 -31   1   21.50    3.00
  -2  31  -1   21.10    2.90
   2  31   1   20.30    2.90
   2 -32  -1   11.20    2.50
  -2 -32   1   10.10    2.40
  -2  32   1    9.20    2.30
   2  32  -1    7.80    2.20
   1 -32  -1    0.70    1.60
  -1 -32   1    1.70    1.80
   1  32  -1   -0.30    1.70
  -1  32   1    0.60    1.60
   0 -32   1   10.50    2.30
   0 -32  -1   10.80    2.50
   0  32  -1   13.10    2.40
   0  32   1   13.10    2.50
   1 -32   1   10.40    2.50
  -1 -32  -1   10.20    2.50
  -1  32  -1   10.00    2.40
   1  32   1    8.40    2.10
   8   0  -2   -1.20    1.90
   8   0  -2    0.50    1.60
  -8   0   2   -0.10    1.70
   7   0  -2    7.20    2.10
   7   0  -2    5.90    1.80
  -7   0   2    4.60    1.90
   6   0  -2   80.79    4.90
   6   0  -2   82.19    5.10
  -6   0   2   81.19    4.80
   5   0  -2    4.00    1.30
  -5   0   2    4.30    1.30
   5   0  -2    2.60    1.10
  -4   0   2  160.68    7.50
   4   0  -2  158.38    7.50
   4   0  -2  153.08    7.50
   3   0  -2 1172.58   49.70
   3   0  -2 1117.69   50.29
   3   0  -2 1220.28   50.29
  -3   0   2 1185.58   50.19
  -2   0   2   18.70    1.30
  -2   0   2   21.00    1.40
   2   0  -2   21.20    1.10
   2   0  -2   18.40    1.30
  -1   0   2  977.90   40.70
   1   0  -2  946.61   40.70
   1   0  -2  945.01   40.70
   0   0  -2 1822.92   79.39
   0   0   2 1858.61   79.79
   0   0  -2 1879.21   79.89
   0   0   2 1880.11   79.59
  -1   0  -2 1732.83   71.69
   1   0   2 1627.64   71.29
   1   0   2 1701.83   71.39
   1   0   2 1658.03   71.39
  -2   0  -2    6.10    0.70
  -2   0  -2    8.00    0.90
   2   0   2    6.80    0.90
   2   0   2    5.10    0.60
   3   0   2  194.38    8.70
  -3   0  -2  197.58    8.90
  -3   0  -2  192.78    8.60
   3   0   2  190.78    9.10
   4   0   2    5.60    1.30
  -4   0  -2    4.90    1.10
  -4   0  -2    7.00    0.80
   4   0   2    7.90    1.10
  -5   0  -2    4.80    1.30
   5   0   2    4.20    1.50
   5   0   2    4.50    1.10
   6   0   2   83.59    5.40
  -6   0  -2   78.19    4.90
   6   0   2   81.99    4.70
  -7   0  -2   22.70    2.90
   7   0   2   28.40    3.60
   8  -1  -2    5.10    2.30
  -8  -1   2    4.40    2.20
   8  -1  -2    6.50    2.10
   8   1  -2    3.40    1.80
   8   1  -2    5.30    2.40
  -8   1   2    1.50    2.10
   7  -1  -2   18.30    2.70
  -7  -1   2   17.80    2.60
   7  -1  -2   23.00    2.70
  -7   1   2   24.00    2.90
   7   1  -2   21.20    2.90
   7   1  -2   25.90    2.80
   6  -1  -2   55.59    4.00
  -6  -1   2   52.79    3.70
   6  -1  -2   57.49    3.80
   6   1  -2   59.69    4.00
  -6   1   2   55.79    3.80
   6   1  -2   55.69    4.10
   5  -1  -2   18.00    2.10
   5  -1  -2   15.70    2.00
  -5  -1   2   17.00    2.00
   5   1  -2   24.10    2.20
  -5   1   2   20.50    2.20
   5   1  -2   21.80    2.30
  -4  -1   2  115.79    5.80
   4  -1  -2  113.69    5.90
   4  -1  -2  122.69    5.90
  -4   1   2  117.49    5.80
   4   1  -2  118.29    6.00
   4   1  -2  117.19    5.90
   3  -1  -2  258.57   11.90
  -3  -1   2  262.27   11.90
   3  -1  -2  265.97   11.40
   3  -1  -2  282.37   12.00
  -3   1   2  260.77   11.90
   3   1  -2  266.67   12.00
   3   1  -2  266.17   11.40
   3   1  -2  272.37   12.00
   2  -1  -2  119.29    5.20
   2  -1  -2  114.19    5.10
  -2  -1   2  113.79    5.20
  -2  -1   2  112.19    5.10
   2  -1  -2  116.89    4.90
  -2   1   2  102.39    5.10
   2   1  -2  100.89    4.80
   2   1  -2   99.89    5.10
   1  -1  -2 2242.78   98.19
  -1  -1   2 2320.97   98.29
  -1  -1   2 2293.47   98.09
   1  -1  -2 2160.58   97.69
  -1   1   2 2360.56   98.39
   1   1  -2 2287.87   97.69
   1   1  -2 2344.57   98.39
  -1   1   2 2386.76   98.19
   0  -1   2 3053.69  136.69
   0  -1  -2 3197.98  136.89
   0  -1   2 3005.90  135.99
   0  -1  -2 3049.79  135.99
   0   1  -2 3384.96  136.89
   0   1  -2 3385.36  135.89
   0   1   2 3299.67  136.59
   1  -1   2  480.55   21.50
   1  -1   2  492.45   21.60
   1  -1   2  492.75   21.30
  -1  -1  -2  452.95   21.50
   1   1   2  504.85   21.60
  -1   1  -2  501.05   21.50
   1   1   2  524.75   21.40
   1   1   2  511.35   21.50
  -1   1  -2  545.65   21.30
   2  -1   2  688.33   28.70
   2  -1   2  722.53   29.10
  -2  -1  -2  674.33   28.80
  -2   1  -2  679.83   29.00
   2   1   2  658.53   29.00
  -2   1  -2  649.34   28.80
   2   1   2  665.33   28.70
   2   1   2  645.84   28.90
   3  -1   2  125.29    5.80
  -3  -1  -2  111.19    5.20
   3  -1   2  120.09    5.30
  -3  -1  -2  116.19    5.50
   3   1   2  106.89    5.30
   3   1   2  110.39    5.60
  -3   1  -2  106.69    5.50
  -3   1  -2  110.69    5.20
   4  -1   2   56.59    3.60
  -4  -1  -2   57.29    3.30
   4  -1   2   57.09    3.10
  -4  -1  -2   54.39    2.80
   4   1   2   56.79    3.10
  -4   1  -2   54.49    2.80
   4   1   2   58.09    3.50
  -4   1  -2   55.09    3.30
  -5  -1  -2   10.80    1.70
   5  -1   2   12.70    1.50
   5  -1   2   10.10    1.90
   5   1   2    8.80    1.60
  -5   1  -2   11.70    1.70
   5   1   2   13.10    1.60
   6  -1   2   23.80    2.40
   6  -1   2   17.90    2.60
  -6  -1  -2   22.60    2.40
   6   1   2   25.40    3.10
   6   1   2   26.30    2.40
  -6   1  -2   22.80    2.60
  -7  -1  -2   18.70    2.60
   7  -1   2   12.60    2.50
   7   1   2   17.00    2.90
  -7   1  -2   12.80    2.20
  -8  -2   2    0.90    1.90
   8  -2  -2    3.60    2.10
   8  -2  -2    3.00    1.70
   8   2  -2    1.50    2.10
   8   2  -2    3.40    1.90
  -8   2   2    2.20    2.10
   7  -2  -2   11.20    2.30
   7  -2  -2   10.00    2.00
  -7  -2   2    8.90    1.90
   7   2  -2   11.20    2.40
   7   2  -2   10.40    1.90
  -7   2   2    9.40    2.20
   6  -2  -2  139.49    7.10
  -6  -2   2  128.59    6.90
   6  -2  -2  128.69    6.90
   6   2  -2  129.69    7.00
  -6   2   2  129.69    7.00
   6   2  -2  128.79    7.10
   5  -2  -2   16.80    1.90
   5  -2  -2   18.00    2.10
  -5  -2   2   18.90    2.00
   4  -2  -2  370.76   16.10
  -4  -2   2  362.86   15.90
   4  -2  -2  376.26   16.00
   4   2  -2  342.27   16.00
  -4   2   2  333.97   15.90
   4   2  -2  357.96   16.10
  -3  -2   2 1004.60   41.60
   3  -2  -2  964.00   41.70
   3  -2  -2 1005.00   41.60
   3  -2  -2 1003.80   41.20
  -3  -2   2  958.30   41.70
   3   2  -2  957.40   41.10
  -3   2   2  948.21   41.60
   3   2  -2  950.70   41.70
   3   2  -2  933.71   41.70
  -2  -2   2   47.50    2.40
   2  -2  -2   39.90    2.00
  -2  -2   2   45.50    2.30
   2  -2  -2   39.40    2.30
   2  -2  -2   43.70    2.20
   1   2  -2   14.40    1.00
  -1   2   2   18.10    1.10
  -1   2   2   18.20    1.00
   1   2  -2   14.30    1.00
   0  -2  -2 1076.09   48.30
   0  -2   2 1157.88   48.10
   0  -2   2 1154.88   48.00
   0  -2  -2 1125.39   48.10
   0   2   2 1109.19   48.30
   0   2   2 1115.79   48.00
   0   2  -2 1149.78   48.10
   0   2  -2 1134.69   48.10
   1  -2   2 1354.86   59.59
  -1  -2  -2 1405.46   59.59
   1  -2   2 1410.76   59.49
   1  -2   2 1309.97   59.69
   1   2   2 1383.66   59.59
   1   2   2 1352.66   59.69
  -1   2  -2 1461.85   59.59
  -1   2  -2 1480.55   59.59
   1   2   2 1457.25   59.69
   2  -2   2   63.19    4.00
   2   2   2   88.29    4.00
  -2   2  -2   87.39    4.00
   2   2   2   85.49    4.10
   2   2   2   83.39    3.80
  -2   2  -2   83.99    3.90
  -3  -2  -2  355.06   15.20
   3  -2   2  350.36   15.20
   3  -2   2  347.17   15.60
  -3  -2  -2  357.86   15.40
   3   2   2  339.67   15.60
  -3   2  -2  337.87   15.10
  -3   2  -2  352.46   15.50
   3   2   2  348.37   15.30
  -4  -2  -2   49.10    2.60
   4  -2   2   49.70    2.90
  -4  -2  -2   44.70    3.00
   4  -2   2   45.60    3.30
   4   2   2   59.89    3.50
  -4   2  -2   55.39    3.20
   4   2   2   58.69    3.00
  -4   2  -2   56.79    2.70
  -5  -2  -2   18.10    1.90
   5  -2   2   14.30    1.70
   5  -2   2   15.30    2.10
  -5   2  -2   25.40    2.10
  -6  -2  -2  105.59    5.70
   6  -2   2   92.59    5.90
   6  -2   2   99.39    5.40
   6   2   2   89.59    5.30
  -6   2  -2   99.49    5.60
   6   2   2  107.49    6.20
  -7  -2  -2   15.50    2.50
   7  -2   2   16.00    2.90
  -7   2  -2   15.00    2.50
   7   2   2   14.70    2.60
  -8  -3   2    3.20    2.10
  -8  -3   2    5.70    2.30
   8  -3  -2    4.90    2.30
   8  -3  -2    6.70    2.10
   8   3  -2    2.30    2.10
  -8   3   2    1.50    2.20
   8   3  -2    4.10    1.90
   7  -3  -2   32.00    3.40
  -7  -3   2   32.30    3.30
   7  -3  -2   36.60    3.20
  -7   3   2   38.30    3.60
   7   3  -2   44.70    3.60
   7   3  -2   38.90    3.80
   6  -3  -2   28.40    2.80
  -6  -3   2   28.00    2.70
   6  -3  -2   28.30    2.80
  -6   3   2   29.90    2.90
   6   3  -2   34.10    2.90
   6   3  -2   27.50    2.90
  -5  -3   2   33.80    2.60
   5  -3  -2   32.90    2.60
   5  -3  -2   30.10    2.60
   5   3  -2   33.50    2.90
   5   3  -2   32.50    2.50
  -5   3   2   32.20    2.70
   4  -3  -2   15.50    1.50
   4  -3  -2   12.90    1.50
  -4  -3   2   11.10    1.40
   4   3  -2   15.10    1.70
   4   3  -2   12.60    1.70
  -4   3   2   13.00    1.60
  -3  -3   2  174.48    7.70
  -3  -3   2  170.28    7.50
   3  -3  -2  167.58    7.10
   3  -3  -2  155.28    7.50
   3  -3  -2  168.68    7.50
   3   3  -2  150.08    7.60
  -3   3   2  156.18    7.50
   3   3  -2  156.88    7.10
  -2  -3   2  117.39    5.10
   2  -3  -2  115.29    5.20
  -2  -3   2  119.39    5.30
   2  -3  -2  119.99    5.10
  -2   3   2  104.49    5.20
  -2   3   2  105.19    4.90
   2   3  -2  105.69    4.90
   2   3  -2  102.19    5.20
  -1  -3   2  398.16   18.40
   1  -3  -2  371.26   18.20
  -1  -3   2  391.46   18.10
   1   3  -2  444.36   18.20
  -1   3   2  470.55   18.10
  -1   3   2  443.46   18.30
  -1   3   2  438.66   18.20
   1   3  -2  436.96   18.30
   0  -3  -2  570.14   26.70
   0  -3   2  586.04   26.80
   0  -3   2  580.04   26.60
   0   3  -2  658.83   26.60
   0   3  -2  643.34   26.80
   0   3   2  653.43   26.60
   0   3   2  655.33   26.80
   0   3   2  646.84   26.70
   1  -3   2  634.34   25.60
   1  -3   2  627.64   25.80
  -1  -3  -2  617.54   25.80
   1  -3   2  633.44   26.00
  -1   3  -2  588.14   25.80
   1   3   2  564.14   25.70
   1   3   2  563.74   25.80
   1   3   2  581.14   25.80
   2  -3   2  399.66   16.40
   2  -3   2  403.86   16.80
  -2  -3  -2  405.76   16.50
   2   3   2  371.86   16.50
   2   3   2  372.86   16.70
  -2   3  -2  358.26   16.60
   2   3   2  371.66   16.40
  -2   3  -2  360.06   16.50
   3  -3   2  311.87   14.10
  -3  -3  -2  306.37   13.60
   3  -3   2  298.27   13.60
  -3  -3  -2  301.77   13.80
   3   3   2  315.37   13.70
  -3   3  -2  321.07   13.90
   3   3   2  324.87   14.10
  -3   3  -2  315.37   13.60
   4  -3   2   77.99    4.40
  -4  -3  -2   76.69    3.70
   4  -3   2   75.29    3.90
  -4  -3  -2   76.79    4.10
  -4   3  -2   77.29    4.20
   4   3   2   76.09    4.40
  -4   3  -2   75.89    3.70
   4   3   2   76.99    4.00
  -5  -3  -2    5.40    1.30
   5  -3   2    7.30    1.70
   5  -3   2    7.00    1.20
   5   3   2   10.20    1.80
  -5   3  -2    5.30    1.30
   5   3   2    4.60    1.00
  -6  -3  -2   18.00    2.30
   6  -3   2   14.20    2.40
   6  -3   2   16.10    1.90
  -6   3  -2   12.80    2.00
   6   3   2   14.70    2.40
   7  -3   2   12.50    2.50
  -7  -3  -2   10.80    2.30
   7   3   2   10.60    2.40
  -7   3  -2   13.90    2.30
  -8  -4   2   -2.10    1.80
   8  -4  -2   -0.10    1.60
  -8  -4   2    1.70    2.00
   8  -4  -2   -0.50    1.80
   8   4  -2   -0.20    1.50
  -8   4   2   -1.50    2.00
  -7  -4   2   13.20    2.60
   7  -4  -2    9.60    1.90
   7  -4  -2   12.90    2.30
  -7  -4   2   10.40    2.10
  -7   4   2   13.40    2.50
   7   4  -2   12.10    2.60
   7   4  -2   14.50    2.40
  -6  -4   2  136.49    7.10
   6  -4  -2  135.09    7.30
   6  -4  -2  141.49    7.30
   6   4  -2  136.99    7.30
  -6   4   2  131.69    7.20
   6   4  -2  140.49    7.50
   5  -4  -2   28.70    2.60
  -5  -4   2   27.70    2.50
   5  -4  -2   33.30    2.70
   5   4  -2   38.60    2.70
  -5   4   2   38.50    2.80
   5   4  -2   41.10    3.00
  -4  -4   2  353.36   15.80
  -4  -4   2  360.06   15.40
   4  -4  -2  370.26   15.50
   4  -4  -2  348.97   15.60
   4  -4  -2  347.27   14.80
   4   4  -2  339.47   14.80
  -4   4   2  336.17   15.60
   4   4  -2  328.87   15.60
   4   4  -2  335.37   15.70
   3  -4  -2  302.07   13.10
  -3  -4   2  305.47   12.90
   3  -4  -2  294.67   12.90
  -3  -4   2  280.17   13.10
   3   4  -2  290.07   13.10
  -3   4   2  282.67   12.60
  -3   4   2  292.17   13.00
   3   4  -2  286.37   12.60
  -2  -4   2  455.25   22.20
  -2  -4   2  467.85   21.90
   2  -4  -2  481.25   21.90
   2  -4  -2  461.05   22.10
   2   4  -2  539.45   22.20
  -2   4   2  558.74   22.20
   2   4  -2  556.14   21.90
  -2   4   2  575.14   21.90
  -1  -4   2  214.88    9.10
  -1  -4   2  214.78    8.80
   1  -4  -2  206.28    9.00
  -1   4   2  195.98    8.70
   1   4  -2  201.28    9.00
  -1   4   2  204.58    8.70
  -1   4   2  198.88    9.00
   1   4  -2  199.28    8.90
  -1   4   2  195.48    8.90
   0  -4  -2  694.33   29.70
   0  -4   2  681.23   29.80
   0  -4   2  702.03   29.60
   0   4  -2  712.43   29.60
   0   4  -2  673.53   29.70
   0   4   2  696.33   29.70
   0   4   2  695.93   29.50
   0   4   2  700.33   29.70
   1  -4   2  305.37   12.90
   1  -4   2  297.57   13.20
   1  -4   2  305.17   13.10
  -1   4  -2  298.57   13.10
   1   4   2  300.97   13.10
   1   4   2  299.67   13.10
  -1   4  -2  299.77   13.10
   1   4   2  285.97   13.10
   1   4   2  315.87   13.10
   2  -4   2   66.89    3.20
  -2  -4  -2   65.39    3.30
   2  -4   2   56.49    3.40
   2   4   2   72.99    3.30
  -2   4  -2   73.49    3.40
   2   4   2   65.79    3.50
   2   4   2   69.29    3.40
  -2   4  -2   74.79    3.40
  -3  -4  -2  319.07   14.00
   3  -4   2  317.97   14.40
   3  -4   2  334.57   14.00
  -3  -4  -2  323.27   14.20
  -3   4  -2  317.77   14.20
  -3   4  -2  320.77   13.90
   3   4   2  298.87   14.30
   3   4   2  320.47   14.10
   4  -4   2  112.09    6.00
  -4  -4  -2  115.89    5.80
   4  -4   2  109.59    5.60
  -4  -4  -2  118.39    5.40
   4   4   2  118.79    6.10
  -4   4  -2  120.19    5.90
  -4   4  -2  118.29    5.40
   5  -4   2   28.60    2.80
  -5  -4  -2   25.20    2.40
   5  -4   2   28.80    2.30
  -5   4  -2   33.80    2.70
   5   4   2   37.40    2.90
   6  -4   2   69.29    4.80
  -6  -4  -2   71.39    4.40
   6  -4   2   64.89    4.10
  -6   4  -2   62.19    4.20
   6   4   2   61.79    4.70
  -7  -4  -2   17.80    2.60
   7  -4   2   16.80    2.90
   7   4   2   19.20    3.00
  -7   4  -2   18.00    2.60
  -8  -5   2    3.50    2.30
   8  -5  -2    4.00    2.10
  -8  -5   2    2.50    2.00
   8  -5  -2    5.70    2.10
  -8   5   2    0.40    2.10
   8   5  -2    4.20    1.80
  -7  -5   2   28.10    3.30
  -7  -5   2   26.20    2.90
   7  -5  -2   26.30    3.10
   7  -5  -2   30.90    3.10
   7   5  -2   25.60    3.00
  -7   5   2   24.60    3.00
   6  -5  -2   67.89    4.20
  -6  -5   2   61.29    4.40
  -6  -5   2   61.19    4.00
   6  -5  -2   59.69    4.10
  -6   5   2   60.29    4.20
   6   5  -2   60.29    4.20
   6   5  -2   54.69    4.20
   5  -5  -2   18.50    2.10
  -5  -5   2   20.20    2.00
   5  -5  -2   19.30    2.20
  -5  -5   2   18.30    2.40
  -5   5   2   20.40    2.20
   5   5  -2   21.10    2.50
   5   5  -2   22.20    2.20
   4  -5  -2   20.70    1.80
   4  -5  -2   17.20    1.70
  -4  -5   2   20.60    2.00
  -4  -5   2   18.80    1.70
  -4   5   2   19.40    1.10
   4   5  -2   20.50    1.10
   4   5  -2   20.30    1.90
  -4   5   2   22.00    2.10
  -3  -5   2  606.14   25.80
  -3  -5   2  600.54   25.40
   3  -5  -2  604.04   25.60
   3  -5  -2  590.34   25.40
  -3   5   2  580.54   25.60
   3   5  -2  567.24   25.10
  -3   5   2  578.94   25.20
   3   5  -2  581.74   25.60
   2  -5  -2  564.64   23.00
  -2  -5   2  571.24   23.00
   2  -5  -2  569.54   23.20
  -2  -5   2  549.95   23.30
   2   5  -2  517.75   23.20
   2   5  -2  495.55   22.90
  -2   5   2  514.85   22.90
  -2   5   2  501.95   23.20
   1   5  -2   93.59    4.30
  -1   5   2   92.39    4.30
   1   5  -2   97.39    4.40
  -1   5   2   91.79    4.40
   0  -5   2  156.48    8.30
   0   5  -2  202.28    8.40
   0   5   2  197.48    8.50
   0   5  -2  200.68    8.60
   0   5   2  201.48    8.60
   0   5   2  202.58    8.30
  -1   5  -2  202.58    8.80
   1   5   2  204.18    8.90
   1   5   2  201.58    8.80
  -1   5  -2  191.58    8.90
   2  -5   2  566.54   23.40
   2  -5   2  576.44   23.80
  -2   5  -2  537.75   23.50
   2   5   2  533.65   23.50
  -2   5  -2  535.75   23.60
   2   5   2  523.35   23.70
  -3  -5  -2  423.46   19.20
  -3  -5  -2  432.66   19.40
   3  -5   2  410.76   19.20
   3  -5   2  435.26   19.60
   3   5   2  471.75   19.70
  -3   5  -2  471.05   19.50
  -3   5  -2  461.05   19.20
  -4  -5  -2   40.50    2.30
   4  -5   2   41.10    2.50
  -4  -5  -2   40.50    2.70
   4  -5   2   37.50    2.90
  -4   5  -2   43.00    2.80
  -4   5  -2   40.50    2.30
   4   5   2   48.30    3.20
   5  -5   2    9.40    1.80
   5  -5   2   11.80    1.50
  -5  -5  -2    8.10    1.50
   5   5   2    7.60    1.30
  -5   5  -2    8.60    1.50
   5   5   2    8.40    1.70
  -6  -5  -2   20.50    2.40
   6  -5   2   24.00    3.50
   6  -5   2   20.70    2.70
   6   5   2   20.00    2.20
  -6   5  -2   22.20    2.60
   6   5   2   18.50    2.80
   7  -5   2   13.60    2.70
  -7  -5  -2   18.20    2.50
  -7   5  -2   12.60    2.50
   7   5   2   11.20    2.60
   8  -6  -2   -0.80    1.60
  -8  -6   2   -0.40    2.00
  -8  -6   2   -1.50    1.70
   8  -6  -2   -0.10    1.80
  -8   6   2   -1.40    1.90
   8   6  -2    0.90    1.60
   7  -6  -2    5.20    1.70
  -7  -6   2    7.80    2.30
  -7  -6   2    5.70    1.80
   7  -6  -2    3.80    1.80
   7   6  -2    6.00    1.80
  -7   6   2    2.90    1.70
   6  -6  -2  200.98    9.70
   6  -6  -2  191.78    9.50
  -6  -6   2  197.88   10.10
  -6  -6   2  192.88    9.40
  -6   6   2  187.08    9.60
   6   6  -2  185.48    9.70
  -5  -6   2  208.38   10.50
   5  -6  -2  213.68   10.30
   5  -6  -2  220.48   10.20
  -5  -6   2  218.78   10.10
   5   6  -2  216.88   10.40
  -5   6   2  206.98   10.30
   4  -6  -2  231.78   10.40
   4  -6  -2  225.68   10.50
  -4  -6   2  242.78   10.80
  -4  -6   2  230.88   10.30
  -4   6   2  212.88    9.80
   4   6  -2  227.28   10.60
  -4   6   2  220.48   10.50
   4   6  -2  221.18    9.80
  -3  -6   2  214.58   10.00
   3  -6  -2  208.28   10.20
  -3  -6   2  225.08   10.40
   3  -6  -2  224.88   10.10
   3   6  -2  224.08   10.30
   3   6  -2  237.28    9.80
  -3   6   2  232.88    9.90
  -3   6   2  230.58   10.30
  -2  -6   2  417.66   19.10
   2  -6  -2  391.16   19.40
  -2  -6   2  413.66   19.50
   2  -6  -2  409.96   19.10
   2   6  -2  492.55   19.50
  -2   6   2  487.65   19.20
  -2   6   2  479.95   19.40
   2   6  -2  475.35   19.20
   1  -6  -2  128.69    5.40
  -1  -6   2  129.79    5.00
  -1  -6   2  133.39    5.60
   1   6  -2  101.49    5.20
  -1   6   2  112.19    5.30
  -1   6   2   97.19    5.20
   1   6  -2  105.99    5.30
   0  -6   2  313.07   14.00
   0  -6   2  309.77   13.60
   0  -6  -2  305.27   13.80
   0   6  -2  325.57   13.80
   0   6   2  330.87   13.80
   0   6  -2  315.57   13.90
   0   6   2  317.37   13.90
   0   6   2  327.37   13.60
   1  -6   2  186.98    7.90
   1  -6   2  192.18    8.20
   1   6   2  179.18    8.00
   1   6   2  168.98    8.00
  -1   6  -2  175.78    7.90
  -1   6  -2  176.38    8.00
   1   6   2  177.08    8.00
   2  -6   2   25.70    1.90
   2  -6   2   31.30    1.70
  -2   6  -2   30.40    1.80
   2   6   2   28.70    1.90
  -2   6  -2   30.40    1.80
   2   6   2   31.00    1.80
  -3  -6  -2  169.98    7.60
  -3  -6  -2  162.78    7.70
   3  -6   2  168.78    7.60
   3  -6   2  170.58    8.00
  -3   6  -2  166.58    7.60
  -3   6  -2  161.98    7.80
   3   6   2  163.18    7.90
   4  -6   2  103.99    5.60
  -4  -6  -2  102.19    5.20
   4  -6   2   97.59    5.00
  -4  -6  -2  101.89    4.90
  -4   6  -2   99.89    5.30
   4   6   2   99.19    5.60
   4   6   2  106.79    5.20
  -4   6  -2  106.69    4.90
  -5  -6  -2   74.49    4.40
   5  -6   2   79.49    4.80
   5  -6   2   78.89    4.30
  -5   6  -2   74.99    4.60
   5   6   2   77.59    4.80
   5   6   2   85.19    4.50
   6  -6   2   39.90    3.60
  -6  -6  -2   35.90    3.00
  -6   6  -2   32.30    2.90
   6   6   2   30.20    3.50
   6   6   2   32.40    2.90
  -7  -6  -2   14.40    2.20
   7  -6   2   16.90    2.80
  -7   6  -2   14.10    2.50
   7   6   2   17.90    3.00
  -8  -7   2    8.90    2.40
  -8  -7   2    8.90    2.60
   8  -7  -2    9.70    2.50
   8  -7  -2   11.60    2.40
   8   7  -2    9.60    2.30
  -8   7   2    7.50    2.30
  -7  -7   2   37.10    3.90
   7  -7  -2   32.90    3.30
  -7  -7   2   31.50    3.10
   7  -7  -2   29.90    3.40
  -7   7   2   33.20    3.60
   7   7  -2   32.10    3.30
  -6  -7   2   83.09    5.50
   6  -7  -2   91.29    5.20
  -6  -7   2   82.29    4.90
   6  -7  -2   88.29    5.10
   6   7  -2   83.29    5.20
  -6   7   2   77.09    5.20
   5  -7  -2  157.28    7.30
   5  -7  -2  134.29    7.10
  -5  -7   2  137.69    7.60
  -5  -7   2  141.59    7.00
   5   7  -2  144.79    7.30
  -5   7   2  137.39    7.30
   4  -7  -2   76.69    4.00
  -4  -7   2   75.89    4.40
   4  -7  -2   80.69    4.30
  -4  -7   2   76.49    3.90
   4   7  -2   73.49    3.50
  -4   7   2   71.49    4.20
   4   7  -2   71.59    4.20
  -4   7   2   71.59    3.50
  -3  -7   2   85.59    4.00
   3  -7  -2   84.69    4.30
   3  -7  -2   85.39    4.00
  -3  -7   2   92.09    4.60
  -3   7   2   82.79    4.40
   3   7  -2   76.39    3.90
   3   7  -2   78.39    4.30
  -3   7   2   77.39    3.90
  -2  -7   2  217.98    9.30
  -2  -7   2  216.38    8.70
   2  -7  -2  210.78    9.10
   2  -7  -2  208.48    8.70
   2   7  -2  181.38    9.00
  -2   7   2  181.28    9.00
  -2   7   2  179.18    8.80
  -1  -7   2  443.76   17.70
   1  -7  -2  418.56   18.10
  -1  -7   2  449.95   18.30
  -1   7   2  409.96   18.00
   1   7  -2  389.56   18.00
   1   7  -2  403.06   18.00
  -1   7   2  395.26   18.00
   0  -7   2  664.53   29.00
   0  -7  -2  658.03   28.90
   0  -7  -2  657.23   28.70
   0   7   2  679.63   28.80
   0   7  -2  677.83   28.80
   0   7  -2  666.83   28.90
   0   7  -2  694.63   28.70
   0   7   2  693.13   28.90
   1  -7   2  173.68    7.50
   1  -7   2  180.38    7.20
   1   7   2  159.08    7.40
   1   7   2  155.78    7.30
   1   7   2  163.18    7.30
   1   7   2  145.49    7.30
  -1   7  -2  160.48    7.40
   2  -7   2  668.13   29.40
   2  -7   2  637.84   29.00
   2   7   2  690.23   29.10
  -2   7  -2  676.63   29.20
  -2   7  -2  661.53   29.20
   2   7   2  719.13   29.40
   2   7   2  674.93   29.20
   2   7   2  696.13   29.20
   3  -7   2  511.15   23.80
  -3  -7  -2  530.65   23.50
   3  -7   2  513.85   23.40
   3   7   2  545.75   23.80
   3   7   2  562.34   23.40
  -3   7  -2  546.25   23.60
  -3   7  -2  554.84   23.40
   3   7   2  560.34   23.60
   4  -7   2   13.20    1.40
   4  -7   2   15.30    1.80
  -4  -7  -2   10.70    1.20
  -4  -7  -2   11.60    1.40
   4   7   2   17.70    2.10
  -4   7  -2   12.50    1.60
  -4   7  -2   15.30    1.40
   4   7   2   14.90    1.60
   5  -7   2   11.30    1.50
  -5  -7  -2   10.50    1.60
   5  -7   2   10.50    1.90
   5   7   2   11.30    2.10
   5   7   2   16.70    1.80
  -5   7  -2   12.40    1.80
  -6  -7  -2   20.20    2.40
   6  -7   2   14.90    2.40
   6   7   2   21.60    2.40
   6   7   2   17.40    2.60
  -6   7  -2   15.90    2.30
   7  -7   2   13.40    2.60
  -7  -7  -2   16.10    2.50
   7   7   2   12.30    2.60
  -7   7  -2   12.50    2.40
  -8  -8   2   -0.10    2.20
  -8  -8   2    0.00    1.90
   8  -8  -2    0.00    1.60
   8  -8  -2   -0.70    1.70
   8   8  -2    0.20    1.70
  -8   8   2   -3.40    2.00
   7  -8  -2    2.40    1.60
  -7  -8   2    2.40    1.60
  -7  -8   2    4.20    2.00
   7  -8  -2    3.00    1.60
   7   8  -2    2.00    1.60
  -7   8   2    1.30    1.70
   6  -8  -2   75.89    4.70
  -6  -8   2   75.19    5.10
   6  -8  -2   77.59    4.60
  -6  -8   2   76.19    4.40
  -6   8   2   64.99    4.80
   6   8  -2   64.59    4.60
   5  -8  -2  115.29    6.10
  -5  -8   2  124.59    6.00
  -5  -8   2  115.09    6.60
   5  -8  -2  108.79    6.20
   5   8  -2  129.39    6.50
  -5   8   2  121.89    6.40
  -4  -8   2  267.17   11.50
   4  -8  -2  247.78   11.80
  -4  -8   2  255.07   12.10
   4  -8  -2  267.17   11.60
   4   8  -2  254.77   11.20
   4   8  -2  246.58   11.80
  -4   8   2  250.97   11.20
  -4   8   2  255.17   11.90
   3  -8  -2  232.18   10.50
  -3  -8   2  241.38   10.10
  -3  -8   2  223.58   10.60
   3  -8  -2  234.28   10.20
  -3   8   2  218.28   10.40
   3   8  -2  224.38   10.50
  -3   8   2  221.38   10.10
   3   8  -2  225.98   10.10
  -2   8   2   12.20    1.00
   2   8  -2   12.50    1.20
  -2   8   2   12.70    1.30
  -1  -8   2  429.96   17.20
  -1  -8   2  415.76   16.60
   1  -8  -2  414.36   17.10
   1   8  -2  383.76   17.00
  -1   8   2  378.46   17.00
  -1   8   2  378.46   16.90
   1   8  -2  356.56   16.90
   1   8  -2  367.86   16.60
   0  -8   2  278.87   13.30
   0  -8  -2  307.47   12.90
   0  -8  -2  294.87   13.20
   0   8  -2  304.47   13.20
   0   8   2  304.57   13.10
   0   8  -2  294.77   13.10
   0   8  -2  298.07   12.90
   0   8   2  318.77   13.20
   1  -8   2  737.63   30.30
   1  -8   2  748.93   30.60
   1   8   2  730.73   30.40
  -1   8  -2  629.14   30.30
   1   8   2  700.93   30.50
   1   8   2  716.53   30.40
  -1   8  -2  716.33   30.50
   1   8   2  687.23   30.30
   2  -8   2  154.28    6.50
  -2   8  -2  132.39    6.20
   2   8   2  128.39    6.30
  -2   8  -2  131.59    6.20
   2   8   2  132.29    6.20
   2   8   2  130.79    6.10
   2   8   2  122.99    6.20
  -3  -8  -2  152.88    7.10
   3  -8   2  147.59    7.30
   3  -8   2  153.38    7.00
  -3   8  -2  155.88    7.00
   3   8   2  152.18    6.90
  -3   8  -2  150.68    7.20
   3   8   2  140.09    7.30
   3   8   2  152.28    7.10
   4  -8   2  125.99    6.30
  -4  -8  -2  125.39    6.40
  -4  -8  -2  132.49    6.20
   4  -8   2  116.79    6.60
   4   8   2  129.19    6.80
  -4   8  -2  135.19    6.60
   4   8   2  140.79    6.50
  -4   8  -2  138.99    6.20
   5  -8   2   97.09    5.70
  -5  -8  -2   90.79    5.20
   5  -8   2   95.89    5.10
  -5   8  -2   98.29    5.40
   5   8   2  102.29    5.40
   5   8   2  104.79    5.90
   6  -8   2   31.00    3.40
  -6  -8  -2   25.60    2.60
   6   8   2   18.20    2.30
   6   8   2   20.60    2.90
  -6   8  -2   22.20    2.70
  -7  -8  -2   16.00    2.30
   7  -8   2   16.90    2.90
  -7   8  -2   16.50    2.70
   7   8   2   19.30    3.00
   8  -9  -2    9.00    2.30
  -8  -9   2    9.20    2.70
   8  -9  -2    8.70    3.70
   8   9  -2    4.20    2.00
  -8   9   2    2.90    2.10
   7  -9  -2   24.70    2.90
  -7  -9   2   25.50    2.80
   7  -9  -2   20.70    2.80
  -7  -9   2   20.90    3.10
   7   9  -2   19.90    2.70
  -7   9   2   20.50    2.90
  -6  -9   2   15.00    2.60
   6  -9  -2   14.80    2.20
  -6  -9   2   12.20    1.90
   6  -9  -2   13.90    2.10
   6   9  -2   17.30    2.30
  -6   9   2   18.80    2.60
  -5  -9   2   53.19    4.00
   5  -9  -2   51.49    3.50
  -5  -9   2   51.79    3.20
   5  -9  -2   45.90    3.30
   5   9  -2   55.49    3.60
  -5   9   2   54.89    3.60
   4  -9  -2   73.09    4.00
  -4  -9   2   76.69    4.60
  -4  -9   2   77.29    3.90
   4  -9  -2   79.29    4.30
  -4   9   2   74.99    3.70
   4   9  -2   74.99    3.70
   4   9  -2   79.49    4.40
  -4   9   2   75.69    4.40
   3  -9  -2   49.10    2.60
  -3  -9   2   53.59    2.60
   3  -9  -2   48.30    2.90
  -3  -9   2   48.50    3.10
  -3   9   2   46.70    2.60
   3   9  -2   48.70    3.00
   3   9  -2   47.00    2.60
  -3   9   2   44.90    2.90
   2  -9  -2  189.48    9.30
   2  -9  -2  193.88    8.90
  -2  -9   2  207.88    9.50
  -2  -9   2  192.28    8.80
   2   9  -2  211.28    9.30
  -2   9   2  209.08    9.10
  -2   9   2  211.08    9.30
   2   9  -2  215.78    9.10
   1  -9  -2  316.87   14.70
  -1  -9   2  310.87   15.20
   1  -9  -2  324.07   15.10
  -1   9   2  380.76   15.10
   1   9  -2  345.17   15.10
  -1   9   2  361.96   15.10
   1   9  -2  374.96   15.20
   0  -9   2 1220.68   53.49
   0  -9  -2 1194.98   53.09
   0  -9  -2 1209.88   53.39
   0   9  -2 1297.37   52.99
   0   9  -2 1301.77   53.29
   0   9   2 1285.97   53.19
   0   9   2 1232.38   53.39
   0   9  -2 1259.77   53.39
   1  -9   2 1005.90   42.90
   1  -9   2  943.61   42.60
   1   9   2 1033.40   42.80
  -1   9  -2 1021.40   42.80
   1   9   2  956.60   42.60
   1   9   2 1031.20   42.70
   1   9   2  995.60   42.80
  -1   9  -2 1003.10   42.60
   2  -9   2  408.46   18.00
   2  -9   2  394.26   17.60
  -2   9  -2  414.76   17.80
  -2   9  -2  409.56   17.80
   2   9   2  414.36   17.70
   2   9   2  413.66   17.80
   2   9   2  399.96   17.90
   2   9   2  395.96   17.80
   3  -9   2  242.08   11.90
  -3  -9  -2  247.48   11.60
   3  -9   2  235.08   11.50
   3   9   2  276.27   11.60
   3   9   2  277.57   12.00
   3   9   2  271.97   11.70
  -3   9  -2  259.17   11.60
  -3   9  -2  261.87   11.70
   3   9   2  262.87   11.80
  -4  -9  -2    3.50    0.80
   4  -9   2    1.30    1.00
  -4  -9  -2    3.00    1.00
   4  -9   2    5.10    1.00
  -4   9  -2    4.00    0.90
   4   9   2    1.70    1.10
  -4   9  -2    1.90    1.00
   4   9   2    3.30    1.10
   5  -9   2   38.90    3.20
   5  -9   2   35.80    2.70
  -5  -9  -2   38.80    2.90
  -5   9  -2   42.80    3.10
   5   9   2   41.90    3.00
   5   9   2   41.00    3.30
  -6  -9  -2   16.00    2.10
   6  -9   2   15.80    2.60
  -6   9  -2   19.10    2.40
   6   9   2   14.10    2.50
   6   9   2   21.60    2.40
   7  -9   2    9.60    2.50
  -7  -9  -2   11.60    2.20
  -7   9  -2    7.40    2.20
   7   9   2   12.70    2.70
  -8 -10   2    1.90    2.40
   8 -10  -2    1.40    1.90
  -8  10   2    1.80    2.30
   8  10  -2    3.40    1.90
   7 -10  -2    3.40    1.70
  -7 -10   2    3.70    2.20
   7 -10  -2    2.80    1.70
  -7 -10   2    2.10    2.80
   7  10  -2    4.10    1.80
  -7  10   2    2.10    2.10
   6 -10  -2   12.50    1.90
   6 -10  -2   10.00    1.90
  -6 -10   2   10.50    2.30
  -6 -10   2    9.30    1.70
   6  10  -2    5.60    1.70
  -6  10   2    7.00    2.10
  -5 -10   2  116.89    6.80
   5 -10  -2  123.99    6.50
   5 -10  -2  125.99    6.30
  -5 -10   2  118.59    6.10
  -5  10   2  122.09    6.60
   5  10  -2  126.99    6.60
  -4 -10   2  288.17   12.60
  -4 -10   2  279.47   13.30
   4 -10  -2  279.67   13.10
   4 -10  -2  279.27   12.70
  -4  10   2  287.37   12.50
   4  10  -2  283.27   13.10
  -4  10   2  285.27   13.10
   4  10  -2  283.87   12.50
   3 -10  -2  218.98   10.60
  -3 -10   2  210.98   10.10
   3 -10  -2  211.08   10.20
  -3 -10   2  206.68   10.70
   3  10  -2  246.38   10.70
  -3  10   2  247.48   10.60
   3  10  -2  250.17   10.30
  -3  10   2  243.98   10.30
   2 -10  -2  233.38   11.10
  -2 -10   2  235.78   11.00
  -2 -10   2  230.18   11.70
   2 -10  -2  235.58   11.50
  -2  10   2  284.07   11.50
   2  10  -2  287.97   11.70
  -2  10   2  282.87   11.60
   2  10  -2  272.37   11.40
   1 -10  -2  207.88    8.90
  -1 -10   2  211.88    9.10
   1 -10  -2  205.88    8.40
   1  10  -2  188.28    8.80
  -1  10   2  185.78    8.70
   1  10  -2  176.38    8.70
  -1  10   2  182.68    8.70
   0 -10  -2  495.45   22.30
   0 -10   2  497.25   22.30
   0 -10  -2  531.25   22.00
   0  10  -2  517.85   21.80
   0  10   2  522.65   22.20
   0  10  -2  511.85   22.30
   0  10   2  510.15   22.10
   0  10  -2  514.35   22.20
   1 -10   2  187.08    8.10
  -1 -10  -2  178.48    7.90
   1  10   2  163.78    7.90
  -1  10  -2  172.98    7.70
  -1  10  -2  167.58    7.90
   1  10   2  169.78    7.90
   1  10   2  170.58    7.80
   2 -10   2   91.79    4.60
   2 -10   2   85.79    4.20
   2  10   2   82.09    4.40
   2  10   2   79.79    4.20
  -2  10  -2   92.09    4.40
   2  10   2   86.09    4.40
   2  10   2   89.39    4.30
  -2  10  -2   87.99    4.30
   3 -10   2  153.48    7.50
  -3 -10  -2  157.68    7.20
   3 -10   2  147.99    7.10
  -3  10  -2  154.58    7.30
   3  10   2  155.68    7.10
   3  10   2  149.49    7.10
   3  10   2  148.79    7.50
   3  10   2  155.28    7.30
  -3  10  -2  154.08    7.20
   4 -10   2   53.29    3.50
   4 -10   2   52.69    3.10
  -4 -10  -2   52.49    3.20
   4  10   2   53.19    3.00
   4  10   2   55.09    3.70
   4  10   2   55.29    3.30
  -4  10  -2   53.89    3.00
  -4  10  -2   52.29    3.40
   5 -10   2   46.70    3.60
  -5 -10  -2   47.70    3.10
   5 -10   2   48.00    3.00
   5  10   2   44.40    3.20
   5  10   2   42.30    3.70
  -5  10  -2   42.70    3.20
   6 -10   2   14.80    2.50
  -6 -10  -2   15.40    2.00
  -6  10  -2   12.40    2.20
   6  10   2   10.50    2.40
   6  10   2   14.40    2.20
   7 -10   2   10.30    2.60
  -7 -10  -2   12.00    2.20
   7  10   2   11.50    3.10
  -7  10  -2   12.40    2.50
   7  10   2   16.40    3.10
   7 -11  -2   11.00    2.60
   7 -11  -2    9.70    2.10
  -7 -11   2   13.10    2.90
  -7  11   2   12.20    2.60
   7  11  -2   14.20    2.60
  -6 -11   2   12.70    1.80
   6 -11  -2   11.90    2.00
  -6 -11   2   10.40    2.40
   6 -11  -2   13.80    2.20
   6  11  -2   21.40    2.70
  -6  11   2   17.80    2.60
   5 -11  -2   23.60    2.20
  -5 -11   2   26.10    3.00
  -5 -11   2   21.00    2.10
   5 -11  -2   28.10    2.70
  -5  11   2   27.40    2.80
   5  11  -2   29.10    2.70
   4 -11  -2   10.00    1.30
   4 -11  -2    7.00    1.50
  -4 -11   2    8.40    1.10
  -4 -11   2    9.70    1.80
  -4  11   2    7.30    1.00
  -4  11   2    8.60    1.50
   4  11  -2    7.50    1.00
   4  11  -2    7.60    1.50
  -3 -11   2  142.79    6.30
   3 -11  -2  144.89    6.50
  -3 -11   2  137.29    7.10
   3 -11  -2  136.29    6.80
  -3  11   2  136.89    6.50
   3  11  -2  141.99    6.50
   3  11  -2  133.19    6.80
  -3  11   2  141.79    6.90
   2 -11  -2  247.18   10.80
  -2 -11   2  241.08   10.70
   2 -11  -2  227.18   11.30
  -2 -11   2  239.48   11.50
   2  11  -2  260.97   11.20
  -2  11   2  258.47   11.30
   2  11  -2  255.87   11.40
  -2  11   2  263.47   11.20
   1 -11  -2   80.99    5.10
  -1  11   2  111.39    5.10
   1  11  -2  114.89    5.20
  -1  11   2  113.59    5.10
   1  11  -2  112.29    5.20
   0 -11  -2  812.72   35.40
   0 -11  -2  814.02   35.70
   0 -11   2  811.32   35.80
   0  11  -2  826.92   35.60
   0  11  -2  849.91   35.20
   0  11  -2  858.21   35.70
   0  11   2  828.12   35.60
  -1 -11  -2  172.48    8.30
  -1 -11  -2  167.28    8.40
   1 -11   2  172.28    8.40
   1  11   2  192.38    8.40
   1  11   2  187.78    8.40
  -1  11  -2  192.88    8.10
  -1  11  -2  193.18    8.40
   2 -11   2   83.09    4.50
   2 -11   2   79.69    4.20
   2  11   2   84.69    4.40
   2  11   2   86.89    4.30
  -2  11  -2   87.59    4.30
  -2  11  -2   90.89    4.40
   2  11   2   91.19    4.50
   3 -11   2  125.19    6.50
   3 -11   2  127.79    6.80
   3  11   2  145.89    6.90
   3  11   2  143.89    6.50
  -3  11  -2  137.39    6.60
  -3  11  -2  143.29    6.70
   3  11   2  141.09    6.70
   4 -11   2   14.90    2.00
   4 -11   2   13.20    1.50
  -4 -11  -2   12.70    1.50
   4  11   2   13.70    2.00
  -4  11  -2   14.50    1.60
  -4  11  -2   13.70    1.80
   4  11   2   12.20    1.40
   4  11   2   15.00    1.80
   5 -11   2   31.70    2.50
  -5 -11  -2   32.60    2.60
   5 -11   2   27.60    2.90
   5  11   2   34.10    3.30
  -5  11  -2   33.70    2.80
   5  11   2   35.80    2.80
   6 -11   2   15.50    2.60
  -6 -11  -2   14.80    2.10
  -6  11  -2   15.90    2.30
   6  11   2   15.60    2.80
   6  11   2   17.80    2.30
   7 -11   2   12.40    2.60
  -7 -11  -2   13.50    2.30
   7  11   2   15.60    2.70
  -7  11  -2   12.90    2.50
   7  11   2   10.90    2.80
  -7 -12   2    8.00    2.60
   7 -12  -2    8.10    2.00
  -7  12   2    5.80    2.40
   7  12  -2   10.10    2.30
   6 -12  -2   12.40    2.10
   6 -12  -2   14.60    2.10
  -6 -12   2   14.60    2.60
  -6  12   2   10.00    2.30
   6  12  -2   10.00    2.00
  -5 -12   2  208.98   10.60
  -5 -12   2  213.48    9.70
   5 -12  -2  210.58    9.90
   5 -12  -2  205.08   10.10
  -5  12   2  201.18   10.20
   5  12  -2  210.28   10.30
   4 -12  -2  165.48    8.40
   4 -12  -2  161.88    8.00
  -4 -12   2  166.98    8.70
  -4 -12   2  170.38    7.80
  -4  12   2  178.88    8.50
   4  12  -2  170.88    8.50
  -4  12   2  176.08    7.90
   4  12  -2  178.88    7.90
   3 -12  -2   98.29    5.00
  -3 -12   2   96.49    4.40
   3 -12  -2   96.89    4.50
  -3 -12   2   87.59    5.20
   3  12  -2   89.39    4.90
   3  12  -2   90.79    4.60
  -3  12   2   95.39    5.00
  -3  12   2   93.99    4.70
   2 -12  -2  413.96   18.60
   2 -12  -2  407.46   18.10
  -2 -12   2  420.56   18.80
  -2  12   2  433.16   18.40
   2  12  -2  421.56   18.40
  -2  12   2  424.26   18.50
   1 -12  -2  300.47   13.10
   1 -12  -2  292.47   12.60
  -1 -12   2  312.97   13.30
   1  12  -2  291.57   13.00
  -1  12   2  277.77   13.00
   1  12  -2  295.67   13.00
  -1  12   2  270.57   12.80
   0 -12   2    1.90    1.00
   0 -12  -2    1.30    0.60
   0 -12  -2    2.40    0.70
   0  12  -2    0.70    0.50
   0  12   2    0.60    0.40
   0  12  -2    0.40    0.60
   0  12   2    0.10    0.60
   0  12  -2    0.90    0.30
   1 -12   2  282.47   14.20
  -1 -12  -2  325.57   14.20
  -1 -12  -2  323.27   14.40
   1 -12   2  331.67   14.50
   1  12   2  334.57   14.30
   1  12   2  326.67   14.10
  -1  12  -2  325.17   14.00
  -1  12  -2  329.47   14.40
   2 -12   2  133.99    6.70
   2 -12   2  141.69    6.50
   2  12   2  140.79    6.70
   2  12   2  139.49    6.40
  -2  12  -2  140.79    6.60
   2  12   2  137.39    6.60
   2  12   2  136.19    6.70
   3 -12   2    8.80    1.20
   3 -12   2    7.10    1.30
   3  12   2    8.70    1.50
   3  12   2    8.40    1.30
  -3  12  -2    8.70    1.30
  -3  12  -2    6.90    1.10
  -4  12  -2   14.60    1.80
   4  12   2   17.10    1.90
  -4  12  -2   15.80    1.70
   4  12   2   18.50    2.30
   4  12   2   17.00    1.60
   5 -12   2   59.49    4.20
  -5 -12  -2   60.49    3.70
   5 -12   2   61.29    3.70
   5  12   2   61.59    4.00
  -5  12  -2   57.99    3.90
   5  12   2   58.79    4.20
   6 -12   2    5.40    2.00
  -6 -12  -2    7.50    1.70
   6  12   2    5.60    1.60
  -6  12  -2    4.80    1.80
   6  12   2    6.90    2.20
  -7 -12  -2    2.40    1.70
   7 -12   2    2.40    2.00
  -7  12  -2    4.90    1.90
   7  12   2    6.00    2.00
   7  12   2    7.10    2.50
  -7 -13   2   18.00    3.20
   7 -13  -2   20.70    2.70
   7  13  -2   16.60    2.80
  -7  13   2   16.70    3.00
  -6 -13   2    3.70    1.80
   6 -13  -2    5.20    1.70
   6  13  -2    9.30    2.10
  -6  13   2    5.10    2.00
   5 -13  -2   13.10    1.80
   5 -13  -2   17.00    2.30
  -5 -13   2   12.10    2.30
   5  13  -2   16.70    2.30
  -5  13   2   14.70    2.30
   4 -13  -2   59.59    3.80
   4 -13  -2   59.59    3.40
  -4 -13   2   61.29    3.20
  -4 -13   2   63.49    4.20
  -4  13   2   61.29    4.00
   4  13  -2   63.89    3.30
  -4  13   2   57.29    3.30
   4  13  -2   58.29    3.90
  -3 -13   2   97.59    5.40
   3 -13  -2   97.69    4.60
  -3 -13   2   93.89    4.30
   3 -13  -2   93.19    5.00
  -3  13   2   85.99    5.00
  -3  13   2   91.99    4.70
   2 -13  -2   72.99    3.30
  -2 -13   2   71.39    4.10
   2 -13  -2   70.39    3.90
  -2  13   2   61.19    3.60
   2  13  -2   65.09    3.80
  -2  13   2   65.49    3.70
   2  13  -2   69.29    3.70
  -1 -13   2  510.65   21.40
   1 -13  -2  481.55   20.70
   1 -13  -2  471.25   21.20
   1  13  -2  478.35   21.20
   1  13  -2  473.85   21.10
  -1  13   2  488.25   21.00
  -1  13   2  480.75   21.20
   0 -13  -2  852.51   36.80
   0 -13  -2  877.21   36.40
   0 -13   2  868.81   36.70
   0 -13   2  861.01   36.90
   0  13  -2  834.62   36.70
   0  13   2  847.72   36.50
   0  13   2  836.22   36.70
   0  13  -2  851.81   36.20
   0  13  -2  838.82   36.80
   1 -13   2  252.07   11.80
   1 -13   2  248.68   11.70
  -1 -13  -2  260.07   11.70
  -1 -13  -2  240.18   11.80
   1  13   2  266.37   11.50
  -1  13  -2  268.07   11.40
  -1  13  -2  271.07   11.80
   1  13   2  276.47   11.80
   2 -13   2   85.39    4.90
  -2 -13  -2   90.09    4.90
   2  13   2   98.69    4.90
   2  13   2   99.39    4.60
  -2  13  -2   97.89    4.90
   2  13   2  100.19    4.80
   3 -13   2    4.20    1.00
   3 -13   2    3.40    1.10
   3  13   2    5.50    1.00
   3  13   2    6.80    1.40
   3  13   2    6.40    1.30
  -3  13  -2    6.10    1.10
   3  13   2    8.20    1.10
  -3  13  -2    5.70    1.10
   4 -13   2   14.70    2.00
  -4 -13  -2   16.00    1.70
   4 -13   2   15.50    1.70
  -4  13  -2   15.50    1.70
   4  13   2   18.30    2.00
   4  13   2   15.30    1.60
   4  13   2   15.10    2.20
  -4  13  -2   16.40    1.90
   5 -13   2    1.80    1.40
  -5 -13  -2    2.20    1.10
   5 -13   2    1.50    1.10
   5  13   2    1.10    1.30
   5  13   2    4.00    1.80
  -5  13  -2    0.90    1.40
  -6 -13  -2   11.70    1.90
   6 -13   2    8.90    2.00
  -6  13  -2   15.70    2.40
   6  13   2   11.30    2.10
   6  13   2    9.60    2.40
   7 -13   2   22.20    3.20
  -7 -13  -2   22.30    3.40
   7  13   2   20.50    2.90
   7  13   2   20.20    3.50
  -7  13  -2   20.70    3.20
  -7 -14   2    3.10    2.10
   7 -14  -2    6.70    2.10
   7  14  -2    8.70    2.30
  -7  14   2    5.60    2.40
   6 -14  -2   20.60    2.60
  -6 -14   2   17.20    2.80
   6  14  -2   17.10    2.60
  -6  14   2   19.10    2.70
   5 -14  -2  127.39    6.50
   5 -14  -2  130.29    6.90
  -5 -14   2  123.89    7.30
   5  14  -2  126.49    7.00
  -5  14   2  125.99    6.90
   4 -14  -2   60.19    3.10
  -4 -14   2   60.69    4.10
  -4  14   2   43.60    3.30
   4  14  -2   45.90    3.40
   4  14  -2   44.50    2.90
  -4  14   2   46.50    2.90
   3 -14  -2   82.99    4.60
  -3 -14   2   88.39    4.30
  -3 -14   2   83.59    5.10
   3 -14  -2   79.29    4.10
   3  14  -2   86.09    4.70
  -3  14   2   82.39    4.70
  -3  14   2   86.89    4.40
   2 -14  -2  410.66   18.80
  -2 -14   2  392.06   18.90
   2 -14  -2  393.26   18.20
  -2  14   2  454.55   18.60
   2  14  -2  428.56   18.80
  -2  14   2  432.86   18.60
   2  14  -2  439.86   18.60
  -1 -14   2    8.60    1.40
   1 -14  -2   10.50    0.90
   1 -14  -2    9.80    1.30
  -1  14   2    6.00    0.90
   1  14  -2    7.40    1.10
   1  14  -2    6.70    1.10
  -1  14   2    8.70    1.20
   0 -14   2   24.10    1.70
   0 -14  -2   20.10    1.80
   0 -14  -2   18.00    1.50
   0 -14   2   21.60    2.00
   0  14   2   18.70    1.70
   0  14   2   20.00    1.40
   0  14  -2   18.50    1.10
   0  14  -2   19.70    1.80
   1 -14   2  296.97   13.20
   1 -14   2  294.27   13.30
  -1 -14  -2  296.57   13.10
  -1 -14  -2  295.47   13.30
   1  14   2  290.57   13.20
   1  14   2  287.57   12.90
  -1  14  -2  294.37   13.20
  -1  14  -2  291.77   12.80
  -2 -14  -2  141.99    7.50
   2 -14   2  146.19    7.50
  -2  14  -2  163.38    7.30
   2  14   2  159.88    7.10
   2  14   2  160.08    7.40
  -2  14  -2  158.88    7.50
   2  14   2  158.58    7.60
  -3 -14  -2    8.80    1.60
   3 -14   2    7.80    1.40
   3 -14   2    8.70    1.20
  -3  14  -2    9.20    1.30
   3  14   2    9.00    1.20
  -3  14  -2    8.40    1.30
   3  14   2    6.90    1.20
   3  14   2    8.80    1.50
   4 -14   2   23.40    2.10
  -4 -14  -2   26.80    2.10
   4 -14   2   25.50    2.50
   4  14   2   26.90    2.70
   4  14   2   26.10    2.10
  -4  14  -2   26.10    2.10
   4  14   2   27.10    2.40
  -4  14  -2   25.70    2.30
   5 -14   2   74.19    4.40
  -5 -14  -2   72.89    4.30
   5 -14   2   74.59    4.90
  -5  14  -2   70.19    4.60
   5  14   2   73.89    5.00
   5  14   2   78.49    4.70
  -6 -14  -2    5.60    1.60
   6 -14   2    9.20    2.20
   6  14   2   11.60    2.20
   6  14   2    9.70    2.30
  -6  14  -2   10.30    2.20
  -7 -14  -2    6.30    2.40
   7 -14   2    4.60    2.20
   7  14   2    5.90    2.50
  -7  14  -2    2.00    1.90
   7  14   2    6.40    2.00
   7 -15  -2   13.80    2.50
  -7 -15   2   10.40    2.70
  -7  15   2   12.20    2.90
   7  15  -2   13.10    2.60
  -6 -15   2   13.10    2.80
   6 -15  -2   17.90    2.60
   6  15  -2   12.10    2.20
  -6  15   2    9.90    2.40
   5 -15  -2   81.99    4.80
  -5 -15   2   60.39    4.70
  -5  15   2   65.69    4.70
   5  15  -2   73.99    4.60
   4 -15  -2   72.09    4.00
   4 -15  -2   73.29    4.50
  -4 -15   2   73.59    4.90
  -4  15   2   76.39    4.10
  -4  15   2   74.69    4.50
   4  15  -2   78.79    4.70
   4  15  -2   79.39    4.10
   3 -15  -2  237.78   10.80
   3 -15  -2  231.98   10.10
  -3 -15   2  223.28   11.00
  -3  15   2  226.78   10.60
   3  15  -2  214.68   10.30
   3  15  -2  224.98   10.70
  -3  15   2  221.38   10.40
  -2 -15   2  277.27   12.60
   2 -15  -2  278.07   12.40
   2 -15  -2  261.27   11.70
  -2  15   2  268.67   12.20
  -2  15   2  266.97   12.20
   2  15  -2  264.97   12.40
   2  15  -2  264.07   12.20
  -1 -15   2  192.88    9.50
   1 -15  -2  193.48    8.80
   1 -15  -2  191.98    9.40
   1  15  -2  206.88    9.40
   1  15  -2  204.98    9.30
  -1  15   2  206.28    9.30
   0 -15   2  302.07   13.70
   0 -15   2  305.37   13.90
   0 -15  -2  308.07   13.50
   0 -15  -2  303.57   13.90
   0  15  -2  319.07   13.90
   0  15   2  297.87   13.40
   0  15  -2  307.57   13.10
   0  15   2  304.77   13.80
  -1 -15  -2  563.44   24.80
   1 -15   2  542.35   24.80
  -1 -15  -2  544.75   25.00
   1 -15   2  550.14   25.00
  -1  15  -2  583.24   24.50
   1  15   2  598.44   24.60
   1  15   2  570.74   24.90
  -1  15  -2  599.34   25.00
   2 -15   2  101.99    5.30
   2 -15   2  105.89    5.60
  -2 -15  -2  106.99    5.50
   2  15   2  108.29    5.40
   2  15   2  108.99    5.10
   2  15   2  110.59    5.60
  -2  15  -2  109.49    5.50
  -2  15  -2  105.19    5.20
   3 -15   2   17.60    2.00
  -3 -15  -2   17.40    2.20
  -3  15  -2   16.40    1.90
  -3  15  -2   17.80    1.80
   3  15   2   15.50    1.90
   3  15   2   16.60    1.70
   3  15   2   18.20    1.60
  -4 -15  -2    6.80    1.70
   4 -15   2   12.50    1.60
  -4 -15  -2    6.60    1.20
   4 -15   2    7.90    1.70
  -4  15  -2    7.40    1.40
   4  15   2    7.80    1.60
   4  15   2    8.90    1.40
  -4  15  -2    8.50    1.50
  -5 -15  -2    1.90    1.50
   5 -15   2    3.20    1.50
   5 -15   2    3.30    1.30
  -5 -15  -2    2.10    1.10
   5  15   2    3.00    1.40
  -5  15  -2    1.00    1.30
   6 -15   2   10.30    2.20
  -6 -15  -2   15.20    2.70
   6  15   2   11.90    2.20
  -6  15  -2    9.40    2.20
  -7 -15  -2   17.40    3.20
   7 -15   2   16.10    3.00
  -7  15  -2   14.60    2.90
   7  15   2   16.10    2.70
   7 -16  -2    3.80    2.00
  -7 -16   2    4.30    2.30
   7  16  -2    4.20    2.00
  -7  16   2    2.00    2.30
  -6 -16   2   10.10    2.70
   6 -16  -2    6.90    1.90
  -6  16   2    8.90    2.30
   6  16  -2    8.30    2.10
   5 -16  -2  138.29    7.50
  -5 -16   2  147.29    8.10
  -5  16   2  138.49    7.60
   5  16  -2  141.69    7.70
  -4 -16   2  108.69    6.50
   4 -16  -2  110.09    6.20
  -4  16   2  115.39    5.70
   4  16  -2  117.59    6.30
   4  16  -2  121.19    5.80
  -4  16   2  110.79    6.10
  -3 -16   2   60.79    4.60
   3 -16  -2   59.79    4.10
   3 -16  -2   64.69    3.70
   3  16  -2   80.69    4.10
  -3  16   2   83.59    4.40
  -3  16   2   85.89    4.10
   3  16  -2   78.09    4.40
   2 -16  -2  119.49    5.30
   2 -16  -2  124.69    6.10
  -2 -16   2  115.79    6.20
   2  16  -2  111.29    5.90
   2  16  -2  111.29    5.80
  -2  16   2  112.39    5.80
  -2  16   2  110.89    5.70
  -1 -16   2   72.19    4.00
   1 -16  -2   70.29    3.90
   1 -16  -2   71.09    3.30
  -1  16   2   52.99    3.40
   1  16  -2   66.19    3.80
  -1  16   2   65.09    3.70
   1  16  -2   65.89    3.80
   0 -16  -2   81.99    4.10
   0 -16  -2   82.69    4.50
   0 -16   2   79.89    4.30
   0 -16   2   73.49    4.50
   0  16  -2   85.79    4.50
   0  16   2   89.39    4.10
   0  16   2   84.39    4.40
   0  16  -2   80.29    3.70
  -1 -16  -2   66.49    3.80
  -1 -16  -2   74.09    4.00
   1 -16   2   69.49    4.00
   1 -16   2   78.99    3.90
  -1  16  -2   68.19    3.50
   1  16   2   70.59    3.50
  -1  16  -2   64.69    3.90
   1  16   2   61.79    3.80
  -2 -16  -2   38.10    2.90
   2 -16   2   41.50    2.90
   2 -16   2   39.00    2.70
  -2  16  -2   45.70    2.90
   2  16   2   48.50    3.00
   2  16   2   40.80    2.80
   2  16   2   43.60    2.40
  -2  16  -2   47.00    2.70
   3 -16   2   55.89    3.60
  -3 -16  -2   51.79    3.70
  -3  16  -2   58.09    3.50
  -3  16  -2   57.59    3.40
   3  16   2   57.99    3.40
   3  16   2   55.59    3.10
   3  16   2   57.89    3.70
   4 -16   2   83.29    4.70
  -4 -16  -2   86.59    4.60
   4 -16   2   84.19    5.10
  -4 -16  -2   93.99    5.40
  -4  16  -2   84.29    4.70
  -4  16  -2   86.09    4.90
   4  16   2   85.89    4.70
   4  16   2   87.19    5.10
   5 -16   2   73.09    4.80
  -5 -16  -2   73.59    4.20
  -5 -16  -2   67.09    4.90
  -5  16  -2   66.49    4.60
   5  16   2   67.39    4.60
  -6 -16  -2   14.00    2.80
   6 -16   2   13.60    2.50
  -6  16  -2   15.80    2.70
   6  16   2   14.10    2.30
   7 -17  -2   12.20    2.50
  -7 -17   2    7.10    2.80
  -7  17   2   11.00    2.60
   7  17  -2   11.50    2.50
   6 -17  -2   25.40    3.10
  -6 -17   2   20.80    3.40
   6  17  -2   26.50    3.30
  -6  17   2   21.90    3.10
  -5 -17   2   53.59    4.50
   5 -17  -2   68.39    4.40
  -5  17   2   55.49    4.20
   5  17  -2   62.89    4.30
  -4 -17   2   37.20    3.80
   4 -17  -2   43.90    3.30
  -4  17   2   42.30    2.90
   4  17  -2   41.70    3.20
  -4  17   2   43.30    3.20
   4  17  -2   42.80    2.80
  -3 -17   2    3.90    1.60
   3 -17  -2    6.80    1.50
   3  17  -2    3.00    1.10
   3  17  -2    3.70    1.20
  -3  17   2    5.30    1.20
  -3  17   2    4.70    1.40
   2 -17  -2  124.39    5.90
   2 -17  -2  123.39    6.50
  -2 -17   2  127.29    6.80
  -2  17   2  126.69    6.40
   2  17  -2  129.39    6.60
   2  17  -2  127.79    6.30
  -2  17   2  131.49    6.30
   1 -17  -2   18.10    1.40
   1 -17  -2   18.10    1.90
  -1 -17   2   23.10    2.40
  -1  17   2   16.70    1.90
   1  17  -2   18.20    1.80
  -1  17   2   19.10    1.70
   1  17  -2   18.30    1.80
   0 -17  -2  144.79    6.80
   0 -17  -2  143.09    7.30
   0 -17   2  144.19    7.10
   0 -17   2  149.49    7.30
   0  17  -2  144.29    7.20
   0  17   2  147.69    7.20
   0  17   2  151.48    6.80
   1 -17   2  371.66   17.40
   1 -17   2  364.56   17.50
  -1 -17  -2  373.56   17.60
  -1 -17  -2  369.46   17.30
   1  17   2  406.16   17.50
   1  17   2  417.06   17.10
  -1  17  -2  416.06   17.60
  -1  17  -2  410.06   17.00
   2 -17   2  120.39    6.30
  -2 -17  -2  121.59    6.30
   2 -17   2  120.39    6.10
   2  17   2  128.49    5.80
  -2  17  -2  118.19    6.20
   2  17   2  122.99    6.40
  -2  17  -2  126.59    6.00
   2  17   2  121.99    6.20
   3 -17   2   41.30    2.90
  -3 -17  -2   38.90    3.10
  -3  17  -2   34.80    2.60
   3  17   2   32.70    2.60
   3  17   2   37.50    2.30
  -3  17  -2   37.30    2.80
   3  17   2   33.40    2.80
  -4 -17  -2   10.20    1.40
   4 -17   2    3.60    1.10
   4 -17   2    8.70    1.80
  -4 -17  -2   10.60    2.00
  -4  17  -2    6.80    1.60
  -4  17  -2    6.10    1.40
   4  17   2    5.20    1.20
   4  17   2    7.80    1.70
  -5 -17  -2    0.60    1.40
   5 -17   2    1.80    1.50
  -5  17  -2   -0.30    1.40
   5  17   2    0.30    1.30
   6 -17   2    9.30    2.30
  -6 -17  -2   12.10    2.70
   6  17   2    9.70    2.20
  -6  17  -2    8.60    2.30
  -7 -18   2   -0.80    2.20
   7 -18  -2    1.80    1.80
   7  18  -2    0.40    1.80
  -7  18   2   -0.40    2.20
   6 -18  -2    3.10    1.80
  -6 -18   2    3.50    2.30
  -6  18   2    4.20    2.10
   6  18  -2    3.10    1.90
   5 -18  -2   88.49    5.50
  -5 -18   2   92.19    6.10
   5  18  -2   85.39    5.40
  -5  18   2   86.39    5.50
  -4 -18   2  136.39    8.00
   4 -18  -2  142.49    7.50
   4  18  -2  147.49    7.70
  -4  18   2  140.69    7.40
  -4  18   2  141.19    7.10
   4  18  -2  151.58    7.10
  -3 -18   2   90.39    5.80
   3 -18  -2   94.19    5.50
  -3  18   2  100.99    5.20
   3  18  -2   96.89    5.50
   3  18  -2  102.09    5.20
  -3  18   2  105.79    5.40
   2 -18  -2  202.98    9.50
  -2 -18   2  199.88    9.80
  -2  18   2  183.78    9.30
   2  18  -2  199.88    9.30
  -2  18   2  194.58    9.20
   2  18  -2  194.38    9.50
  -1 -18   2   86.29    4.80
   1 -18  -2   80.59    4.50
   1 -18  -2   86.09    3.90
  -1  18   2   71.79    4.00
   1  18  -2   73.99    4.30
  -1  18   2   71.29    4.30
   1  18  -2   75.19    4.40
   0 -18  -2    4.10    1.10
   0 -18   2    2.50    1.30
   0 -18  -2    3.30    1.00
   0 -18   2    2.70    0.90
   0  18   2    2.20    1.00
   0  18   2    2.00    0.70
   0  18  -2    1.60    1.10
  -1 -18  -2   21.40    2.10
   1 -18   2   30.60    2.20
  -1 -18  -2   25.10    2.30
   1 -18   2   24.80    2.30
   1  18   2   27.90    1.70
  -1  18  -2   27.90    2.30
   1  18   2   24.60    2.10
  -1  18  -2   25.00    1.80
   2 -18   2  100.79    5.60
  -2 -18  -2   95.29    5.70
   2 -18   2   91.69    5.70
   2  18   2  125.09    5.40
   2  18   2  116.39    5.80
  -2  18  -2  121.79    5.60
  -2  18  -2  114.59    5.90
   2  18   2  120.79    6.00
   3 -18   2   90.99    5.30
   3 -18   2   98.89    5.20
  -3 -18  -2   88.49    5.40
   3  18   2   97.79    4.80
   3  18   2  100.19    5.50
   3  18   2   96.99    5.20
  -3  18  -2  101.39    5.30
  -4 -18  -2   94.19    5.70
   4 -18   2   91.39    5.50
  -4  18  -2   88.69    5.10
   4  18   2   93.49    5.50
  -4  18  -2   95.29    5.30
   5 -18   2   51.49    4.00
  -5 -18  -2   51.19    4.30
  -5  18  -2   44.00    3.70
   5  18   2   47.30    3.80
   6 -18   2   10.40    2.40
  -6 -18  -2   12.20    2.80
   6  18   2   10.00    2.20
  -6  18  -2   11.60    2.50
   6 -19  -2   16.30    2.70
  -6 -19   2   14.60    2.90
  -6  19   2   19.10    3.00
   6  19  -2   18.90    2.90
  -5 -19   2   21.10    3.30
   5 -19  -2   18.70    2.60
   5  19  -2   15.70    2.60
  -5  19   2   16.50    2.60
   4 -19  -2    8.70    1.90
  -4 -19   2    5.30    2.10
  -4  19   2    3.90    1.70
  -4  19   2    5.90    1.30
   4  19  -2    2.50    0.90
   4  19  -2    4.10    1.40
   3 -19  -2    7.70    1.60
  -3 -19   2    6.10    1.80
   3  19  -2    6.30    1.50
  -3  19   2    5.60    1.30
  -3  19   2    4.10    1.40
   3  19  -2    4.80    1.20
  -2 -19   2   49.20    4.00
   2 -19  -2   56.09    3.80
  -2  19   2   61.39    3.70
   2  19  -2   61.89    3.90
   2  19  -2   64.89    3.70
  -1 -19   2  101.89    6.50
   1  19  -2  129.09    6.40
  -1  19   2  131.59    6.00
   1  19  -2  134.59    6.50
  -1  19   2  123.59    6.30
   0 -19   2   16.20    2.10
   0 -19   2   15.60    1.90
   0 -19  -2   15.80    1.90
   0 -19  -2   17.80    1.70
   0  19   2   24.00    2.10
   0  19  -2   24.30    2.10
   1 -19   2  155.78    7.90
  -1 -19  -2  157.08    8.10
   1 -19   2  159.58    8.00
  -1 -19  -2  153.28    7.80
   1  19   2  170.48    8.00
   1  19   2  169.78    7.40
  -1  19  -2  169.48    8.10
  -2 -19  -2  129.89    6.50
   2 -19   2  120.39    6.40
  -2 -19  -2  120.59    6.50
   2 -19   2  120.59    6.30
  -2  19  -2  124.59    6.50
   2  19   2  131.19    6.40
   2  19   2  121.99    6.50
   2  19   2  122.09    5.90
  -2  19  -2  126.69    6.10
   3 -19   2   65.69    4.00
   3 -19   2   65.69    3.80
  -3 -19  -2   67.89    4.30
  -3  19  -2   59.49    3.90
   3  19   2   57.49    4.10
  -3  19  -2   57.19    3.70
   3  19   2   59.29    3.80
  -4 -19  -2   11.80    2.20
   4 -19   2   10.80    2.00
   4  19   2   10.00    2.00
   4  19   2   10.40    1.60
  -4  19  -2    9.50    1.70
  -4  19  -2    9.10    1.80
   5 -19   2    2.50    1.60
  -5 -19  -2    2.20    1.90
  -5  19  -2    0.10    1.50
   5  19   2    3.70    1.60
   6 -19   2    3.60    1.90
  -6 -19  -2    2.20    2.10
   6  19   2    5.80    2.00
  -6  19  -2    2.80    1.90
  -6 -20   2    6.70    2.50
   6 -20  -2    9.30    2.30
   6  20  -2    8.30    2.30
  -6  20   2    7.90    2.40
   5 -20  -2   46.30    3.90
  -5 -20   2   51.49    4.70
  -5  20   2   50.69    4.10
   5  20  -2   44.30    4.00
  -4 -20   2   55.79    4.60
   4 -20  -2   57.39    4.10
   4  20  -2   57.49    4.10
  -4  20   2   58.19    4.10
  -4  20   2   58.99    3.70
  -3 -20   2  122.69    7.10
   3 -20  -2  130.69    6.80
   3  20  -2  116.59    6.70
   3  20  -2  127.79    6.50
  -3  20   2  128.99    6.60
  -3  20   2  127.09    6.50
  -2 -20   2   23.00    2.90
   2 -20  -2   26.00    2.50
   2  20  -2   34.50    2.80
   2  20  -2   29.40    2.40
  -2  20   2   34.60    2.70
   1 -20  -2   33.20    2.80
  -1 -20   2   30.30    3.00
  -1  20   2   34.80    2.80
   1  20  -2   34.70    2.80
  -1  20   2   36.40    2.30
   1  20  -2   34.50    2.70
   0 -20  -2   13.40    1.50
   0 -20   2   12.40    1.90
   0 -20  -2   10.50    1.60
   0 -20   2   14.80    1.90
   0  20   2   11.00    1.20
   0  20   2   13.90    1.80
   0  20  -2    8.60    1.50
   1 -20   2   13.70    1.80
   1 -20   2   10.80    1.70
  -1 -20  -2   11.80    1.70
  -1 -20  -2   13.30    1.90
  -1  20  -2   14.20    1.90
   1  20   2   13.80    1.90
   1  20   2   13.00    1.30
   2 -20   2   99.49    5.40
   2 -20   2   96.29    5.40
  -2 -20  -2   95.39    5.40
  -2 -20  -2   99.49    5.60
  -2  20  -2  103.19    5.20
   2  20   2   99.49    5.40
  -2  20  -2  102.59    5.50
  -3 -20  -2   67.89    4.40
   3 -20   2   63.39    4.10
   3 -20   2   72.29    4.10
   3  20   2   68.49    4.40
   3  20   2   63.89    4.00
  -3  20  -2   57.59    4.10
  -3  20  -2   68.49    4.00
  -4 -20  -2   64.09    4.60
   4 -20   2   68.89    4.40
   4 -20   2   53.69    3.80
  -4  20  -2   63.19    4.10
   4  20   2   62.39    3.90
  -4  20  -2   65.09    4.10
   4  20   2   59.39    4.30
   5 -20   2   36.70    3.50
  -5 -20  -2   35.80    3.80
  -5  20  -2   29.70    3.30
   5  20   2   35.90    3.60
   6 -20   2   10.30    2.40
  -6 -20  -2    9.30    2.70
   6  20   2   11.20    2.40
  -6  20  -2    8.30    2.30
  -6 -21   2    6.40    2.80
   6 -21  -2   10.20    2.40
   6  21  -2    6.50    2.10
  -6  21   2    4.70    2.30
  -5 -21   2    7.60    2.60
   5 -21  -2    9.50    2.00
  -5  21   2    6.00    2.10
   5  21  -2    6.90    2.00
   4 -21  -2    0.90    1.40
  -4 -21   2   -0.90    1.70
   4  21  -2   -1.00    1.10
  -4  21   2    0.10    1.50
   4  21  -2    0.40    1.10
  -4  21   2    1.30    1.10
  -3 -21   2   27.50    3.30
   3 -21  -2   29.90    2.80
  -3  21   2   30.80    2.60
   3  21  -2   29.90    2.60
   3  21  -2   31.10    2.80
  -3  21   2   34.70    2.80
   2 -21  -2  109.79    6.20
  -2 -21   2  112.39    6.50
  -2  21   2  115.29    5.80
   2  21  -2  117.89    6.30
  -2  21   2  111.59    6.00
   2  21  -2  116.19    6.10
  -1 -21   2  117.49    6.40
   1 -21  -2  120.89    6.30
  -1 -21   2  118.79    6.20
   1  21  -2  105.09    6.00
  -1  21   2  113.99    5.60
   1  21  -2  110.89    6.10
  -1  21   2  111.29    6.10
   0  21  -2   42.40    3.00
   0  21   2   35.10    2.30
   0  21   2   36.00    2.80
   1 -21   2  183.58    8.70
  -1 -21  -2  173.78    8.50
  -1 -21  -2  177.38    8.90
   1 -21   2  170.58    8.70
   1  21   2  182.58    8.70
  -1  21  -2  172.38    8.70
  -2 -21  -2   66.19    4.40
   2 -21   2   71.99    4.40
   2 -21   2   71.59    4.30
  -2 -21  -2   73.79    4.50
   2  21   2   78.49    4.40
  -2  21  -2   70.39    4.40
  -3 -21  -2   22.00    2.60
   3 -21   2   16.90    2.10
   3 -21   2   19.60    2.30
   3  21   2   20.10    2.50
  -3  21  -2   17.30    2.10
   3  21   2   21.60    2.30
  -3  21  -2   18.20    2.20
  -4 -21  -2    2.10    1.70
   4 -21   2    2.30    1.30
   4 -21   2    3.90    1.60
  -4  21  -2    3.30    1.40
   4  21   2    3.60    1.30
  -4  21  -2    2.00    1.60
   4  21   2    3.70    1.60
   5 -21   2   -0.40    1.40
  -5 -21  -2   -0.70    1.80
   5  21   2   -0.20    1.50
  -5  21  -2   -1.40    1.50
   6  21   2    5.40    2.10
   6 -22  -2   11.50    2.50
  -6 -22   2   11.40    3.20
  -6  22   2   12.00    2.80
   6  22  -2   11.50    2.60
   5 -22  -2   32.30    3.40
  -5 -22   2   34.70    4.20
  -5  22   2   29.50    3.30
   5  22  -2   28.50    3.40
   4 -22  -2   29.90    3.20
  -4 -22   2   30.90    3.80
   4  22  -2   33.60    2.90
   4  22  -2   31.70    3.10
  -4  22   2   33.10    3.10
  -4  22   2   32.90    2.90
   3 -22  -2   36.90    3.50
  -3 -22   2   42.90    3.80
   3  22  -2   48.30    3.40
  -3  22   2   48.60    3.40
   3  22  -2   49.40    3.70
  -3  22   2   49.20    3.40
   2 -22  -2   87.49    5.00
  -2 -22   2   80.79    5.20
   2  22  -2   75.49    4.80
  -2  22   2   77.79    4.70
  -2  22   2   73.99    4.30
   2  22  -2   75.89    4.60
  -1 -22   2   31.10    3.10
   1 -22  -2   32.00    2.80
  -1 -22   2   35.70    2.90
  -1  22   2   34.10    2.30
   1  22  -2   35.60    2.90
  -1  22   2   30.20    2.80
   0 -22  -2   13.90    2.10
   0 -22   2    9.50    1.80
   0 -22   2   12.40    1.80
   0  22   2   12.40    1.80
   0  22  -2   12.00    1.80
  -1 -22  -2   29.10    3.80
   1 -22   2   36.60    2.70
  -1 -22  -2   34.70    2.90
   1 -22   2   31.10    2.70
   1  22   2   24.80    2.60
  -1  22  -2   26.10    2.60
   2 -22   2   45.90    3.30
  -2 -22  -2   43.00    3.30
   2 -22   2   47.80    3.30
  -2 -22  -2   44.70    3.50
   2  22   2   40.60    3.20
  -2  22  -2   36.80    3.20
   3 -22   2   25.30    2.60
  -3 -22  -2   28.50    3.00
   3 -22   2   29.10    2.60
   3  22   2   19.60    2.40
  -3  22  -2   18.90    2.40
   3  22   2   22.20    2.80
  -4 -22  -2   36.20    3.70
   4 -22   2   41.70    3.40
   4 -22   2   36.80    3.10
   4  22   2   38.80    3.60
   4  22   2   38.40    3.10
  -4  22  -2   36.40    3.20
   5 -22   2   14.80    2.50
  -5 -22  -2   12.30    2.70
  -5  22  -2   13.30    2.50
   5  22   2   17.30    2.80
   6 -23  -2   17.40    2.90
  -6 -23   2   12.10    3.40
  -6  23   2   19.40    3.10
   6  23  -2   18.10    3.10
  -5 -23   2    7.00    2.60
   5 -23  -2    7.40    2.20
  -5  23   2    7.70    2.20
   5  23  -2    9.20    2.10
  -4 -23   2    9.10    2.50
   4 -23  -2    8.90    2.10
  -4  23   2   11.00    2.10
  -4  23   2   11.70    1.90
   4  23  -2    9.90    1.80
   4  23  -2   11.60    2.20
  -3 -23   2   11.90    2.50
   3 -23  -2   14.30    2.30
  -3  23   2   12.10    1.90
   3  23  -2   12.30    1.90
  -3  23   2   11.90    1.80
   3  23  -2   14.70    2.30
   2 -23  -2   40.70    3.30
  -2 -23   2   41.00    3.60
  -2  23   2   36.00    3.10
   2  23  -2   34.40    3.20
   2  23  -2   39.10    3.20
  -2  23   2   36.60    2.70
   1 -23  -2  130.09    6.80
  -1 -23   2  125.29    6.70
  -1 -23   2  129.99    6.90
   1  23  -2  119.49    6.60
  -1  23   2  110.39    6.50
   0 -23  -2  136.79    7.30
   0 -23   2  134.49    7.00
   0 -23   2  133.39    7.10
   0  23  -2  135.99    7.10
   0  23   2  129.29    7.00
   1 -23   2  158.88    8.20
  -1 -23  -2  157.38    8.30
   1 -23   2  168.38    8.30
   1  23   2  161.08    8.20
  -1  23  -2  162.58    8.30
  -2 -23  -2   35.50    3.00
   2 -23   2   36.70    3.00
   2 -23   2   35.20    3.00
  -2 -23  -2   31.20    3.10
  -2  23  -2   41.00    3.20
   2  23   2   36.90    3.00
  -3 -23  -2    6.50    1.90
   3 -23   2   10.20    1.80
   3 -23   2    7.50    1.70
  -3 -23  -2    8.60    2.00
  -3  23  -2    8.30    1.80
   3  23   2    9.90    1.80
   3  23   2   10.90    2.10
   4 -23   2   11.20    1.90
   4 -23   2    9.50    2.00
  -4 -23  -2    9.30    2.30
   4  23   2   11.10    2.20
   4  23   2    8.10    1.70
  -4  23  -2    7.80    1.80
  -5 -23  -2    4.90    2.30
   5  23   2    6.20    2.10
   5 -24  -2   17.70    2.90
  -5 -24   2   15.60    3.20
  -5  24   2   16.10    2.70
   5  24  -2   18.10    2.90
  -4 -24   2   19.50    3.20
   4 -24  -2   26.00    3.10
  -4  24   2   26.40    2.80
   4  24  -2   24.60    3.10
  -4  24   2   26.60    2.90
   4  24  -2   26.50    2.80
   3 -24  -2   36.90    3.40
  -3 -24   2   38.90    3.90
   3  24  -2   32.80    3.20
   3  24  -2   35.00    3.20
  -3  24   2   33.70    3.00
   2 -24  -2  159.08    8.30
  -2 -24   2  155.18    8.50
   2  24  -2  155.88    8.10
   2  24  -2  157.58    8.30
  -2  24   2  154.98    8.00
  -1 -24   2   71.79    4.80
   1 -24  -2   77.99    4.80
  -1 -24   2   72.19    4.60
  -1  24   2   69.79    4.60
   1  24  -2   70.59    4.50
   0 -24   2    4.50    1.40
   0 -24  -2    5.60    1.50
   0 -24   2    4.60    1.60
   0  24   2    4.20    1.50
   0  24  -2    3.40    1.50
  -1 -24  -2    2.20    1.40
   1 -24   2    1.50    1.30
   1 -24   2    1.60    1.20
  -1  24  -2    0.30    1.30
   1  24   2    1.80    1.30
   2 -24   2   20.00    2.40
   2 -24   2   22.40    2.40
  -2 -24  -2   25.20    2.90
   2  24   2   16.20    2.30
  -2  24  -2   15.30    2.20
   3 -24   2   13.80    2.10
  -3 -24  -2   13.80    2.30
   3 -24   2   13.90    2.10
  -3 -24  -2   13.30    2.40
  -3  24  -2   11.70    2.10
   3  24   2   11.80    2.00
   4 -24   2   40.80    3.70
   4 -24   2   46.90    4.00
  -4 -24  -2   42.40    4.10
   4  24   2   47.90    4.00
  -4  24  -2   46.30    3.60
   4  24   2   43.30    3.50
  -5 -24  -2   29.10    3.80
   5  24   2   31.80    3.70
  -5 -25   2    0.70    2.50
   5 -25  -2    1.30    1.90
   5  25  -2    4.40    1.90
  -5  25   2    4.60    2.10
  -4 -25   2    0.30    2.10
   4 -25  -2    1.60    1.60
   4  25  -2    0.40    1.40
   4  25  -2    0.90    1.30
  -4  25   2    0.50    1.30
  -4  25   2    3.00    1.60
   3 -25  -2    4.60    1.70
  -3 -25   2    3.90    2.00
   3  25  -2    5.60    1.90
   3  25  -2    4.90    1.60
  -3  25   2    5.00    1.60
  -2 -25   2   22.00    3.00
   2 -25  -2   22.50    2.60
   2  25  -2   27.00    2.90
  -2  25   2   20.20    2.50
   2  25  -2   19.00    2.40
  -1 -25   2   88.49    5.60
   1 -25  -2   91.19    5.60
  -1 -25   2   88.49    5.40
   1  25  -2   95.99    5.50
  -1  25   2   87.09    5.40
   0 -25   2   73.49    4.60
   0 -25   2   71.79    4.60
   0 -25  -2   70.39    4.70
   0  25   2   70.29    4.60
   0  25  -2   71.39    4.70
  -1 -25  -2   97.39    5.70
   1 -25   2  100.69    5.50
   1 -25   2   90.79    5.40
   1  25   2   85.79    5.30
  -1  25  -2   85.19    5.50
   2 -25   2   33.40    3.00
  -2 -25  -2   26.80    2.90
   2 -25   2   26.30    2.80
  -2  25  -2   36.10    3.20
   2  25   2   25.50    2.70
   3 -25   2    7.80    1.80
  -3 -25  -2    6.30    1.90
   3 -25   2    7.30    1.80
  -3  25  -2    5.70    1.70
   3  25   2    6.50    1.70
  -4 -25  -2    6.40    3.50
  -4  25  -2    6.00    1.90
   4  25   2    6.30    1.70
   4  25   2    8.80    2.20
   5 -26  -2    8.10    2.30
  -5 -26   2    8.10    3.00
   5  26  -2   10.20    2.60
  -5  26   2    8.20    2.50
   4 -26  -2   18.30    2.90
  -4 -26   2   16.80    3.20
  -4  26   2   21.50    2.60
   4  26  -2   23.40    3.20
   4  26  -2   17.30    2.40
   3 -26  -2   95.19    5.70
  -3 -26   2   89.19    6.00
   3  26  -2   80.69    5.30
  -3  26   2   83.49    5.30
   3  26  -2   78.49    5.40
   2 -26  -2   77.49    5.20
  -2 -26   2   84.49    5.30
  -2 -26   2   76.19    5.40
   2  26  -2   81.59    5.10
   2  26  -2   85.39    5.30
  -2  26   2   76.09    5.00
  -1 -26   2   36.00    3.10
  -1 -26   2   33.20    3.30
   1 -26  -2   31.10    3.10
  -1  26   2   34.20    3.20
   1  26  -2   32.00    3.20
   0 -26  -2   10.80    2.00
   0 -26   2   13.80    2.20
   0 -26   2   15.40    2.30
   0  26  -2   10.80    2.00
   0  26   2   11.20    1.90
   1 -26   2    8.50    1.80
   1 -26   2    6.90    1.70
  -1 -26  -2    6.50    1.80
  -1  26  -2    4.90    1.70
   1  26   2    5.70    1.70
  -2 -26  -2   34.50    3.40
   2 -26   2   27.80    3.00
   2 -26   2   30.80    3.10
   2  26   2   32.00    3.10
  -2  26  -2   29.90    3.10
  -3 -26  -2   23.30    3.10
   3 -26   2   22.40    2.70
  -3  26  -2   23.00    2.80
   3  26   2   19.40    2.60
  -4 -26  -2   54.49    4.50
   4  26   2   50.79    3.90
   4  26   2   47.30    4.10
  -4  26  -2   48.80    4.00
   4 -27  -2   10.20    2.40
  -4 -27   2   11.30    2.90
   4  27  -2   11.00    2.10
   4  27  -2    9.60    2.20
  -4  27   2   10.60    2.10
   3 -27  -2    1.60    1.60
  -3 -27   2    0.90    2.00
   3  27  -2    1.90    1.60
   3  27  -2    1.10    1.60
  -3  27   2    0.60    1.40
   2 -27  -2    5.20    1.80
  -2 -27   2    6.90    2.00
  -2 -27   2    6.20    2.20
  -2  27   2    4.70    1.70
   2  27  -2    4.40    1.70
   1 -27  -2   36.90    3.30
  -1 -27   2   40.60    3.60
  -1 -27   2   43.70    3.60
   1  27  -2   30.40    3.30
  -1  27   2   36.70    3.40
   0 -27  -2   33.90    3.30
   0 -27   2   31.60    3.10
   0 -27   2   35.00    3.10
   0  27  -2   30.60    3.20
   0  27   2   31.20    3.00
  -1 -27  -2   67.19    4.50
   1 -27   2   58.79    4.30
   1 -27   2   61.09    4.20
  -1  27  -2   61.09    4.40
   1  27   2   64.09    4.40
   2 -27   2   29.40    3.10
  -2 -27  -2   24.00    3.00
   2 -27   2   23.40    2.70
   2  27   2   16.40    2.40
  -2  27  -2   19.90    2.60
  -3 -27  -2   19.60    2.80
   3 -27   2   21.00    2.70
   3  27   2   18.00    2.60
  -3  27  -2   19.50    2.70
  -4 -27  -2    3.10    1.90
  -4  27  -2    1.00    1.60
   4  27   2    3.70    1.70
   4 -28  -2   20.50    3.10
  -4 -28   2   25.30    3.80
   4  28  -2   25.00    2.90
   4  28  -2   21.80    3.30
  -4  28   2   21.90    2.80
   3 -28  -2   35.10    3.50
  -3 -28   2   33.90    4.10
  -3  28   2   43.60    3.60
   3  28  -2   40.10    3.70
   3  28  -2   39.70    3.90
  -2 -28   2   27.70    3.50
   2 -28  -2   25.70    3.20
  -2 -28   2   29.70    3.20
   2  28  -2   22.70    2.80
  -2  28   2   28.10    2.90
  -1 -28   2   15.40    2.50
   1 -28  -2   14.80    2.40
  -1 -28   2   15.70    2.40
  -1  28   2   22.00    2.70
   1  28  -2   14.60    2.30
   0 -28   2   11.70    2.10
   0 -28  -2    8.50    2.00
   0 -28   2   11.80    2.20
   0  28  -2    9.60    2.10
   0  28   2    5.60    1.70
  -1 -28  -2   16.50    2.50
   1 -28   2   17.50    2.50
   1 -28   2   17.30    2.40
  -1  28  -2   21.60    2.80
   1  28   2   17.80    2.50
   2 -28   2   22.10    2.80
  -2 -28  -2   19.10    2.70
  -2  28  -2   24.40    2.90
   2  28   2   19.80    2.70
  -3 -28  -2   24.00    3.10
   3 -28   2   21.80    2.80
  -3  28  -2   22.20    2.90
   3  28   2   23.00    2.80
  -3 -29   2    1.90    1.80
   3 -29  -2    2.10    1.80
  -3 -29   2    2.20    2.20
  -3  29   2   -0.40    1.50
   3  29  -2   -0.70    1.50
   3  29  -2   -0.30    1.70
   2 -29  -2    9.00    2.10
  -2 -29   2    8.70    2.40
  -2 -29   2    9.00    2.10
   2  29  -2    4.90    1.80
  -2  29   2    4.50    1.70
  -1 -29   2   37.00    3.60
  -1 -29   2   43.50    3.70
   1 -29  -2   42.50    3.80
  -1  29   2   37.70    3.50
   1  29  -2   32.50    3.50
   0 -29   2   25.60    3.10
   0 -29  -2   22.70    3.00
   0 -29   2   24.30    2.90
   0  29  -2   25.00    3.00
   0  29   2   20.70    2.60
   1 -29   2   41.70    3.60
  -1 -29  -2   41.00    3.60
  -1  29  -2   30.70    3.30
   1  29   2   33.30    3.40
   2 -29   2   27.10    3.10
  -2 -29  -2   36.00    3.60
   2  29   2   30.40    3.30
  -2  29  -2   30.70    3.40
   3 -29   2   12.20    2.30
  -3 -29  -2   12.80    2.60
   3  29   2   12.20    2.30
  -3  29  -2   11.90    2.40
  -3 -30   2   21.40    3.50
  -3 -30   2   20.80    3.10
   3 -30  -2   23.60    3.20
   3  30  -2   16.90    2.70
  -3  30   2   21.10    2.90
   2 -30  -2   30.30    3.60
  -2 -30   2   27.00    3.20
  -2 -30   2   34.30    3.80
  -2  30   2   29.10    3.30
   2  30  -2   27.60    3.30
  -1 -30   2    5.50    2.00
  -1 -30   2    5.30    2.00
   1 -30  -2    5.40    2.00
   1  30  -2    4.00    1.80
  -1  30   2    4.70    1.80
   0 -30   2    3.40    1.80
   0 -30  -2    2.70    1.60
   0  30  -2    3.40    1.80
   0  30   2    2.30    1.50
   1 -30   2    2.10    1.70
  -1 -30  -2    2.10    1.60
   1  30   2    3.40    1.70
  -1  30  -2    2.40    1.70
   2 -30   2   19.70    2.80
  -2 -30  -2   19.60    3.10
   2  30   2   15.40    2.50
  -2  30  -2   16.80    2.70
   2 -31  -2   17.40    2.90
  -2 -31   2   13.60    2.80
  -2 -31   2   15.30    2.70
   2  31  -2   15.30    2.70
  -2  31   2   13.00    2.50
  -1 -31   2   19.90    3.00
   1 -31  -2   21.60    3.10
   1  31  -2   18.90    2.80
  -1  31   2   16.90    2.60
   0 -31   2   50.79    4.30
   0 -31  -2   50.09    4.40
   0  31  -2   44.50    4.20
   0  31   2   50.69    4.20
  -1 -31  -2   35.00    3.70
   1 -31   2   39.10    3.80
  -1  31  -2   36.50    3.60
   1  31   2   40.60    3.80
  -2 -31  -2    8.70    2.30
   2 -31   2    5.70    2.10
  -2  31  -2    3.90    2.00
   2  31   2    6.70    2.00
  -1 -32   2   12.50    2.60
   1 -32  -2    9.20    2.30
   1  32  -2   10.70    2.50
  -1  32   2   10.40    2.30
   0 -32  -2    8.70    2.40
   0 -32   2    7.80    2.30
   0  32  -2    4.20    2.00
   0  32   2   11.00    2.40
   1 -32   2    2.10    1.90
  -1 -32  -2    2.40    1.90
   1  32   2    3.50    1.90
  -1  32  -2    2.80    1.90
  -8   0   3    2.70    2.20
  -8   0   3    6.70    2.40
   8   0  -3    4.70    2.00
   7   0  -3   22.60    3.00
  -7   0   3   22.20    2.90
  -7   0   3   26.20    3.10
   7   0  -3   20.20    2.70
   6   0  -3   80.19    4.90
  -6   0   3   76.69    4.80
   6   0  -3   75.49    4.80
   5   0  -3   19.00    2.20
  -5   0   3   23.00    2.30
   5   0  -3   18.30    2.10
  -4   0   3  158.68    7.50
   4   0  -3  155.28    7.60
   4   0  -3  156.28    6.80
  -4   0   3  152.58    7.60
   3   0  -3  177.98    8.10
  -3   0   3  171.78    8.00
   3   0  -3  174.28    7.60
  -3   0   3  171.68    8.10
  -2   0   3  403.86   17.60
   2   0  -3  413.16   17.70
   2   0  -3  400.26   17.50
   1   0  -3  474.05   20.50
   1   0  -3  482.65   20.50
  -1   0   3  471.95   20.50
   0   0  -3   71.59    3.50
   0   0   3   67.79    3.40
   0   0  -3   76.99    3.20
   0   0   3   68.49    3.40
   1   0   3 1008.20   43.60
   1   0   3 1009.20   43.80
  -1   0  -3 1066.69   43.30
  -1   0  -3 1007.00   43.70
   2   0   3  213.78    9.60
   2   0   3  210.38    9.10
   2   0   3  204.08    9.40
  -2   0  -3  208.38    9.40
   3   0   3   19.50    1.30
  -3   0  -3   21.10    1.70
  -3   0  -3   19.60    1.50
   3   0   3   21.80    1.90
   4   0   3   91.99    5.10
   4   0   3   84.49    4.40
  -4   0  -3   90.19    4.40
  -4   0  -3   92.69    4.90
   5   0   3   37.90    2.60
   5   0   3   38.20    3.30
  -5   0  -3   42.20    3.10
  -6   0  -3    2.60    1.50
   6   0   3    2.80    1.80
   7   0   3    0.90    1.90
  -7   0  -3   -0.60    1.50
   8  -1  -3    2.50    1.60
  -8  -1   3   -1.70    1.80
  -8  -1   3    1.40    1.90
   8   1  -3    2.90    1.80
  -8   1   3   -0.90    1.90
  -8   1   3    3.30    2.00
  -7  -1   3   30.90    3.40
  -7  -1   3   22.60    2.80
   7  -1  -3   24.20    3.00
   7  -1  -3   29.00    2.90
  -7   1   3   23.50    3.00
   7   1  -3   27.10    3.10
  -6  -1   3    5.60    1.60
   6  -1  -3    5.00    1.50
  -6  -1   3    6.70    1.80
   6  -1  -3    6.30    1.70
   6   1  -3    7.90    1.80
   6   1  -3    9.80    1.90
  -6   1   3    7.30    1.70
   5  -1  -3   18.20    2.10
  -5  -1   3   17.00    2.20
  -5  -1   3   16.70    2.00
   5  -1  -3   16.50    2.10
  -5   1   3   21.80    2.30
   5   1  -3   17.10    1.90
   4  -1  -3  196.08    9.40
  -4  -1   3  206.98    9.50
  -4  -1   3  209.38    9.30
   4  -1  -3  212.48    9.40
  -4   1   3  204.88    9.40
   4   1  -3  185.98    8.60
   4   1  -3  187.68    9.40
  -4   1   3  199.08    9.40
  -3  -1   3  627.24   26.00
   3  -1  -3  611.44   26.10
  -3  -1   3  631.04   26.10
   3  -1  -3  618.24   25.70
   3   1  -3  583.44   25.60
  -3   1   3  568.44   26.00
   3   1  -3  583.94   26.10
  -3   1   3  574.84   26.00
   2  -1  -3   93.59    4.40
  -2  -1   3   96.59    4.60
  -2  -1   3   92.49    4.50
  -1  -1   3 2876.81  128.49
  -1  -1   3 2981.80  127.59
   1  -1  -3 3027.90  128.49
   1  -1  -3 2949.70  128.29
   1   1  -3 3108.59  128.39
  -1   1   3 3055.99  128.39
   1   1  -3 2989.00  128.39
  -1   1   3 3034.60  127.49
   0  -1  -3 3146.09  136.59
   0  -1   3 3259.27  137.39
   0  -1   3 3195.88  136.89
   0  -1  -3 3186.08  136.59
   0   1  -3 3274.97  136.99
   0   1   3 3154.68  136.39
   0   1  -3 3279.87  136.59
   1  -1   3   90.89    4.30
  -1  -1  -3   94.69    4.40
   1  -1   3   85.19    4.40
  -1  -1  -3   94.79    4.10
   1   1   3   97.99    4.40
   1   1   3   95.99    4.40
  -1   1  -3   87.39    4.40
  -2  -1  -3   81.69    3.90
   2  -1   3   86.79    3.60
   2  -1   3   86.49    4.20
   2  -1   3   78.89    3.90
   2   1   3   71.59    3.90
   2   1   3   78.39    4.10
   2   1   3   77.69    3.60
  -2   1  -3   76.69    3.90
  -3  -1  -3   30.40    1.90
   3  -1   3   24.50    2.10
  -3  -1  -3   28.60    2.00
   3  -1   3   29.70    1.70
  -3   1  -3   30.50    1.90
  -3   1  -3   27.60    2.10
   3   1   3   32.50    1.80
   3   1   3   28.60    2.20
   4  -1   3   17.70    1.50
  -4  -1  -3   19.50    1.80
  -4  -1  -3   19.50    1.50
   4  -1   3   18.00    2.10
  -4   1  -3   15.80    1.40
   4   1   3   13.60    1.90
   4   1   3   15.60    1.50
  -4   1  -3   16.10    1.70
   5  -1   3   52.69    3.90
  -5  -1  -3   51.19    3.50
   5  -1   3   51.89    3.20
   5   1   3   53.99    3.90
  -5   1  -3   48.20    3.50
   5   1   3   56.19    3.20
  -6  -1  -3  144.49    7.70
   6  -1   3  155.68    8.30
  -6   1  -3  146.09    7.80
   6   1   3  145.19    8.20
   7  -1   3    8.40    2.30
  -7  -1  -3   13.20    2.40
  -7   1  -3   12.70    2.30
   7   1   3   13.80    2.70
   8  -2  -3    6.40    2.40
  -8  -2   3   10.00    2.50
  -8  -2   3    7.00    2.30
   8  -2  -3    9.10    2.40
  -8   2   3   11.50    2.60
   8   2  -3    8.00    2.10
  -8   2   3    7.90    2.50
   7  -2  -3   39.40    3.50
   7  -2  -3   42.40    4.00
  -7  -2   3   46.90    3.90
  -7  -2   3   42.80    4.00
  -7   2   3   48.00    3.80
   7   2  -3   51.49    3.90
   6  -2  -3   35.20    3.20
  -6  -2   3   39.40    3.50
   6  -2  -3   38.90    3.30
  -6  -2   3   37.90    3.20
  -6   2   3   42.90    3.30
   6   2  -3   52.29    3.60
  -5  -2   3   44.20    3.40
   5  -2  -3   46.70    3.30
  -5  -2   3   44.80    3.20
   5  -2  -3   46.70    3.20
  -5   2   3   51.09    3.40
   5   2  -3   51.99    3.40
   4  -2  -3  254.97   11.80
  -4  -2   3  259.67   11.80
   4  -2  -3  255.37   11.10
   4  -2  -3  266.37   11.90
  -4  -2   3  270.17   12.00
   4   2  -3  260.27   11.90
  -4   2   3  254.17   11.80
   4   2  -3  248.48   11.10
  -3  -2   3   41.40    2.70
   3  -2  -3   42.90    2.30
  -3  -2   3   41.70    2.60
   3  -2  -3   38.60    2.60
   3   2  -3   49.00    2.70
   3   2  -3   50.39    2.30
  -3   2   3   52.79    2.80
  -2  -2   3  163.68    8.10
  -2  -2   3  168.68    7.90
   2  -2  -3  181.38    8.10
   2  -2  -3  174.28    7.90
   2   2  -3  185.48    7.90
  -2   2   3  182.08    7.90
  -2   2   3  180.08    8.00
   2   2  -3  183.48    8.10
   1  -2  -3  294.67   13.00
   1  -2  -3  289.67   13.00
  -1  -2   3  295.57   12.90
  -1  -2   3  288.67   13.10
   1   2  -3  302.97   13.00
  -1   2   3  299.67   13.00
   1   2  -3  306.67   13.00
  -1   2   3  305.17   12.90
   0  -2   3  872.91   38.30
   0  -2  -3  849.91   38.20
   0  -2   3  883.21   38.40
   0  -2  -3  878.81   38.40
   0   2  -3  976.50   38.10
   0   2   3  911.61   38.30
   0   2   3  902.61   38.30
   0   2  -3  910.81   38.40
  -1  -2  -3  165.68    8.20
   1  -2   3  163.68    8.10
  -1  -2  -3  173.28    7.90
   1  -2   3  170.58    8.30
  -1   2  -3  218.68    8.30
   1   2   3  209.38    8.20
   2  -2   3  281.07   12.10
   2  -2   3  285.07   12.30
   2  -2   3  291.27   11.80
  -2  -2  -3  282.97   12.10
   2   2   3  256.87   11.80
   2   2   3  263.07   12.10
  -2   2  -3  268.57   12.10
   2   2   3  255.97   12.20
  -3  -2  -3  167.68    7.90
   3  -2   3  161.38    7.50
   3  -2   3  157.68    8.10
  -3  -2  -3  165.38    7.70
  -3   2  -3  169.38    7.90
   3   2   3  176.08    8.10
  -3   2  -3  177.48    7.70
   3   2   3  172.38    7.60
   4  -2   3  132.59    6.30
  -4  -2  -3  140.19    6.70
  -4  -2  -3  133.19    6.30
   4  -2   3  146.59    7.10
  -4   2  -3  132.89    6.70
  -4   2  -3  129.69    6.30
   4   2   3  130.29    6.90
   4   2   3  131.39    6.40
   5  -2   3   43.90    3.50
  -5  -2  -3   47.60    3.30
  -5   2  -3   47.10    3.30
   5   2   3   44.70    2.90
   5   2   3   46.90    3.60
   6  -2   3    3.10    1.80
  -6  -2  -3    3.40    1.50
   6   2   3    3.10    1.70
  -6   2  -3    2.50    1.30
   7  -2   3    2.20    1.90
  -7  -2  -3    0.60    1.50
   7   2   3    1.10    1.70
  -7   2  -3    1.10    1.70
   8  -3  -3    5.20    1.90
   8  -3  -3    8.40    2.50
  -8  -3   3    7.60    2.40
  -8  -3   3    7.10    2.30
   8   3  -3    7.30    2.20
  -8   3   3    5.80    2.40
  -7  -3   3   22.00    3.10
   7  -3  -3   26.00    2.80
  -7  -3   3   27.30    3.00
   7  -3  -3   25.40    3.00
  -7   3   3   16.30    2.60
   7   3  -3   26.30    3.10
  -6  -3   3   19.10    2.40
  -6  -3   3   21.80    2.80
   6  -3  -3   23.20    2.70
   6  -3  -3   20.90    2.50
  -6   3   3   24.20    2.60
   6   3  -3   23.10    2.60
   5  -3  -3   54.29    3.60
   5  -3  -3   53.79    3.60
  -5  -3   3   54.59    3.70
  -5  -3   3   60.89    3.60
  -5   3   3   64.19    3.90
   5   3  -3   56.89    3.70
   4  -3  -3  377.16   17.00
  -4  -3   3  397.76   16.90
   4  -3  -3  395.16   16.90
  -4  -3   3  392.06   17.20
   4  -3  -3  380.66   16.30
   4   3  -3  358.06   16.30
   4   3  -3  367.06   17.00
  -4   3   3  374.66   17.00
   3  -3  -3  964.70   40.60
   3  -3  -3  969.40   40.20
  -3  -3   3  961.10   40.40
  -3  -3   3  977.40   40.70
   3   3  -3  912.41   40.10
  -3   3   3  929.51   40.40
  -3   3   3  914.81   40.50
   3   3  -3  912.01   40.60
  -2  -3   3  349.27   16.40
   2  -3  -3  319.67   16.50
  -2  -3   3  347.37   16.60
  -2   3   3  415.96   16.60
   2   3  -3  438.36   16.40
  -2   3   3  402.56   16.40
  -1  -3   3  699.23   30.60
  -1  -3   3  702.33   30.30
   1  -3  -3  722.73   30.50
   1  -3  -3  719.63   30.40
   1   3  -3  712.03   30.40
  -1   3   3  720.83   30.30
   1   3  -3  688.23   30.40
  -1   3   3  722.23   30.50
   0  -3  -3  657.33   27.90
   0  -3   3  669.33   28.10
   0  -3   3  659.33   27.90
   0  -3  -3  655.33   28.10
   0   3   3  647.94   27.90
   0   3  -3  656.53   28.10
   0   3   3  637.24   28.00
   0   3  -3  642.94   27.80
  -1  -3  -3   37.50    1.80
   1  -3   3   38.80    2.10
  -1  -3  -3   40.80    2.10
   1  -3   3   40.50    2.00
   1   3   3   29.80    1.90
  -1   3  -3   29.20    2.00
   1   3   3   32.20    2.00
   2  -3   3  156.28    6.60
   2  -3   3  157.78    7.20
  -2  -3  -3  159.98    7.00
   2   3   3  150.28    6.80
  -2   3  -3  140.89    6.90
   2   3   3  152.18    7.10
   2   3   3  151.98    7.00
  -2   3  -3  146.29    7.00
  -3  -3  -3   20.30    1.80
  -3  -3  -3   20.20    1.50
   3  -3   3   19.40    1.40
   3  -3   3   18.00    1.80
   3   3   3   22.50    1.50
  -3   3  -3   23.60    1.80
  -3   3  -3   21.70    1.60
   3   3   3   21.50    2.00
   4  -3   3   58.59    3.90
   4  -3   3   63.09    3.20
  -4  -3  -3   64.89    3.60
  -4  -3  -3   62.19    3.20
   4   3   3   58.79    3.30
  -4   3  -3   57.79    3.60
  -4   3  -3   58.59    3.20
   4   3   3   52.39    3.80
   5  -3   3   24.00    2.90
  -5  -3  -3   21.80    2.30
  -5   3  -3   31.70    2.50
   5   3   3   33.80    2.30
   5   3   3   27.60    2.70
   6  -3   3   95.99    6.10
  -6  -3  -3  109.19    5.90
  -6   3  -3   99.69    5.80
   6   3   3   96.79    6.20
  -7  -3  -3   13.30    2.40
   7  -3   3   12.90    2.60
  -7   3  -3    9.20    2.20
   7   3   3   13.00    2.60
   8  -4  -3    5.30    2.20
  -8  -4   3   11.30    2.70
  -8  -4   3    7.80    2.40
   8  -4  -3    8.40    2.40
  -8   4   3    6.10    2.50
   8   4  -3   10.90    2.50
   7  -4  -3   44.10    3.90
   7  -4  -3   44.20    3.70
  -7  -4   3   44.50    4.20
  -7  -4   3   45.90    3.80
  -7   4   3   45.80    3.80
   7   4  -3   50.79    3.90
  -6  -4   3   23.80    2.60
  -6  -4   3   23.00    2.70
   6  -4  -3   22.60    2.70
   6  -4  -3   24.20    2.60
   6   4  -3   25.80    2.60
  -6   4   3   24.00    2.60
  -5  -4   3   61.79    3.60
  -5  -4   3   62.29    3.90
   5  -4  -3   59.09    3.70
   5  -4  -3   61.59    3.60
  -5   4   3   50.29    3.60
   5   4  -3   48.90    3.60
  -4  -4   3  166.78    8.20
   4  -4  -3  169.58    7.30
   4  -4  -3  167.38    8.00
   4  -4  -3  167.68    7.80
  -4  -4   3  164.08    7.80
   4   4  -3  161.48    8.00
  -4   4   3  167.88    8.00
   4   4  -3  157.18    7.20
  -3  -4   3  135.99    7.20
   3  -4  -3  146.99    7.00
  -3  -4   3  142.39    7.00
   3  -4  -3  142.49    6.80
   3  -4  -3  148.29    7.20
   3   4  -3  164.18    6.80
   3   4  -3  169.48    7.30
  -3   4   3  167.28    7.30
   2  -4  -3  262.77   11.50
  -2  -4   3  269.07   11.60
  -2  -4   3  263.47   11.30
   2   4  -3  265.27   11.40
  -2   4   3  239.08   11.20
  -2   4   3  249.28   11.20
  -2   4   3  249.38   11.40
   1  -4  -3   58.89    3.00
  -1  -4   3   59.69    2.90
  -1  -4   3   60.29    3.20
   1   4  -3   64.09    3.10
  -1   4   3   62.39    3.00
  -1   4   3   60.79    3.10
   1   4  -3   62.09    3.00
  -1   4   3   62.49    2.80
   0  -4  -3  327.97   14.70
   0  -4  -3  315.47   14.90
   0  -4   3  324.97   14.70
   0  -4   3  337.37   15.00
   0   4   3  355.86   14.80
   0   4  -3  346.77   14.60
   0   4   3  362.56   14.70
   0   4  -3  336.57   14.90
   0   4   3  357.86   14.90
   1  -4   3   76.99    3.70
   1  -4   3   73.99    3.30
  -1  -4  -3   81.59    3.80
  -1  -4  -3   74.19    3.60
   1  -4   3   77.09    3.90
   1   4   3   74.59    3.70
  -1   4  -3   78.69    3.80
   2  -4   3  546.05   24.20
   2  -4   3  541.95   23.60
  -2  -4  -3  546.75   23.90
   2   4   3  558.54   23.90
  -2   4  -3  557.04   24.00
   2   4   3  558.84   23.80
  -2   4  -3  570.24   23.90
   2   4   3  542.25   24.00
  -3  -4  -3  428.26   19.70
   3  -4   3  436.66   19.90
  -3  -4  -3  441.26   19.50
   3  -4   3  420.56   19.30
  -3   4  -3  454.95   19.70
   3   4   3  462.35   19.70
   3   4   3  468.35   19.90
  -3   4  -3  457.25   19.50
   3   4   3  451.55   19.40
  -4  -4  -3  179.48    8.50
  -4  -4  -3  181.98    8.20
   4  -4   3  177.48    8.10
   4  -4   3  181.08    8.80
  -4   4  -3  176.18    8.10
  -4   4  -3  176.48    8.60
   4   4   3  175.88    8.80
   4   4   3  172.48    8.20
   5  -4   3   54.99    3.90
  -5  -4  -3   50.89    3.40
  -5   4  -3   48.40    3.40
   5   4   3   47.00    3.60
   5   4   3   49.60    3.10
   6  -4   3    3.30    1.70
  -6  -4  -3    5.00    1.50
  -6   4  -3    4.60    1.50
   6   4   3    6.70    2.10
   7  -4   3    1.40    1.80
  -7  -4  -3   -0.40    1.50
   7   4   3    0.50    1.90
  -7   4  -3    0.30    1.40
  -8  -5   3    1.30    2.00
   8  -5  -3    6.50    2.10
  -8  -5   3    6.60    2.50
   8  -5  -3    5.00    2.20
   8   5  -3    7.50    2.20
  -8   5   3    3.80    2.40
   7  -5  -3   34.50    3.40
  -7  -5   3   32.80    3.50
   7  -5  -3   31.60    3.40
  -7  -5   3   32.50    3.20
   7   5  -3   30.30    3.40
  -7   5   3   29.80    3.20
  -6  -5   3   15.90    2.50
   6  -5  -3   14.40    2.10
  -6  -5   3   15.90    2.20
   6  -5  -3   15.80    2.20
  -6   5   3   22.60    2.70
   6   5  -3   22.10    2.40
   5  -5  -3    7.50    1.40
  -5  -5   3    8.90    1.50
   5  -5  -3   10.70    1.70
  -5  -5   3    6.00    1.60
   5   5  -3    7.50    1.50
  -5   5   3    8.20    1.80
   4  -5  -3   35.10    2.00
  -4  -5   3   34.90    2.50
   4  -5  -3   33.30    2.40
   4  -5  -3   34.40    2.50
  -4  -5   3   35.50    2.80
   4   5  -3   43.90    2.00
  -4   5   3   40.60    2.80
   4   5  -3   42.40    2.70
   3  -5  -3  289.67   12.30
  -3  -5   3  279.57   12.70
  -3  -5   3  292.27   12.30
   3  -5  -3  282.57   12.60
   3   5  -3  267.57   12.50
  -3   5   3  273.37   12.10
   3   5  -3  267.67   12.10
  -3   5   3  271.47   12.50
   2  -5  -3  220.28   10.10
  -2  -5   3  230.28   10.20
  -2  -5   3  218.48    9.80
   2   5  -3  232.58   10.10
  -2   5   3  217.78    9.90
  -2   5   3  222.38    9.80
  -2   5   3  224.18   10.10
   1  -5  -3  633.24   26.40
  -1  -5   3  637.04   26.20
  -1  -5   3  628.74   26.60
   1   5  -3  605.84   26.40
  -1   5   3  580.44   26.40
  -1   5   3  610.44   26.40
   1   5  -3  610.14   26.30
  -1   5   3  600.24   26.00
   0  -5  -3   99.69    4.50
   0  -5   3   99.09    4.40
   0  -5   3   93.49    4.60
   0   5   3   93.99    4.50
   0   5   3   94.69    4.30
   0   5   3   93.49    4.50
   0   5  -3   93.99    4.30
   0   5  -3   96.39    4.60
   1  -5   3  120.19    5.10
   1  -5   3  126.19    5.30
   1  -5   3  117.79    5.50
  -1  -5  -3  122.99    5.30
  -1  -5  -3  129.89    5.50
  -1   5  -3  102.69    5.40
   1   5   3   98.09    5.30
   1   5   3  107.99    5.40
   2  -5   3  370.96   15.70
   2  -5   3  372.26   16.30
  -2  -5  -3  378.66   16.10
  -2   5  -3  369.06   16.10
  -2   5  -3  352.86   16.10
   2   5   3  361.76   15.90
   2   5   3  352.76   16.00
   2   5   3  369.56   16.20
   3  -5   3   15.30    1.90
  -3  -5  -3   15.30    1.40
   3  -5   3   13.70    1.20
   3   5   3   17.20    1.80
   3   5   3   17.60    1.40
  -3   5  -3   18.60    1.60
  -3   5  -3   17.30    1.40
   3   5   3   15.80    1.50
   4  -5   3   59.09    3.90
  -4  -5  -3   66.79    3.30
  -4  -5  -3   59.39    3.60
   4  -5   3   66.09    3.30
   4   5   3   58.79    3.40
  -4   5  -3   57.19    3.70
  -4   5  -3   61.79    3.30
   4   5   3   55.69    3.80
   5  -5   3   73.49    4.80
  -5  -5  -3   68.59    4.20
   5   5   3   73.49    4.10
   5   5   3   72.29    4.70
  -5   5  -3   73.29    4.40
  -6  -5  -3   75.99    4.60
   6  -5   3   75.69    5.20
   6   5   3   72.59    5.00
  -6   5  -3   66.69    4.60
   7  -5   3    9.00    2.60
  -7  -5  -3   10.70    2.20
   7   5   3    8.50    2.50
  -7   5  -3    9.00    2.30
  -8  -6   3    0.00    2.00
   8  -6  -3    1.10    1.70
   8  -6  -3    3.00    2.00
  -8  -6   3    0.80    1.90
   8   6  -3   -0.10    1.50
  -8   6   3   -2.40    2.00
   7  -6  -3   44.40    3.80
   7  -6  -3   49.50    4.00
  -7  -6   3   45.20    4.30
  -7  -6   3   48.60    3.80
  -7   6   3   45.90    3.90
   7   6  -3   46.60    4.00
   6  -6  -3  209.88   10.40
   6  -6  -3  209.08   10.50
  -6  -6   3  213.18   10.90
  -6  -6   3  221.18   10.40
  -6   6   3  211.88   10.70
   6   6  -3  218.28   10.70
   5  -6  -3   81.49    4.60
  -5  -6   3   82.29    4.40
  -5  -6   3   83.39    5.00
   5  -6  -3   82.89    4.50
   5   6  -3   68.89    4.60
  -5   6   3   74.79    4.70
   4  -6  -3  159.48    7.10
  -4  -6   3  150.68    7.50
   4  -6  -3  159.98    7.40
  -4  -6   3  157.28    7.00
   4  -6  -3  155.78    6.70
   4   6  -3  133.09    6.60
   4   6  -3  129.99    7.20
  -4   6   3  136.89    7.30
   3  -6  -3  194.48    9.20
  -3  -6   3  190.68    9.20
  -3  -6   3  191.38    9.60
   3  -6  -3  186.48    9.50
   3   6  -3  218.78    9.60
  -3   6   3  223.58    9.20
   3   6  -3  219.18    9.10
  -3   6   3  224.18    9.60
  -2  -6   3   11.20    1.00
  -2  -6   3   14.50    1.60
   2  -6  -3   12.90    1.20
  -2   6   3   13.70    0.90
  -2   6   3   14.30    1.10
  -2   6   3   14.60    1.30
   2   6  -3   11.50    1.10
  -1  -6   3  317.37   13.70
  -1  -6   3  313.17   14.20
   1  -6  -3  309.67   14.00
   1   6  -3  323.07   13.90
  -1   6   3  313.37   14.00
  -1   6   3  325.37   14.00
   1   6  -3  328.47   14.00
   0  -6  -3   89.69    4.50
   0  -6   3   91.79    4.30
   0  -6   3   90.89    4.70
   0   6   3   94.09    4.50
   0   6   3   95.59    4.50
   0   6  -3  102.59    4.30
   0   6   3   96.49    4.30
   0   6  -3  101.49    4.60
   1  -6   3  221.48    9.70
   1  -6   3  224.78    9.50
   1  -6   3  238.28   10.00
  -1  -6  -3  225.18    9.70
  -1   6  -3  219.08    9.80
   1   6   3  215.88    9.80
   1   6   3  206.48    9.70
   1   6   3  200.88    9.70
   2  -6   3  403.46   17.70
  -2  -6  -3  413.26   18.10
   2  -6   3  392.26   18.30
  -2   6  -3  415.86   18.10
   2   6   3  424.56   18.20
  -2   6  -3  417.06   18.10
   2   6   3  410.56   17.90
   2   6   3  426.76   18.10
  -3  -6  -3  515.35   22.80
   3  -6   3  511.85   22.60
   3  -6   3  537.75   23.30
  -3   6  -3  524.35   22.80
   3   6   3  528.05   22.90
   3   6   3  520.35   23.10
  -3   6  -3  527.55   23.00
   3   6   3  529.25   22.80
  -4  -6  -3  157.08    7.70
   4  -6   3  172.08    8.20
  -4  -6  -3  170.18    7.50
   4  -6   3  157.78    7.40
   4   6   3  150.58    7.50
  -4   6  -3  153.28    7.80
  -4   6  -3  159.38    7.40
   4   6   3  153.88    8.00
  -5  -6  -3   44.30    3.00
   5  -6   3   43.60    3.50
   5   6   3   40.00    3.50
   5   6   3   39.00    2.80
  -5   6  -3   36.60    3.10
  -6  -6  -3    2.50    1.30
   6  -6   3    4.90    1.90
  -6   6  -3    1.30    1.30
   6   6   3    3.50    1.90
   7  -6   3    0.60    1.90
  -7  -6  -3    0.30    1.60
   7   6   3    0.00    1.90
  -7   6  -3   -0.20    1.70
  -8  -7   3    8.40    2.80
  -8  -7   3    9.40    2.40
   8  -7  -3   15.10    2.60
   8   7  -3    9.40    2.30
  -8   7   3    8.40    2.70
  -7  -7   3   24.10    3.20
  -7  -7   3   28.90    3.00
   7  -7  -3   27.30    2.90
   7  -7  -3   23.70    2.90
   7   7  -3   22.40    3.00
  -7   7   3   26.40    3.30
  -6  -7   3   68.19    4.40
   6  -7  -3   75.19    4.70
  -6  -7   3   63.29    4.90
   6  -7  -3   67.99    4.30
   6   7  -3   77.59    4.80
  -6   7   3   69.19    4.60
   5  -7  -3  221.28   10.70
  -5  -7   3  218.18   10.30
  -5  -7   3  223.18   11.00
   5  -7  -3  216.98   10.40
  -5   7   3  227.28   10.80
   5   7  -3  225.58   10.70
   4  -7  -3  115.09    6.20
  -4  -7   3  118.19    6.50
   4  -7  -3  116.29    6.00
  -4  -7   3  119.69    6.00
   4   7  -3  124.49    6.30
  -4   7   3  127.59    6.40
  -4   7   3  132.59    5.70
   4   7  -3  133.19    5.70
  -3  -7   3  282.37   11.30
   3  -7  -3  273.37   11.30
  -3  -7   3  276.27   11.90
   3  -7  -3  270.27   11.70
  -3   7   3  237.68   11.20
   3   7  -3  234.18   11.60
  -3   7   3  239.48   11.60
   3   7  -3  229.78   11.20
   2  -7  -3  108.99    5.70
  -2  -7   3  116.89    5.40
  -2  -7   3  124.49    6.00
   2   7  -3  125.39    5.80
  -2   7   3  120.79    5.30
   2   7  -3  127.69    5.60
  -2   7   3  117.49    5.60
  -2   7   3  123.49    5.80
  -1  -7   3  150.58    6.80
  -1  -7   3  149.79    6.30
   1  -7  -3  155.28    6.60
   1   7  -3  132.59    6.50
  -1   7   3  138.69    6.50
  -1   7   3  138.69    6.50
   1   7  -3  132.59    6.50
   0  -7   3  130.29    5.90
   0  -7  -3  118.49    6.10
   0  -7   3  128.79    6.30
   0   7   3  141.39    5.90
   0   7  -3  134.09    6.00
   0   7  -3  131.49    6.20
   0   7   3  142.19    6.20
   0   7   3  135.39    6.10
   1  -7   3  257.17   11.50
  -1  -7  -3  250.37   11.70
   1  -7   3  261.17   11.90
  -1   7  -3  267.37   11.70
  -1   7  -3  268.47   11.80
   1   7   3  264.27   11.70
   1   7   3  278.07   11.80
   1   7   3  278.17   11.70
   2  -7   3  318.77   14.00
   2  -7   3  310.07   13.40
   2   7   3  315.97   13.70
  -2   7  -3  309.17   13.70
  -2   7  -3  306.47   13.70
   2   7   3  306.67   13.80
   2   7   3  301.77   13.60
   2   7   3  309.07   13.70
   3  -7   3   11.40    1.60
  -3  -7  -3   19.20    1.60
   3  -7   3   20.40    1.40
   3   7   3   16.10    1.80
  -3   7  -3   20.30    1.80
  -3   7  -3   16.90    1.60
   3   7   3   18.40    1.50
   3   7   3   13.10    1.40
  -4  -7  -3   99.19    5.10
   4  -7   3  100.99    5.50
  -4  -7  -3  105.09    4.90
   4  -7   3  100.29    4.80
  -4   7  -3   92.69    4.80
   4   7   3   91.79    5.40
  -4   7  -3   86.69    5.10
   4   7   3   95.29    5.00
   5  -7   3  118.09    6.70
  -5  -7  -3  115.89    6.30
  -5   7  -3  117.49    6.30
   5   7   3  113.29    6.70
   5   7   3  127.29    6.20
   6  -7   3   44.90    4.00
  -6  -7  -3   46.20    3.50
  -6   7  -3   44.00    3.60
   6   7   3   41.00    3.80
   7  -7   3   14.40    2.90
  -7  -7  -3    9.70    2.00
   7   7   3   12.10    2.60
  -7   7  -3   16.00    2.80
   8  -8  -3    2.80    1.90
  -8  -8   3    1.00    2.20
   8   8  -3    3.30    1.90
  -8   8   3    0.70    2.20
   7  -8  -3   37.30    3.50
  -7  -8   3   35.70    3.40
  -7  -8   3   34.40    4.00
   7  -8  -3   35.00    3.40
  -7   8   3   38.20    3.60
   7   8  -3   36.50    3.60
  -6  -8   3   79.09    5.40
   6  -8  -3   81.79    4.80
   6  -8  -3   78.49    5.00
  -6  -8   3   76.09    4.70
   6   8  -3   83.09    5.10
  -6   8   3   83.69    5.20
  -5  -8   3  121.49    6.10
  -5  -8   3  120.29    6.70
   5  -8  -3  115.99    6.00
   5  -8  -3  120.29    6.40
   5   8  -3  117.49    6.40
  -5   8   3  119.29    6.40
   4  -8  -3  361.26   16.30
   4  -8  -3  365.36   15.90
  -4  -8   3  380.26   15.90
  -4  -8   3  373.56   16.60
   4   8  -3  359.16   15.70
   4   8  -3  354.96   16.30
  -4   8   3  349.77   15.70
  -4   8   3  335.67   16.20
  -3  -8   3   75.99    3.50
  -3  -8   3   71.59    4.00
   3  -8  -3   76.59    3.40
   3  -8  -3   77.29    3.90
   3   8  -3   61.29    3.40
  -3   8   3   63.29    3.40
  -3   8   3   61.19    3.80
   3   8  -3   59.19    3.70
  -2  -8   3   89.39    4.50
   2  -8  -3   82.49    4.20
  -2  -8   3   85.29    3.70
   2   8  -3   77.79    4.00
  -2   8   3   76.79    4.00
  -2   8   3   78.69    3.60
   2   8  -3   80.69    4.10
  -2   8   3   81.89    4.20
  -1  -8   3   89.09    4.70
   1  -8  -3   81.19    4.40
  -1  -8   3   88.69    4.10
   1   8  -3   97.49    4.40
   1   8  -3   96.09    4.50
  -1   8   3   97.39    4.50
  -1   8   3   95.39    4.50
   0  -8   3  392.46   17.60
   0  -8  -3  404.06   17.50
   0  -8   3  388.76   17.20
   0   8  -3  396.66   17.30
   0   8   3  405.16   17.10
   0   8   3  415.96   17.40
   0   8  -3  400.36   17.50
   0   8   3  398.06   17.50
   1  -8   3  222.78    9.40
  -1  -8  -3  220.28    9.20
   1  -8   3  217.18    8.90
  -1   8  -3  188.28    9.20
   1   8   3  188.88    9.10
   1   8   3  195.28    9.10
   1   8   3  188.28    9.10
   2  -8   3  352.06   15.10
   2  -8   3  366.86   14.60
   2   8   3  322.97   14.80
  -2   8  -3  322.97   14.80
   2   8   3  317.57   14.90
   2   8   3  335.87   14.80
  -2   8  -3  327.17   14.80
  -3  -8  -3  418.66   18.60
   3  -8   3  421.46   18.40
   3  -8   3  429.36   19.00
   3   8   3  440.86   18.70
  -3   8  -3  433.96   18.60
  -3   8  -3  434.86   18.70
   3   8   3  376.76   18.50
   3   8   3  426.86   18.90
   4  -8   3   92.59    4.80
  -4  -8  -3   98.69    5.10
   4  -8   3   97.79    5.50
  -4  -8  -3  101.49    4.90
   4   8   3   99.09    5.50
  -4   8  -3   94.19    4.90
  -4   8  -3   98.99    5.20
   4   8   3   90.59    5.00
  -5  -8  -3   50.09    3.30
   5  -8   3   48.10    3.80
   5   8   3   43.40    3.10
   5   8   3   43.90    3.70
  -5   8  -3   40.30    3.20
  -6  -8  -3   10.40    2.00
   6  -8   3    8.80    2.30
  -6   8  -3    7.30    1.90
   6   8   3   10.40    2.40
  -7  -8  -3    1.20    1.60
   7  -8   3    0.50    1.90
  -7   8  -3    0.50    1.80
   7   8   3    0.10    1.80
   8  -9  -3    6.80    2.20
  -8  -9   3    5.80    2.70
   8   9  -3    8.70    2.40
  -8   9   3    6.40    2.40
   7  -9  -3   24.60    3.00
  -7  -9   3   22.80    3.20
  -7  -9   3   23.20    3.00
  -7   9   3   19.80    3.10
   7   9  -3   20.50    2.90
   6  -9  -3   26.90    2.60
  -6  -9   3   23.90    3.10
   6  -9  -3   27.00    2.70
  -6  -9   3   25.60    2.50
   6   9  -3   27.20    2.90
  -6   9   3   31.20    3.20
   5  -9  -3   35.80    2.70
  -5  -9   3   36.70    3.40
  -5  -9   3   36.70    2.70
   5  -9  -3   43.90    3.20
   5   9  -3   37.70    3.00
  -5   9   3   39.30    3.10
   4  -9  -3   70.09    4.50
   4  -9  -3   73.39    4.10
  -4  -9   3   75.89    4.10
  -4  -9   3   74.09    4.70
   4   9  -3   85.29    4.60
  -4   9   3   84.69    4.60
   4   9  -3   90.39    4.00
  -4   9   3   85.29    4.00
  -3  -9   3  164.28    7.90
  -3  -9   3  167.68    8.60
   3  -9  -3  163.68    7.80
   3  -9  -3  171.38    8.30
   3   9  -3  182.18    8.40
  -3   9   3  190.28    8.00
   3   9  -3  184.88    8.00
  -3   9   3  181.28    8.40
   2  -9  -3  487.85   22.60
  -2  -9   3  492.55   22.80
  -2  -9   3  487.65   22.10
   2   9  -3  533.45   22.70
  -2   9   3  541.25   22.60
   2   9  -3  531.85   22.50
  -2   9   3  555.34   22.50
  -1  -9   3  820.42   34.00
   1  -9  -3  823.12   34.50
  -1  -9   3  800.92   34.60
  -1   9   3  804.62   34.40
   1   9  -3  774.42   34.40
  -1   9   3  790.42   34.40
   1   9  -3  782.82   34.40
   0  -9   3  589.84   26.30
   0  -9  -3  609.04   26.60
   0  -9   3  597.64   26.80
   0   9  -3  616.94   26.50
   0   9   3  640.84   26.30
   0   9   3  607.24   26.50
   0   9   3  634.14   26.60
   0   9  -3  627.44   26.70
   1  -9   3  309.27   14.10
   1  -9   3  301.97   13.60
  -1  -9  -3  302.97   13.80
   1   9   3  312.87   13.80
   1   9   3  321.87   13.80
   1   9   3  332.87   13.90
  -1   9  -3  315.67   13.90
  -1   9  -3  314.17   13.70
   2  -9   3  176.28    8.10
   2  -9   3  158.18    7.50
   2   9   3  163.48    7.80
   2   9   3  171.98    7.80
   2   9   3  163.88    7.70
  -2   9  -3  163.78    7.80
   2   9   3  175.78    7.70
  -2   9  -3  167.78    7.70
   3  -9   3   63.89    3.20
   3  -9   3   56.79    3.70
  -3   9  -3   61.69    3.50
  -3   9  -3   61.89    3.40
   3   9   3   59.59    3.30
   3   9   3   59.49    3.70
   4  -9   3   51.99    3.60
  -4  -9  -3   56.19    3.40
   4  -9   3   56.99    3.10
  -4  -9  -3   57.19    3.20
   4   9   3   49.80    3.70
  -4   9  -3   51.89    3.40
  -4   9  -3   54.49    3.20
  -5  -9  -3   61.69    4.00
   5  -9   3   64.69    4.50
   5   9   3   69.39    4.60
  -5   9  -3   71.79    4.40
  -6  -9  -3   24.10    2.70
   6  -9   3   28.90    3.40
   6   9   3   30.10    3.50
  -6   9  -3   21.90    2.80
  -7  -9  -3   24.70    3.00
   7  -9   3   21.70    3.40
   7   9   3   22.40    3.50
  -7   9  -3   23.80    3.20
   8 -10  -3    1.20    1.90
  -8 -10   3    0.60    2.40
  -8  10   3    0.80    2.40
   8  10  -3    2.20    1.90
  -7 -10   3   18.10    3.20
   7 -10  -3   16.40    2.50
  -7  10   3   19.00    2.90
   7  10  -3   22.60    3.00
  -6 -10   3   33.40    3.50
  -6 -10   3   34.20    2.90
   6 -10  -3   41.30    3.10
   6 -10  -3   36.10    3.30
  -6  10   3   41.70    3.40
   6  10  -3   34.40    3.20
   5 -10  -3   75.19    4.40
  -5 -10   3   80.89    5.20
  -5 -10   3   81.99    4.40
   5 -10  -3   79.79    4.80
   5  10  -3   84.19    4.90
  -5  10   3   77.09    4.80
  -4 -10   3   70.39    3.60
   4 -10  -3   68.49    3.60
  -4 -10   3   71.29    4.50
   4 -10  -3   64.79    4.00
  -4  10   3   61.79    4.00
   4  10  -3   65.89    4.10
  -4  10   3   66.49    3.50
   4  10  -3   68.49    3.50
  -3 -10   3   59.99    3.90
   3 -10  -3   67.59    3.60
  -3 -10   3   60.59    3.00
   3 -10  -3   59.79    3.00
   3  10  -3   59.89    3.20
  -3  10   3   59.59    3.20
   3  10  -3   57.29    3.50
  -3  10   3   58.39    3.50
  -2 -10   3  278.57   12.40
  -2 -10   3  270.97   11.50
   2 -10  -3  271.07   12.10
  -2  10   3  262.97   11.90
   2  10  -3  267.27   11.90
  -2  10   3  261.07   12.00
   2  10  -3  261.27   12.10
  -1 -10   3  223.08    9.80
   1 -10  -3  226.78   10.40
  -1 -10   3  226.08   10.60
  -1  10   3  232.58   10.30
   1  10  -3  231.18   10.40
  -1  10   3  238.98   10.30
   1  10  -3  229.38   10.30
   0 -10   3  378.66   17.00
   0 -10  -3  388.06   16.80
   0 -10  -3  377.06   16.40
   0  10   3  368.26   16.80
   0  10   3  383.86   16.70
   0  10  -3  387.36   16.40
   0  10  -3  384.36   16.80
   0  10  -3  389.66   16.70
   1  10   3   48.90    2.60
   1  10   3   47.40    2.70
   1  10   3   46.30    2.60
  -1  10  -3   47.80    2.80
  -1  10  -3   47.00    2.50
   2 -10   3  235.18   10.60
   2 -10   3  221.98   10.10
  -2  10  -3  229.68   10.40
   2  10   3  227.38   10.30
   2  10   3  225.58   10.40
   2  10   3  225.58   10.30
   2  10   3  227.78   10.40
  -2  10  -3  229.58   10.30
   3 -10   3  239.18   11.30
   3 -10   3  231.28   10.70
  -3  10  -3  244.78   11.00
   3  10   3  250.27   11.00
   3  10   3  258.47   11.00
  -3  10  -3  237.68   11.00
   3  10   3  249.68   11.20
   3  10   3  212.98   10.80
   4 -10   3   64.29    3.40
  -4 -10  -3   67.99    3.70
   4 -10   3   70.09    4.20
  -4 -10  -3   68.79    3.60
  -4  10  -3   54.79    3.50
   4  10   3   53.59    3.50
   4  10   3   59.39    4.00
  -4  10  -3   56.39    3.70
  -5 -10  -3   64.49    3.90
   5 -10   3   63.49    4.40
   5  10   3   53.09    4.30
  -5  10  -3   61.59    4.10
  -6 -10  -3   13.00    2.10
   6 -10   3   12.80    2.50
   6  10   3   12.90    2.50
  -6  10  -3   12.10    2.20
   7 -10   3    0.20    1.70
  -7 -10  -3   -0.50    1.40
   7  10   3    1.80    2.20
  -7  10  -3   -1.30    1.70
   7 -11  -3   17.20    2.50
  -7 -11   3   21.50    3.40
  -7  11   3   15.60    2.90
   7  11  -3   18.40    2.90
   6 -11  -3    8.90    1.90
  -6 -11   3   11.30    2.40
  -6  11   3   11.40    2.10
   6  11  -3   12.00    2.20
   5 -11  -3   61.79    4.10
  -5 -11   3   66.39    3.70
  -5 -11   3   63.69    4.50
   5 -11  -3   64.69    3.80
  -5  11   3   62.89    4.20
   5  11  -3   63.39    4.20
  -4 -11   3   99.89    6.00
  -4 -11   3   98.79    5.10
   4 -11  -3   95.09    5.50
   4 -11  -3   96.49    5.10
   4  11  -3  112.89    5.80
  -4  11   3  113.99    5.20
  -4  11   3  112.99    5.80
   4  11  -3  112.09    5.10
   3 -11  -3   81.29    4.10
  -3 -11   3   86.29    5.00
  -3 -11   3   78.19    4.00
   3 -11  -3   78.39    4.60
  -3  11   3   95.19    4.70
   3  11  -3   90.69    4.70
  -3  11   3   97.09    4.40
   3  11  -3   89.39    4.30
   2 -11  -3  526.35   24.00
  -2 -11   3  530.25   23.30
  -2 -11   3  527.95   24.20
  -2  11   3  568.34   23.80
   2  11  -3  567.14   23.80
   2  11  -3  553.04   24.00
  -2  11   3  558.64   23.90
  -1 -11   3  565.24   24.40
   1 -11  -3  555.74   24.20
   1  11  -3  547.15   24.10
  -1  11   3  554.24   24.00
  -1  11   3  558.94   24.10
   1  11  -3  541.85   24.10
   0 -11  -3   66.19    2.80
   0 -11   3   69.89    3.60
   0 -11  -3   63.49    3.20
   0  11  -3   55.09    3.20
   0  11   3   55.79    3.00
   0  11   3   51.09    3.10
   0  11  -3   54.29    3.00
   0  11  -3   53.59    2.70
  -1 -11  -3   82.49    3.90
   1 -11   3   82.49    4.10
   1 -11   3   81.09    3.70
   1  11   3   69.89    3.80
  -1  11  -3   68.59    3.50
   1  11   3   69.69    3.70
   1  11   3   66.39    3.60
  -1  11  -3   64.89    3.80
   2 -11   3   90.19    4.80
   2 -11   3   92.19    4.30
  -2  11  -3   83.09    4.40
  -2  11  -3   88.29    4.60
   2  11   3   85.99    4.60
   2  11   3   91.09    4.40
   2  11   3   90.99    4.60
   3 -11   3    5.90    1.40
   3 -11   3    5.40    0.90
   3  11   3    8.40    1.20
   3  11   3    7.20    1.40
   3  11   3    7.50    1.20
   3  11   3    6.60    1.10
  -3  11  -3    7.70    1.20
  -3  11  -3    7.70    1.30
  -4 -11  -3   24.20    2.10
   4 -11   3   23.20    2.50
   4 -11   3   25.50    2.00
  -4 -11  -3   25.30    2.20
  -4  11  -3   29.10    2.40
  -4  11  -3   30.20    2.20
   4  11   3   34.30    2.50
   4  11   3   33.40    2.80
   5 -11   3   64.79    4.70
  -5 -11  -3   62.09    4.10
   5  11   3   73.29    4.20
   5  11   3   69.79    4.80
  -5  11  -3   68.79    4.40
   6 -11   3   22.30    3.10
  -6 -11  -3   19.20    2.40
   6  11   3   14.70    2.60
  -6  11  -3   19.40    2.70
   6  11   3   19.60    2.70
   7 -11   3   31.90    4.00
  -7 -11  -3   31.10    3.30
  -7  11  -3   35.70    3.50
   7  11   3   27.20    3.70
  -7 -12   3    8.50    2.40
   7 -12  -3   10.20    2.20
  -7  12   3    8.00    2.50
   7  12  -3   15.60    2.70
  -6 -12   3   51.39    4.50
   6 -12  -3   45.00    3.70
   6  12  -3   51.49    3.90
  -6  12   3   60.09    4.10
   5 -12  -3   35.40    3.10
  -5 -12   3   31.70    3.30
  -5  12   3   45.90    3.30
   5  12  -3   39.70    3.20
  -4 -12   3   83.19    3.80
   4 -12  -3   89.39    4.50
   4 -12  -3   84.19    3.90
  -4 -12   3   84.59    4.80
   4  12  -3   61.29    3.70
   4  12  -3   57.79    4.10
  -4  12   3   64.29    3.80
  -4  12   3   62.19    4.40
   3 -12  -3  106.49    5.70
  -3 -12   3  111.49    6.10
   3 -12  -3  102.39    5.00
  -3 -12   3   99.79    5.00
  -3  12   3  117.49    5.80
   3  12  -3  117.79    5.80
  -3  12   3  121.69    5.40
   2 -12  -3   87.29    4.40
  -2 -12   3   79.89    4.60
   2  12  -3   81.19    4.30
  -2  12   3   75.69    4.30
   2  12  -3   80.29    4.20
  -2  12   3   79.89    4.20
  -1 -12   3   91.19    4.80
   1 -12  -3   83.39    4.50
   1  12  -3   88.79    4.40
  -1  12   3   85.79    4.30
  -1  12   3   86.89    4.50
   1  12  -3   87.39    4.50
   0 -12  -3  157.58    6.90
   0 -12   3  151.78    7.50
   0 -12  -3  160.68    7.40
   0  12   3  157.18    7.40
   0  12  -3  153.18    6.90
   0  12   3  157.28    7.20
   0  12  -3  158.98    7.40
   0  12  -3  153.98    7.20
  -1 -12  -3  112.49    5.60
  -1 -12  -3  117.69    5.40
   1 -12   3  113.89    5.80
   1 -12   3  109.39    5.40
  -1  12  -3  113.09    5.30
  -1  12  -3  112.99    5.60
   1  12   3  112.19    5.40
   1  12   3  117.39    5.60
   2 -12   3   77.89    4.00
   2 -12   3   73.49    4.40
   2  12   3   81.79    4.30
  -2  12  -3   85.29    4.40
   2  12   3   87.59    4.30
   2  12   3   84.69    4.20
   3 -12   3  119.29    5.70
   3 -12   3  113.19    6.20
   3  12   3  121.99    5.90
   3  12   3  123.79    6.10
   3  12   3  121.39    6.20
   3  12   3  122.49    5.90
  -3  12  -3  119.89    6.00
  -3  12  -3  114.79    5.90
   4 -12   3   44.90    3.50
   4 -12   3   46.10    2.90
  -4 -12  -3   47.00    3.10
  -4 -12  -3   43.10    3.00
  -4  12  -3   49.70    3.20
   4  12   3   52.09    3.60
  -4  12  -3   50.69    3.10
   4  12   3   50.89    3.20
   4  12   3   50.99    3.00
  -5 -12  -3   29.50    2.60
   5 -12   3   31.60    3.20
   5  12   3   29.80    3.20
   5  12   3   24.50    2.50
  -5  12  -3   27.50    2.60
  -6 -12  -3   16.30    2.20
   6 -12   3   10.90    2.30
   6  12   3   12.40    2.60
  -6  12  -3    8.90    2.00
   6  12   3   14.40    2.30
   7 -12   3    0.60    1.90
  -7 -12  -3   -0.20    1.50
  -7  12  -3    0.60    1.90
   7  12   3   -0.90    2.00
   7 -13  -3    2.00    1.80
  -7 -13   3    0.90    2.10
  -7  13   3    0.20    1.80
   7  13  -3    1.40    1.80
  -6 -13   3    8.40    2.40
   6 -13  -3    8.30    1.90
  -6  13   3    8.10    2.10
   6  13  -3   10.60    2.20
   5 -13  -3   55.59    4.10
  -5 -13   3   60.79    4.40
   5  13  -3   58.19    4.10
  -5  13   3   61.69    4.10
   4 -13  -3   10.30    1.70
  -4 -13   3   11.20    2.00
   4  13  -3   16.20    2.10
  -4  13   3   15.30    1.50
   4  13  -3   15.00    1.50
  -4  13   3   13.10    1.90
   3 -13  -3   43.80    2.30
   3 -13  -3   43.70    3.10
  -3 -13   3   43.10    2.40
  -3 -13   3   44.00    3.30
  -3  13   3   46.20    3.10
   3  13  -3   42.70    3.00
  -3  13   3   47.60    2.70
  -2 -13   3  786.82   34.80
   2 -13  -3  785.72   34.60
   2  13  -3  789.22   34.50
  -2  13   3  818.62   34.40
   2  13  -3  787.22   34.40
  -2  13   3  806.12   34.40
   1 -13  -3  398.86   16.80
  -1 -13   3  400.56   17.00
  -1  13   3  370.76   16.70
   1  13  -3  362.66   16.70
   1  13  -3  369.86   16.70
  -1  13   3  357.06   16.50
   0 -13  -3  134.29    5.60
   0 -13  -3  127.59    6.10
   0 -13   3  135.99    6.40
   0  13   3  114.29    6.00
   0  13   3  122.19    5.80
   0  13  -3  118.49    6.10
   0  13  -3  119.59    5.50
   0  13  -3  119.29    5.90
  -1 -13  -3  128.29    6.10
   1 -13   3  128.49    5.90
  -1 -13  -3  133.19    5.90
   1 -13   3  133.89    6.30
   1  13   3  115.39    5.80
  -1  13  -3  120.29    6.10
  -1  13  -3  116.19    5.70
   1  13   3  117.29    6.10
   2 -13   3  162.38    7.60
   2 -13   3  156.98    7.10
  -2  13  -3  153.88    7.40
   2  13   3  152.18    7.10
   2  13   3  140.79    7.30
   2  13   3  146.99    7.30
   2  13   3  154.38    7.40
   3 -13   3   16.70    1.50
   3 -13   3    9.50    1.60
   3  13   3   15.30    1.80
   3  13   3   14.60    1.60
  -3  13  -3   13.20    1.60
   3  13   3   13.10    1.50
  -3  13  -3   13.70    1.60
   3  13   3   12.60    1.80
   4 -13   3   16.80    2.30
   4 -13   3   20.80    2.40
  -4 -13  -3   20.80    2.00
   4  13   3   20.10    2.40
  -4  13  -3   19.70    2.00
   4  13   3   22.50    2.10
   4  13   3   17.20    1.90
  -4  13  -3   19.60    2.00
   5 -13   3   60.09    4.40
  -5 -13  -3   56.89    3.80
  -5  13  -3   58.89    4.10
   5  13   3   57.09    4.40
   5  13   3   62.69    4.00
   6 -13   3   19.60    3.00
  -6 -13  -3   18.80    2.40
   6  13   3   14.70    2.90
   6  13   3   14.40    2.30
  -6  13  -3   16.80    2.50
  -7 -14   3   14.00    3.00
   7 -14  -3   17.90    2.80
  -7  14   3   17.20    2.90
   7  14  -3   15.90    2.80
  -6 -14   3   30.60    3.80
   6 -14  -3   34.00    3.40
   6  14  -3   36.50    3.30
  -6  14   3   36.10    3.40
   5 -14  -3   62.19    4.10
  -5 -14   3   52.39    4.30
   5  14  -3   60.79    4.10
  -5  14   3   51.69    4.10
   4 -14  -3  124.89    6.50
  -4 -14   3  125.79    6.90
   4  14  -3  121.49    6.50
   4  14  -3  118.49    5.90
  -4  14   3  120.49    6.00
  -4  14   3  120.09    6.50
  -3 -14   3  181.48    9.20
   3 -14  -3  187.88    9.00
   3  14  -3  193.28    8.60
  -3  14   3  177.88    8.80
  -3  14   3  181.78    8.60
   3  14  -3  179.08    8.90
   2 -14  -3   13.20    1.60
  -2 -14   3    7.80    1.70
   2  14  -3   10.50    1.40
  -2  14   3   13.00    1.50
  -2  14   3   11.90    1.40
   2  14  -3   11.10    1.50
  -1 -14   3   81.69    4.60
   1 -14  -3   74.29    4.20
  -1  14   3   72.19    3.90
   1  14  -3   76.89    4.10
   1  14  -3   75.09    4.10
  -1  14   3   79.99    4.20
   0 -14  -3  182.58    8.40
   0 -14   3  171.08    8.20
   0 -14  -3  175.28    7.80
   0 -14   3  166.48    8.40
   0  14  -3  175.28    8.40
   0  14   3  177.68    8.10
   0  14  -3  176.08    8.20
   0  14  -3  176.88    7.70
   0  14   3  181.58    8.30
   1 -14   3  313.17   14.50
  -1 -14  -3  311.77   14.60
   1 -14   3  319.67   14.80
  -1 -14  -3  313.67   14.40
  -1  14  -3  341.87   14.30
   1  14   3  341.97   14.70
  -1  14  -3  338.87   14.70
  -2 -14  -3  143.69    7.10
   2 -14   3  145.29    7.30
   2 -14   3  147.29    6.80
  -2  14  -3  144.39    7.10
  -2  14  -3  146.49    6.80
   2  14   3  134.99    7.00
   2  14   3  147.39    7.10
   3 -14   3  119.99    6.40
   3 -14   3  122.19    5.80
   3  14   3  113.39    6.10
  -3  14  -3  116.39    6.10
   3  14   3  116.09    6.00
   3  14   3  121.09    5.90
  -3  14  -3  122.29    6.00
   3  14   3  120.49    6.30
   4 -14   3   25.20    2.60
  -4 -14  -3   28.80    2.40
  -4  14  -3   32.20    2.50
   4  14   3   29.90    2.50
  -4  14  -3   26.50    2.30
   4  14   3   30.80    2.40
   4  14   3   34.30    3.00
   5 -14   3   14.20    2.30
  -5 -14  -3   11.70    1.80
  -5  14  -3   13.10    2.10
   5  14   3   12.10    1.90
   5  14   3   11.30    2.30
   6 -14   3    9.60    2.20
  -6 -14  -3    9.60    1.90
   6  14   3   10.40    2.10
  -6  14  -3    9.30    2.20
   6  14   3   12.40    2.70
   7 -15  -3    5.70    2.10
  -7 -15   3    3.50    2.20
   7  15  -3    1.80    1.90
  -7  15   3    6.10    2.30
  -6 -15   3    4.50    2.10
   6 -15  -3    7.10    2.10
   6  15  -3    5.20    1.90
  -6  15   3    4.50    1.90
  -5 -15   3    0.50    1.50
   5 -15  -3    1.50    1.50
   5  15  -3    1.80    1.30
  -5  15   3    2.80    1.80
  -4 -15   3    3.10    1.70
   4 -15  -3    2.10    1.30
  -4  15   3    2.40    0.90
   4  15  -3    2.40    0.90
  -4  15   3    1.80    1.50
   4  15  -3    3.30    1.30
   3 -15  -3  158.38    8.00
  -3 -15   3  160.18    8.40
  -3  15   3  163.98    7.80
  -3  15   3  167.98    8.00
   3  15  -3  163.38    7.80
   3  15  -3  159.78    8.10
   2 -15  -3  642.94   28.60
  -2 -15   3  653.33   28.80
  -2  15   3  657.73   28.40
   2  15  -3  630.64   28.50
  -2  15   3  656.53   28.40
   2  15  -3  665.03   28.40
  -1 -15   3  335.87   15.10
   1 -15  -3  335.17   14.00
   1 -15  -3  319.77   14.90
   1  15  -3  328.57   14.80
   1  15  -3  322.27   14.80
  -1  15   3  328.37   14.60
  -1  15   3  328.47   14.80
   0 -15   3  278.47   12.70
   0 -15   3  265.17   12.30
   0 -15  -3  277.97   12.00
   0 -15  -3  278.57   12.60
   0  15  -3  271.07   11.80
   0  15   3  272.37   12.50
   0  15  -3  268.47   12.50
  -1 -15  -3  306.57   13.70
   1 -15   3  307.67   13.80
  -1 -15  -3  310.47   13.40
   1  15   3  290.67   13.60
  -1  15  -3  287.97   13.60
  -1  15  -3  293.47   13.10
   2 -15   3  180.98    8.50
  -2 -15  -3  187.38    8.70
  -2 -15  -3  174.88    8.70
   2 -15   3  186.58    9.00
  -2  15  -3  185.28    8.50
  -2  15  -3  178.38    8.70
   2  15   3  183.68    8.70
   2  15   3  185.28    8.80
   3 -15   3   27.10    2.00
   3 -15   3   23.10    2.50
   3  15   3   27.30    2.30
  -3  15  -3   21.80    2.20
  -3  15  -3   26.70    2.20
   3  15   3   27.30    2.30
   3  15   3   24.80    2.50
  -4 -15  -3   50.99    3.30
   4 -15   3   52.79    3.90
   4  15   3   51.49    3.80
  -4  15  -3   54.89    3.60
  -4  15  -3   48.60    3.30
   4  15   3   52.69    3.50
   5 -15   3   49.60    4.00
  -5 -15  -3   52.19    3.40
  -5  15  -3   44.40    3.60
   5  15   3   45.40    4.00
   5  15   3   49.30    3.60
   6 -15   3   25.60    3.30
  -6 -15  -3   20.50    2.50
   6  15   3   17.40    2.50
   6  15   3   19.60    3.20
  -6  15  -3   17.50    2.70
   7 -16  -3   11.10    2.40
  -7 -16   3   11.50    3.10
  -7  16   3   11.10    2.60
   7  16  -3   17.10    2.90
   6 -16  -3   68.19    4.80
  -6 -16   3   65.69    5.20
   6  16  -3   64.39    4.80
  -6  16   3   64.59    4.90
   5 -16  -3  210.58   10.40
  -5 -16   3  195.68   10.70
  -5  16   3  203.38   10.30
   5  16  -3  214.58   10.50
   4 -16  -3   55.69    3.90
  -4 -16   3   54.19    4.30
   4  16  -3   54.89    3.30
   4  16  -3   57.99    3.90
  -4  16   3   55.89    3.40
  -4  16   3   56.19    3.90
  -3 -16   3   81.39    4.80
   3 -16  -3   80.49    4.30
  -3  16   3   61.19    3.80
  -3  16   3   66.29    4.10
   3  16  -3   66.39    4.20
   3  16  -3   64.99    3.90
   2 -16  -3   18.20    2.00
  -2 -16   3   15.80    2.20
  -2  16   3   15.40    1.80
  -2  16   3   12.30    1.60
   2  16  -3   11.90    1.60
   2  16  -3   16.70    1.80
  -1 -16   3   29.10    2.90
   1 -16  -3   35.30    2.50
  -1  16   3   35.20    2.30
   1  16  -3   33.50    2.50
   1  16  -3   34.40    2.50
  -1  16   3   36.90    2.60
   0 -16  -3  134.29    6.50
   0 -16   3  142.19    6.90
   0 -16   3  140.19    7.20
   0 -16  -3  137.59    7.00
   0  16  -3  146.09    6.30
   0  16   3  148.69    7.00
   0  16  -3  143.39    7.00
  -1 -16  -3  197.88    9.60
   1 -16   3  201.78   10.00
  -1 -16  -3  205.88    9.90
   1  16   3  215.58    9.90
   1  16   3  218.68    9.50
  -1  16  -3  213.38    9.90
  -1  16  -3  216.08    9.40
   2 -16   3  248.18   11.70
  -2 -16  -3  249.97   11.60
  -2 -16  -3  255.77   11.60
   2 -16   3  250.37   11.30
   2  16   3  246.58   11.50
   2  16   3  248.78   11.20
  -2  16  -3  243.78   11.60
  -2  16  -3  244.08   11.20
   3 -16   3  107.59    5.30
  -3 -16  -3  113.19    5.80
   3 -16   3  112.69    5.90
  -3  16  -3   96.09    5.50
  -3  16  -3  104.79    5.40
   3  16   3  101.59    5.70
   3  16   3   90.79    5.10
   3  16   3  105.09    5.50
  -4 -16  -3   56.09    4.00
   4 -16   3   53.89    4.00
  -4 -16  -3   54.99    3.50
  -4  16  -3   54.69    3.70
   4  16   3   52.29    3.70
  -4  16  -3   53.49    3.50
   4  16   3   56.99    4.00
   5 -16   3   37.10    3.50
  -5 -16  -3   32.40    3.40
  -5 -16  -3   32.30    2.70
   5  16   3   25.40    2.80
   5  16   3   31.30    3.50
  -5  16  -3   27.20    3.00
   6 -16   3    6.20    2.20
  -6 -16  -3    6.60    2.20
  -6  16  -3    1.90    1.70
   6  16   3    3.20    1.70
   6  16   3    1.80    2.10
   7 -17  -3   11.60    2.50
  -7 -17   3    8.00    2.90
   7  17  -3   13.70    2.70
  -7  17   3    8.30    2.60
   6 -17  -3   11.30    2.40
  -6 -17   3   10.80    2.60
   6  17  -3   12.40    2.40
  -6  17   3    7.70    2.50
  -5 -17   3    6.80    2.10
   5 -17  -3    7.60    1.90
   5  17  -3    6.10    1.70
  -5  17   3    7.70    2.10
  -4 -17   3   17.80    2.80
   4 -17  -3   14.70    2.30
  -4  17   3   18.60    2.00
   4  17  -3   21.90    2.00
  -4  17   3   19.50    2.30
   4  17  -3   20.60    2.50
  -3 -17   3   53.69    4.00
   3 -17  -3   52.29    3.30
   3  17  -3   41.80    3.20
  -3  17   3   41.10    2.90
   3  17  -3   39.70    2.90
  -3  17   3   43.60    3.10
  -2 -17   3  327.57   14.70
   2 -17  -3  321.07   14.40
  -2  17   3  312.77   14.10
   2  17  -3  309.47   14.20
   2  17  -3  306.77   14.30
  -2  17   3  294.67   14.10
   1 -17  -3  177.08    8.40
  -1 -17   3  181.48    8.70
   1  17  -3  168.68    8.20
  -1  17   3  168.38    8.00
  -1  17   3  166.48    8.20
   1  17  -3  163.88    8.20
   0 -17   3   79.59    4.30
   0 -17  -3   88.49    4.70
   0 -17  -3   82.89    4.00
   0 -17   3   77.19    4.60
   0  17   3   76.69    4.10
   0  17  -3   78.19    4.50
   0  17   3   80.99    4.40
  -1 -17  -3  167.78    8.40
   1 -17   3  175.18    8.50
  -1 -17  -3  188.08    8.10
   1  17   3  168.98    8.30
  -1  17  -3  165.08    8.30
   1  17   3  167.18    7.90
  -1  17  -3  168.28    7.80
  -2 -17  -3   93.99    5.20
   2 -17   3   99.79    5.40
  -2 -17  -3   98.79    5.20
   2 -17   3   91.29    4.90
   2  17   3   93.39    5.10
  -2  17  -3   93.99    5.10
   2  17   3   95.09    4.80
  -2  17  -3   94.09    4.80
   3 -17   3   11.70    1.50
  -3 -17  -3    9.00    1.80
   3 -17   3   11.90    1.90
   3  17   3   10.00    1.60
  -3  17  -3   13.30    1.80
   3  17   3   12.00    1.50
   3  17   3   10.40    1.70
  -4 -17  -3   40.70    2.90
  -4 -17  -3   41.20    3.50
   4 -17   3   40.10    3.50
  -4  17  -3   44.10    3.20
   4  17   3   46.20    3.40
  -4  17  -3   37.90    3.10
   5 -17   3   33.80    3.50
  -5 -17  -3   41.70    3.80
   5  17   3   35.40    3.40
  -5  17  -3   36.70    3.30
   6 -17   3   17.30    2.90
  -6 -17  -3   18.20    3.10
   6  17   3   14.90    2.50
  -6  17  -3   11.10    2.30
   7 -18  -3    1.80    1.90
  -7 -18   3    0.20    2.50
  -7  18   3    0.70    2.30
   7  18  -3    1.80    2.00
  -6 -18   3   24.30    3.70
   6 -18  -3   29.30    3.40
  -6  18   3   30.10    3.50
   6  18  -3   36.30    3.60
  -5 -18   3  120.99    7.50
   5 -18  -3  130.89    7.20
  -5  18   3  121.69    7.00
   5  18  -3  131.89    7.30
  -4 -18   3   40.30    3.90
   4 -18  -3   45.80    3.40
   4  18  -3   36.60    3.00
   4  18  -3   26.70    2.50
  -4  18   3   34.40    2.70
  -4  18   3   37.00    3.20
   3 -18  -3   82.99    4.90
  -3 -18   3   76.99    5.20
  -3  18   3   77.59    4.50
  -3  18   3   83.79    4.70
   3  18  -3   84.79    4.60
   3  18  -3   80.29    4.80
  -2 -18   3   37.30    3.30
   2 -18  -3   37.00    2.70
  -2  18   3   32.80    2.60
   2  18  -3   27.00    2.50
  -2  18   3   32.60    2.50
   2  18  -3   31.50    2.60
   1 -18  -3   82.39    5.00
  -1 -18   3   93.79    5.50
   1  18  -3   94.79    5.10
   1  18  -3   98.59    5.10
  -1  18   3   96.09    5.10
   0 -18   3   18.60    2.20
   0 -18  -3   22.10    2.10
   0 -18   3   18.70    1.90
   0  18   3   22.50    2.10
   0  18   3   23.20    1.70
   0  18  -3   22.50    2.20
   1 -18   3  213.58    9.80
   1 -18   3  202.98   10.10
  -1 -18  -3  202.98   10.00
  -1 -18  -3  199.18    9.60
   1  18   3  218.38    9.50
  -1  18  -3  213.58   10.00
   1  18   3  208.78    9.90
  -2 -18  -3  181.78    9.10
   2 -18   3  186.08    8.80
  -2 -18  -3  188.78    9.00
   2 -18   3  183.58    9.20
   2  18   3  184.48    8.90
  -2  18  -3  181.28    9.00
  -2  18  -3  181.68    8.60
   2  18   3  192.68    8.60
   3 -18   3  114.69    5.70
  -3 -18  -3  118.29    6.20
   3 -18   3  118.59    6.20
   3  18   3  102.49    5.90
   3  18   3  100.29    5.70
  -3  18  -3  108.79    5.90
   3  18   3  102.89    5.50
  -4 -18  -3   75.59    4.40
   4 -18   3   76.49    4.90
  -4 -18  -3   73.89    4.90
  -4  18  -3   75.99    4.60
  -4  18  -3   74.19    4.50
   4  18   3   72.19    4.70
   4  18   3   71.09    4.40
  -5 -18  -3   30.50    3.40
   5 -18   3   29.90    3.30
   5  18   3   24.60    2.90
  -5  18  -3   21.00    2.70
  -6 -18  -3    5.70    2.30
   6 -18   3    4.00    2.10
   6  18   3    1.80    1.80
  -6  18  -3    0.90    1.90
  -6 -19   3   26.10    3.80
   6 -19  -3   28.70    3.40
  -6  19   3   22.60    3.30
   6  19  -3   26.50    3.30
   5 -19  -3    2.20    1.60
  -5 -19   3    0.70    2.00
   5  19  -3    5.00    1.80
  -5  19   3    2.70    1.80
   4 -19  -3   17.40    2.40
  -4 -19   3   20.50    3.10
   4  19  -3   23.30    2.70
  -4  19   3   22.80    2.30
  -4  19   3   25.80    2.80
  -3 -19   3   48.20    4.20
   3 -19  -3   51.19    3.80
  -3  19   3   57.49    3.60
  -3  19   3   59.69    3.80
   3  19  -3   62.09    4.00
   3  19  -3   60.39    3.70
  -2 -19   3   71.29    5.20
  -2  19   3   95.89    4.90
   2  19  -3   95.49    5.10
   2  19  -3  100.69    5.30
  -2  19   3   95.99    5.10
  -1 -19   3   37.00    3.50
   1  19  -3   46.80    3.20
   1  19  -3   50.19    3.30
  -1  19   3   49.70    3.10
   0 -19   3  124.39    6.80
   0 -19   3  134.39    6.60
   0 -19  -3  132.29    6.80
   0  19  -3  123.89    6.60
   0  19   3  135.39    6.20
   0  19   3  127.39    6.60
  -1 -19  -3  104.09    5.60
   1 -19   3  103.89    5.30
   1 -19   3  106.59    5.60
  -1 -19  -3  105.79    5.20
   1  19   3   97.09    5.40
   1  19   3   95.99    4.90
  -1  19  -3   87.69    5.40
  -2 -19  -3   46.50    3.20
  -2 -19  -3   50.49    3.40
   2 -19   3   51.79    3.50
  -2  19  -3   48.00    3.40
   2  19   3   46.50    2.80
  -2  19  -3   42.50    2.80
   2  19   3   43.30    3.20
   3 -19   3    8.80    1.50
  -3 -19  -3    6.00    1.60
   3 -19   3    9.00    1.80
   3  19   3    6.80    1.20
   3  19   3    6.60    1.50
  -3  19  -3    5.90    1.50
  -3  19  -3    7.60    1.50
   3  19   3    7.10    1.70
   4 -19   3   30.90    3.30
  -4 -19  -3   30.70    3.40
   4  19   3   37.30    3.20
   4  19   3   38.50    3.00
  -4  19  -3   34.40    3.10
  -4  19  -3   34.40    3.00
  -5 -19  -3   23.70    3.30
   5 -19   3   26.90    3.30
   5  19   3   26.60    3.00
  -5  19  -3   22.70    2.80
  -6 -19  -3   18.50    3.20
   6 -19   3   15.00    2.80
  -6  19  -3   12.50    2.60
   6  19   3   11.40    2.50
  -6 -20   3   17.60    3.50
   6 -20  -3   14.20    2.60
  -6  20   3   16.90    2.90
   6  20  -3   15.00    2.80
   5 -20  -3   89.89    5.60
  -5 -20   3   77.29    5.90
   5  20  -3   78.99    5.40
  -5  20   3   84.59    5.50
  -4 -20   3   80.39    5.70
   4 -20  -3   84.79    5.30
   4  20  -3   83.49    5.20
  -4  20   3   86.79    4.70
   4  20  -3   71.49    4.50
  -4  20   3   81.29    5.00
  -3 -20   3   18.90    2.80
   3 -20  -3   18.80    2.50
   3  20  -3   15.20    2.20
   3  20  -3   14.40    1.90
  -3  20   3   14.90    1.90
  -3  20   3   18.30    2.10
   2 -20  -3   15.20    2.10
  -2 -20   3   16.90    2.50
   2  20  -3   14.90    2.10
  -2  20   3   14.60    1.70
  -2  20   3   12.90    1.80
   2  20  -3   19.50    2.20
   1 -20  -3    3.70    1.30
  -1 -20   3    2.90    1.60
   1  20  -3    3.70    1.30
  -1  20   3    4.30    1.40
   1  20  -3    5.10    1.30
  -1  20   3    3.80    1.00
   0 -20  -3   30.50    2.60
   0 -20   3   25.90    2.60
   0 -20   3   30.20    2.40
   0  20   3   20.40    2.20
   0  20   3   23.50    1.90
   0  20  -3   22.90    2.50
   1 -20   3  131.39    7.30
  -1 -20  -3  132.19    7.20
   1 -20   3  140.49    7.00
   1  20   3  148.69    7.30
  -1  20  -3  143.39    7.20
   1  20   3  144.89    6.70
  -2 -20  -3  126.49    6.70
   2 -20   3  139.19    7.00
  -2 -20  -3  130.29    6.90
  -2  20  -3  121.79    6.80
   2  20   3  128.49    6.70
   2  20   3  130.29    6.30
   3 -20   3   65.19    4.00
   3 -20   3   65.99    4.40
  -3 -20  -3   67.09    4.30
  -3 -20  -3   70.99    4.50
  -3  20  -3   65.99    4.00
   3  20   3   68.49    4.20
  -3  20  -3   70.79    4.40
   3  20   3   66.69    4.40
  -4 -20  -3   55.89    4.40
   4 -20   3   57.79    4.20
   4  20   3   53.79    3.80
  -4  20  -3   55.09    3.90
   4  20   3   58.69    4.20
  -4  20  -3   52.59    3.80
  -5 -20  -3   29.20    3.50
   5 -20   3   29.90    3.40
   5  20   3   24.10    3.00
  -5  20  -3   18.90    2.70
   6 -21  -3   13.40    2.60
  -6 -21   3   15.20    3.40
   6  21  -3    8.60    2.40
  -6  21   3    6.80    2.50
  -5 -21   3    0.20    2.20
   5 -21  -3    1.60    1.70
  -5  21   3    2.70    1.60
   5  21  -3    3.00    1.60
  -4 -21   3   34.40    4.10
   4 -21  -3   36.00    3.30
   4  21  -3   41.00    3.60
  -4  21   3   41.90    3.40
   4  21  -3   44.30    3.20
  -4  21   3   40.70    3.20
   3 -21  -3  116.39    7.00
  -3 -21   3  115.99    7.40
  -3  21   3  138.49    6.80
   3  21  -3  133.89    6.70
   3  21  -3  135.89    7.10
  -3  21   3  129.59    6.70
   2 -21  -3  132.59    7.30
  -2 -21   3  129.29    7.50
   2  21  -3  142.49    7.40
   2  21  -3  145.19    7.30
  -2  21   3  149.39    7.00
  -2  21   3  139.49    7.20
   1 -21  -3   64.89    4.00
  -1 -21   3   59.69    4.20
   1  21  -3   60.39    3.90
  -1  21   3   57.09    3.40
   1  21  -3   54.39    3.70
  -1  21   3   55.19    3.80
   0 -21   3  143.29    7.50
   0 -21   3  147.79    7.20
   0 -21  -3  147.49    7.50
   0  21   3  138.79    7.30
   0  21   3  139.49    6.80
   0  21  -3  133.59    7.30
   1 -21   3   83.59    4.60
   1 -21   3   82.39    4.90
  -1 -21  -3   82.89    4.90
   1  21   3   79.69    4.20
   1  21   3   80.59    4.70
  -1  21  -3   76.09    4.80
  -2 -21  -3   20.30    2.40
  -2 -21  -3   20.30    3.50
   2 -21   3   22.30    2.60
   2 -21   3   18.60    2.00
   2  21   3   24.20    2.40
  -2  21  -3   17.10    2.20
  -3 -21  -3    0.40    1.30
  -3 -21  -3    0.20    1.30
   3 -21   3    1.40    1.30
   3 -21   3    1.30    1.10
   3  21   3   -0.70    1.00
  -3  21  -3   -0.60    1.10
   4 -21   3   20.00    2.70
  -4 -21  -3   17.50    2.70
   4  21   3   24.00    2.80
  -4  21  -3   13.40    2.20
  -4  21  -3   24.70    2.70
   4  21   3   21.20    2.40
   5 -21   3   19.10    2.80
  -5 -21  -3   17.50    3.00
   5  21   3   21.90    3.00
  -5  21  -3   15.30    2.60
   6 -22  -3   21.80    3.10
  -6 -22   3   22.50    3.90
   6  22  -3   24.80    3.40
  -6  22   3   17.00    2.90
  -5 -22   3   70.99    5.90
   5 -22  -3   79.99    5.40
  -5  22   3   80.89    5.30
   5  22  -3   74.99    5.30
  -4 -22   3   40.90    4.30
   4 -22  -3   40.50    3.70
   4  22  -3   47.00    3.90
  -4  22   3   48.40    3.40
   4  22  -3   46.30    3.30
  -4  22   3   48.00    3.70
  -3 -22   3   70.69    5.00
   3 -22  -3   75.59    4.50
  -3  22   3   57.79    4.00
  -3  22   3   59.59    4.00
   3  22  -3   61.19    4.10
   3  22  -3   55.99    4.30
  -2 -22   3    7.50    2.20
   2 -22  -3    6.00    1.70
   2  22  -3    5.60    1.60
  -2  22   3    6.10    1.60
   2  22  -3    5.60    1.40
   1 -22  -3    5.00    1.40
  -1 -22   3    5.20    1.50
  -1 -22   3    6.70    1.90
   1  22  -3    4.30    1.50
  -1  22   3    6.50    1.60
  -1  22   3    5.60    1.20
   0 -22   3   51.19    3.80
   0 -22   3   56.99    3.60
   0 -22  -3   53.29    3.80
   0  22  -3   50.79    3.70
   0  22   3   49.99    3.00
   0  22   3   49.30    3.60
  -1 -22  -3  166.58    8.60
   1 -22   3  185.08    8.50
   1 -22   3  165.98    8.60
   1  22   3  158.88    8.50
  -1  22  -3  168.48    8.60
   2 -22   3   94.09    5.20
  -2 -22  -3   85.69    5.30
   2 -22   3   88.99    5.40
  -2  22  -3   96.79    5.50
   2  22   3   94.19    5.30
  -3 -22  -3   25.90    2.80
   3 -22   3   20.00    2.30
  -3 -22  -3   21.40    3.60
   3 -22   3   22.90    2.70
   3  22   3   26.80    2.60
  -3  22  -3   25.00    2.70
   4 -22   3   35.50    3.40
  -4 -22  -3   35.70    3.60
   4  22   3   32.50    3.00
   4  22   3   34.20    3.40
  -4  22  -3   36.20    3.20
   5 -22   3   12.10    2.60
  -5 -22  -3   11.40    2.70
   5  22   3    9.70    2.40
  -5 -23   3   -0.10    2.30
   5 -23  -3    2.60    1.80
   5  23  -3    1.80    1.70
  -5  23   3    1.80    1.80
  -4 -23   3    8.20    2.60
   4 -23  -3    6.70    1.90
  -4  23   3   10.30    1.90
   4  23  -3    9.80    1.80
   4  23  -3   11.70    2.30
  -4  23   3    9.40    2.00
  -3 -23   3   33.30    3.80
   3 -23  -3   37.20    3.40
  -3  23   3   37.10    3.00
   3  23  -3   37.50    3.10
   3  23  -3   35.20    3.40
  -3  23   3   39.30    3.10
  -2 -23   3  193.98   10.20
   2 -23  -3  199.78   10.00
  -2  23   3  192.38    9.70
   2  23  -3  193.88    9.90
   2  23  -3  205.48    9.80
  -1 -23   3  213.58   10.10
   1 -23  -3  206.88   10.10
  -1 -23   3  207.38   10.30
  -1  23   3  190.08    9.90
  -1  23   3  195.48    9.40
   1  23  -3  197.48    9.90
   0 -23   3  162.18    8.30
   0 -23  -3  163.98    8.30
   0 -23   3  166.08    8.10
   0  23   3  147.99    8.10
   0  23  -3  147.59    8.10
   1 -23   3   68.69    4.20
   1 -23   3   67.39    4.40
  -1 -23  -3   64.29    4.30
   1  23   3   68.99    4.30
  -1  23  -3   59.09    4.30
  -2 -23  -3    0.50    1.20
   2 -23   3    0.40    1.10
   2 -23   3    2.10    1.40
   2  23   3    0.40    1.20
  -2  23  -3    0.60    1.30
  -3 -23  -3    5.30    1.70
   3 -23   3    5.90    1.70
  -3  23  -3    3.90    1.60
   3  23   3    5.80    1.60
  -4 -23  -3   44.60    3.80
   4 -23   3   34.50    3.60
   4  23   3   40.50    3.70
  -4  23  -3   41.60    3.50
   4  23   3   36.00    3.20
  -5 -23  -3   29.60    3.80
   5 -23   3   37.10    3.90
   5  23   3   32.70    3.70
   5 -24  -3   48.00    4.20
  -5 -24   3   41.90    4.80
  -5  24   3   43.70    4.00
   5  24  -3   41.30    4.10
   4 -24  -3   40.70    3.80
  -4 -24   3   39.60    4.40
  -4  24   3   46.00    3.60
   4  24  -3   42.10    3.30
  -4  24   3   41.40    3.30
   4  24  -3   39.70    3.80
   3 -24  -3   66.79    4.60
  -3 -24   3   53.99    4.60
   3  24  -3   58.89    4.40
  -3  24   3   59.29    4.00
   3  24  -3   59.29    4.10
  -3  24   3   62.69    4.20
   2 -24  -3   16.90    2.40
  -2 -24   3   11.20    2.40
  -2  24   3   10.20    1.60
   2  24  -3   12.40    2.10
  -2  24   3    9.70    1.80
   2  24  -3   11.40    2.00
  -1 -24   3   21.00    2.40
  -1 -24   3   19.80    2.70
   1 -24  -3   16.10    2.20
  -1  24   3   14.80    2.10
   1  24  -3   14.60    2.10
   0 -24  -3   17.40    2.40
   0 -24   3   16.00    2.10
   0 -24   3   14.30    2.20
   0  24   3   16.30    2.30
   0  24  -3   12.90    2.00
   1 -24   3  107.19    5.70
  -1 -24  -3   99.09    5.90
   1 -24   3   93.79    5.80
  -1  24  -3  106.79    6.00
   1  24   3   95.49    5.80
   2 -24   3   48.60    3.70
  -2 -24  -3   47.80    3.80
   2 -24   3   48.30    3.50
  -2  24  -3   45.50    3.70
   2  24   3   46.40    3.60
  -3 -24  -3   24.30    2.90
   3 -24   3   24.10    2.90
  -3  24  -3   18.30    2.60
   3  24   3   18.00    2.40
  -4 -24  -3   34.40    3.50
   4 -24   3   35.20    3.60
  -4  24  -3   31.20    3.20
   4  24   3   27.80    3.00
   5 -25  -3    1.00    1.80
  -5 -25   3    0.20    2.50
  -5  25   3    4.50    2.00
   5  25  -3   -0.10    1.60
   4 -25  -3    7.80    2.30
  -4 -25   3    9.30    2.80
   4  25  -3    9.20    1.80
  -4  25   3    7.60    1.80
   4  25  -3    9.20    2.20
  -4  25   3    7.60    2.00
  -3 -25   3   55.09    4.70
   3 -25  -3   59.59    4.40
   3  25  -3   55.19    4.30
  -3  25   3   53.19    3.70
  -3  25   3   57.99    4.10
   3  25  -3   57.49    4.10
  -2 -25   3  109.99    6.60
   2 -25  -3   98.59    6.10
   2  25  -3   98.59    6.10
  -2  25   3  106.89    6.00
   2  25  -3   98.99    5.90
   1 -25  -3   77.49    4.90
  -1 -25   3   75.59    4.70
  -1 -25   3   70.89    4.90
   1  25  -3   63.79    4.50
  -1  25   3   68.69    4.60
   0 -25   3   77.79    4.90
   0 -25  -3   75.69    4.80
   0 -25   3   74.69    4.60
   0  25  -3   66.49    4.70
   0  25   3   66.29    4.50
   1 -25   3   37.10    3.20
   1 -25   3   32.70    3.00
  -1 -25  -3   34.20    3.30
   1  25   3   36.10    3.20
  -1  25  -3   32.80    3.30
   2 -25   3    5.00    1.70
  -2 -25  -3    2.70    1.60
   2 -25   3    3.00    1.40
  -2  25  -3    0.80    1.30
   2  25   3    2.50    1.50
  -3 -25  -3    1.50    1.60
   3 -25   3    2.60    1.50
  -3  25  -3    2.00    1.70
   3  25   3    2.40    1.50
   4 -25   3   25.00    3.10
  -4 -25  -3   25.90    3.30
  -4  25  -3   27.70    3.10
   4  25   3   22.90    2.80
   5 -26  -3   17.70    3.10
  -5 -26   3   16.30    3.60
   5  26  -3   16.50    2.90
  -5  26   3   21.50    2.90
  -4 -26   3   36.40    4.40
   4 -26  -3   37.90    3.70
   4  26  -3   37.90    3.90
  -4  26   3   37.10    3.40
  -4  26   3   42.20    3.50
   4  26  -3   36.60    3.40
   3 -26  -3   19.10    2.80
  -3 -26   3   14.70    3.00
  -3  26   3   19.60    2.60
   3  26  -3   15.80    2.40
   3  26  -3   17.60    2.70
   2 -26  -3   15.30    2.40
  -2 -26   3   13.00    2.60
  -2 -26   3   15.30    2.40
   2  26  -3   13.60    2.40
  -2  26   3   12.50    2.10
   2  26  -3   14.70    2.30
   1 -26  -3    4.10    1.70
  -1 -26   3    2.90    1.80
  -1 -26   3    4.60    1.60
  -1  26   3    2.30    1.50
   1  26  -3    1.50    1.40
   0 -26  -3    6.70    1.70
   0 -26   3    9.30    1.90
   0 -26   3    5.00    1.80
   0  26  -3    5.00    1.80
   0  26   3    7.80    1.90
   1 -26   3   73.09    4.60
   1 -26   3   66.39    4.70
  -1 -26  -3   65.39    4.60
  -1  26  -3   67.39    4.70
   1  26   3   69.49    4.50
   2 -26   3   37.50    3.40
   2 -26   3   33.40    3.10
  -2 -26  -3   34.60    3.40
   2  26   3   38.80    3.40
  -2  26  -3   39.90    3.40
   3 -26   3   22.30    2.80
  -3 -26  -3   20.00    2.80
   3  26   3   20.20    2.70
  -3  26  -3   19.60    2.80
   4 -26   3   17.00    3.50
  -4 -26  -3   12.60    2.50
  -4  26  -3   12.70    2.40
   4  26   3   13.10    2.30
  -4 -27   3    6.90    2.80
   4 -27  -3    5.90    2.10
   4  27  -3    7.10    2.00
  -4  27   3    5.40    1.80
   4  27  -3    7.50    2.20
  -3 -27   3   19.70    3.30
   3 -27  -3   19.30    2.90
   3  27  -3   24.10    3.10
  -3  27   3   18.90    2.60
   3  27  -3   20.40    2.70
   2 -27  -3   42.20    3.70
  -2 -27   3   51.09    4.00
  -2 -27   3   48.70    4.40
  -2  27   3   47.00    3.80
   2  27  -3   42.90    3.80
  -1 -27   3   67.09    5.00
   1 -27  -3   67.09    4.90
  -1 -27   3   69.29    4.80
  -1  27   3   80.69    5.00
   1  27  -3   74.19    4.90
   0 -27  -3   72.79    4.90
   0 -27   3   70.39    4.70
   0 -27   3   66.09    4.80
   0  27   3   68.69    4.70
   0  27  -3   66.59    4.60
   1 -27   3   18.90    2.60
   1 -27   3   19.90    2.60
  -1 -27  -3   23.90    3.00
  -1  27  -3   16.80    2.60
   1  27   3   20.20    2.70
   2 -27   3    1.80    1.50
   2 -27   3    3.30    1.60
  -2 -27  -3    3.90    1.80
   2  27   3   -0.20    1.40
  -2  27  -3    0.90    1.40
  -3 -27  -3    6.40    2.10
   3 -27   3    7.70    2.00
   3  27   3    6.20    1.90
  -3  27  -3    8.10    2.10
   4 -28  -3   25.60    3.50
  -4 -28   3   21.40    3.70
   4  28  -3   24.20    2.90
   4  28  -3   25.10    3.40
  -4  28   3   29.90    3.20
  -3 -28   3   11.70    2.90
   3 -28  -3   13.00    2.60
  -3  28   3   10.40    2.20
   3  28  -3   12.60    2.30
   3  28  -3   10.30    2.30
   2 -28  -3   13.10    2.40
  -2 -28   3   13.30    2.70
  -2 -28   3   12.10    2.40
  -2  28   3   13.50    2.30
   2  28  -3   10.50    2.20
  -1 -28   3    2.40    1.50
   1 -28  -3    3.50    1.70
  -1 -28   3    3.30    1.90
   1  28  -3    1.70    1.60
  -1  28   3    2.10    1.50
   0 -28  -3   24.20    3.10
   0 -28   3   25.60    2.90
   0 -28   3   21.90    2.80
   0  28  -3   27.30    3.00
   0  28   3   27.60    3.10
  -1 -28  -3   46.40    4.20
   1 -28   3   52.39    4.00
   1 -28   3   48.60    4.00
  -1  28  -3   49.10    4.10
   1  28   3   51.69    4.10
   2 -28   3   24.60    2.90
  -2 -28  -3   25.80    3.20
   2 -28   3   23.90    3.00
   2  28   3   26.40    3.00
  -2  28  -3   22.90    2.90
  -3 -28  -3   12.20    2.50
   3  28   3   12.70    2.40
  -3  28  -3   14.40    2.50
  -3 -29   3   -0.70    2.30
   3 -29  -3    0.60    1.80
   3  29  -3    1.10    1.60
  -3  29   3    1.10    1.60
   3  29  -3    2.50    1.90
  -2 -29   3   23.30    3.30
  -2 -29   3   24.60    3.20
   2 -29  -3   18.90    2.80
  -2  29   3   23.10    2.90
   2  29  -3   26.20    3.10
  -1 -29   3   14.50    2.60
   1 -29  -3   10.40    2.20
  -1 -29   3   12.40    2.40
  -1  29   3   15.10    2.50
   1  29  -3   13.60    2.40
   0 -29   3   12.30    2.30
   0 -29  -3    8.70    2.10
   0 -29   3   11.30    2.20
   0  29   3   13.20    2.30
   0  29  -3   12.60    2.40
  -1 -29  -3   18.30    2.80
   1 -29   3   18.90    2.70
   1 -29   3   22.70    2.90
   1  29   3   21.90    2.90
  -1  29  -3   16.50    2.60
   2 -29   3   -0.60    1.40
  -2 -29  -3   -0.60    1.50
   2  29   3    0.20    1.50
  -2  29  -3    0.50    1.60
  -3 -29  -3    3.80    2.00
  -3  29  -3    5.40    1.90
   3  29   3    5.10    1.90
  -3 -30   3   13.50    3.10
  -3 -30   3   12.90    2.70
   3 -30  -3    8.50    2.40
   3  30  -3   14.50    2.80
   3  30  -3   10.10    2.30
  -3  30   3   12.10    2.40
  -2 -30   3    0.60    1.70
   2 -30  -3    2.10    1.80
  -2 -30   3    2.70    2.10
   2  30  -3    0.30    1.60
  -2  30   3    1.00    1.50
   1 -30  -3   13.60    2.60
  -1 -30   3   13.00    2.40
  -1 -30   3   17.70    2.80
   1  30  -3   13.10    2.40
  -1  30   3   18.20    2.80
   0 -30  -3   15.20    2.80
   0 -30   3   16.30    2.60
   0 -30   3   17.20    2.70
   0  30  -3   14.60    2.60
   0  30   3   14.00    2.40
  -1 -30  -3   14.40    2.50
   1 -30   3   17.30    2.80
   1 -30   3   17.70    2.70
  -1  30  -3   12.30    2.30
   1  30   3   13.30    2.40
  -2 -30  -3    5.60    2.00
   2 -30   3    5.80    2.80
  -2  30  -3   10.30    2.30
   2  30   3   11.10    2.20
  -2 -31   3   19.30    3.20
  -2 -31   3   20.60    3.10
   2 -31  -3   18.80    3.00
  -2  31   3   19.30    2.70
   2  31  -3   18.60    2.90
  -1 -31   3   31.40    3.60
   1 -31  -3   32.40    3.80
  -1 -31   3   33.20    3.70
   1  31  -3   31.90    3.70
  -1  31   3   34.90    3.70
   0 -31  -3   19.90    3.00
   0 -31   3   22.90    3.00
   0 -31   3   21.60    3.00
   0  31   3   20.50    3.00
   0  31  -3   20.30    3.00
  -1 -31  -3    4.10    2.10
   1 -31   3    6.90    2.10
   1  31   3    5.00    2.00
  -1  31  -3    6.00    2.10
   0  32  -3    9.20    2.30
   8   0  -4    2.50    1.80
  -8   0   4   -1.40    1.90
  -8   0   4    2.50    2.10
  -7   0   4  197.38   10.10
   7   0  -4  192.98   10.20
  -7   0   4  198.28   10.30
   6   0  -4   57.69    4.10
  -6   0   4   57.59    4.00
  -6   0   4   61.09    4.20
  -5   0   4   60.39    3.80
   5   0  -4   53.89    3.70
  -5   0   4   55.09    3.70
  -4   0   4   75.89    4.30
  -4   0   4   77.69    4.30
   4   0  -4   73.09    3.60
   4   0  -4   79.09    4.30
   3   0  -4   25.10    1.90
  -3   0   4   26.30    1.90
   3   0  -4   24.20    1.50
  -3   0   4   20.30    1.80
   2   0  -4  101.09    5.00
   2   0  -4  101.89    4.90
  -2   0   4  105.89    5.00
  -1   0   4 3680.33  156.58
   1   0  -4 3670.93  156.38
   1   0  -4 3636.04  156.38
   0   0   4 5729.23  246.08
   0   0  -4 5840.32  244.28
   0   0  -4 5887.01  245.88
   0   0   4 5568.14  245.28
  -1   0  -4   14.80    1.40
   1   0   4   15.30    1.30
   1   0   4   14.80    1.40
   2   0   4  125.39    5.90
  -2   0  -4  113.09    5.80
   2   0   4  130.29    6.10
   2   0   4  121.79    5.30
  -3   0  -4  217.98    9.90
  -3   0  -4  201.28    9.60
   3   0   4  223.68   10.10
   3   0   4  202.58    9.20
   4   0   4    4.80    1.40
  -4   0  -4    5.30    1.10
  -4   0  -4    7.20    1.30
  -5   0  -4   11.80    1.80
   5   0   4   12.10    2.10
  -6   0  -4   64.09    4.30
   6   0   4   62.79    4.90
  -7   0  -4   14.10    2.40
   7   0   4   14.90    2.90
   8  -1  -4    5.10    2.10
  -8  -1   4    6.50    2.30
  -8  -1   4    5.90    2.30
  -8   1   4    6.90    2.20
  -8   1   4    7.30    2.40
   8   1  -4    7.40    2.20
   7  -1  -4    4.60    1.80
  -7  -1   4    4.40    2.00
  -7  -1   4    2.70    1.70
  -7   1   4    4.40    1.80
  -7   1   4    3.30    2.00
   7   1  -4    4.90    1.70
  -6  -1   4   24.00    2.70
   6  -1  -4   21.00    2.50
  -6  -1   4   19.70    2.60
   6   1  -4   23.20    2.70
  -6   1   4   26.40    2.70
  -6   1   4   27.70    2.90
  -5  -1   4   74.99    4.50
   5  -1  -4   73.19    4.50
  -5  -1   4   76.89    4.40
   5   1  -4   65.59    4.40
  -5   1   4   73.99    4.40
  -5   1   4   74.59    4.40
   4  -1  -4  555.94   24.40
  -4  -1   4  566.44   24.30
   4  -1  -4  545.65   23.70
  -4  -1   4  557.94   24.40
  -4   1   4  554.44   24.30
   4   1  -4  541.95   24.30
  -4   1   4  562.04   24.30
   4   1  -4  536.55   23.70
   3  -1  -4  615.14   28.00
   3  -1  -4  631.44   27.70
  -3  -1   4  637.54   27.90
  -3  -1   4  621.54   28.00
  -3   1   4  647.14   27.90
   3   1  -4  679.33   28.10
   3   1  -4  674.43   27.70
  -2  -1   4 1231.08   52.69
  -2  -1   4 1203.18   52.79
   2  -1  -4 1232.08   52.69
   2  -1  -4 1222.68   52.79
   2   1  -4 1249.77   52.79
   2   1  -4 1231.28   52.69
  -2   1   4 1256.47   52.69
  -2   1   4 1250.07   52.79
   1  -1  -4  996.30   42.70
   1  -1  -4  978.40   42.50
  -1  -1   4  979.00   42.60
  -1  -1   4  993.00   42.70
   1   1  -4  999.40   42.50
  -1   1   4 1024.50   42.60
  -1   1   4 1006.90   42.60
   1   1  -4  999.90   42.70
   0  -1   4  194.98    8.60
   0  -1   4  204.28    8.70
   0  -1  -4  200.28    8.40
   0  -1  -4  197.68    8.70
   0   1  -4  176.98    8.30
   0   1   4  198.18    8.60
   0   1  -4  173.88    8.70
   1  -1   4  167.68    7.70
  -1  -1  -4  163.98    7.80
   1  -1   4  168.28    7.90
  -1  -1  -4  172.28    7.40
   1   1   4  173.88    7.80
  -1   1  -4  177.08    7.90
   1   1   4  169.08    7.90
  -2  -1  -4  263.27   11.40
   2  -1   4  248.08   11.60
   2  -1   4  238.48   11.40
   2   1   4  262.07   10.90
  -2   1  -4  252.57   11.40
   2   1   4  254.87   11.60
   2   1   4  254.97   11.40
   3  -1   4  233.68   10.90
  -3  -1  -4  230.38   10.50
  -3  -1  -4  236.78   10.70
   3  -1   4  233.88   10.10
   3   1   4  229.68   10.10
  -3   1  -4  223.58   10.50
   3   1   4  225.78   10.80
   3   1   4  226.98   10.60
  -3   1  -4  232.28   10.70
  -4  -1  -4  209.78    9.90
   4  -1   4  215.98   10.50
  -4  -1  -4  211.88   10.20
  -4   1  -4  221.78    9.90
  -4   1  -4  216.98   10.30
   4   1   4  219.88   10.60
  -5  -1  -4  165.18    8.40
   5  -1   4  174.18    8.90
  -5   1  -4  157.78    8.40
   5   1   4  171.28    8.80
  -6  -1  -4   62.09    4.40
   6  -1   4   63.39    4.90
   6   1   4   59.99    4.70
  -6   1  -4   62.59    4.40
  -7  -1  -4   12.00    2.40
   7  -1   4   12.50    2.70
  -7   1  -4    9.60    2.30
   7   1   4   16.10    3.10
  -8  -2   4    7.30    2.40
  -8  -2   4    7.80    2.50
   8  -2  -4    8.10    2.30
  -8   2   4   13.20    2.70
   8   2  -4   13.70    2.70
  -8   2   4   10.20    2.70
  -7  -2   4  146.09    8.40
  -7  -2   4  154.98    8.10
   7  -2  -4  149.09    8.10
  -7   2   4  150.58    8.30
   7   2  -4  149.99    8.20
  -7   2   4  146.79    8.20
   6  -2  -4  105.89    6.30
  -6  -2   4  101.89    6.10
  -6  -2   4  105.49    6.40
  -6   2   4  119.89    6.30
  -6   2   4  125.59    6.40
   6   2  -4  118.09    6.40
   5  -2  -4  143.19    7.50
  -5  -2   4  146.49    7.60
  -5  -2   4  143.49    7.40
  -5   2   4  149.19    7.50
   5   2  -4  157.18    7.70
  -5   2   4  145.89    7.50
   4  -2  -4   62.59    3.40
   4  -2  -4   69.19    4.00
  -4  -2   4   68.19    4.10
  -4  -2   4   72.29    4.00
  -4   2   4   77.69    4.10
   4   2  -4   71.29    3.40
   4   2  -4   75.69    4.10
   3  -2  -4  129.59    6.30
  -3  -2   4  134.39    6.20
  -3  -2   4  130.19    6.30
   3  -2  -4  133.19    6.00
  -3   2   4  123.39    6.20
   3   2  -4  125.29    5.90
   3   2  -4  127.39    6.30
  -3   2   4  127.59    6.10
  -2  -2   4  188.18    8.80
   2  -2  -4  177.08    8.80
   2  -2  -4  175.68    8.80
  -2  -2   4  184.48    8.90
   2   2  -4  213.88    8.90
   2   2  -4  210.98    8.80
  -2   2   4  205.28    8.80
  -2   2   4  211.08    8.90
  -1  -2   4 2725.03  116.19
  -1  -2   4 2664.33  115.39
   1  -2  -4 2711.03  115.89
   1  -2  -4 2619.04  115.79
  -1   2   4 2827.52  115.79
  -1   2   4 2790.92  115.99
   1   2  -4 2729.83  116.19
   1   2  -4 2704.93  116.09
   0  -2   4 3102.59  131.59
   0  -2  -4 3044.50  131.39
   0  -2   4 2986.10  131.49
   0  -2  -4 3007.30  131.09
   0   2   4 3150.78  131.99
   0   2   4 3106.59  131.69
   0   2  -4 3181.88  131.69
   0   2  -4 3106.59  131.09
   1  -2   4  350.96   16.60
   1  -2   4  358.36   16.40
  -1  -2  -4  370.76   16.60
  -1  -2  -4  367.36   16.10
   1   2   4  403.66   16.60
   1   2   4  390.56   16.50
  -1   2  -4  395.26   16.60
   2  -2   4  512.25   22.00
  -2  -2  -4  491.35   21.80
   2  -2   4  483.15   21.80
   2   2   4  518.25   22.00
  -2   2  -4  500.55   21.80
   2   2   4  498.25   21.40
   2   2   4  496.05   21.80
   3  -2   4  267.77   12.20
   3  -2   4  253.97   11.40
  -3  -2  -4  262.87   11.90
   3   2   4  264.57   12.00
   3   2   4  256.27   11.50
  -3   2  -4  267.27   11.90
   3   2   4  262.87   12.20
  -3   2  -4  267.77   12.10
   4  -2   4    6.10    1.50
  -4  -2  -4    5.70    1.10
  -4  -2  -4    5.90    1.20
   4   2   4   10.50    1.80
   4   2   4   11.10    1.80
  -4   2  -4    8.30    1.20
  -4   2  -4    7.90    1.40
   5  -2   4    5.60    1.70
  -5  -2  -4    6.10    1.60
  -5   2  -4    7.10    1.50
   5   2   4    6.70    1.70
  -6  -2  -4   49.99    3.90
   6  -2   4   58.69    4.60
  -6   2  -4   53.59    4.00
   6   2   4   54.59    4.50
  -7  -2  -4   25.20    3.10
   7  -2   4   19.60    3.20
  -7   2  -4   23.50    3.00
   7   2   4   21.10    3.30
  -8  -3   4    1.50    2.00
  -8  -3   4    3.30    2.10
   8  -3  -4    4.00    2.10
  -8   3   4    2.80    2.00
  -8   3   4   -0.40    2.10
   8   3  -4    3.60    1.80
   7  -3  -4    5.20    1.70
  -7  -3   4    4.60    2.00
  -7  -3   4    5.10    1.90
   7   3  -4    4.60    1.80
  -7   3   4    2.30    1.70
  -7   3   4    6.20    1.90
  -6  -3   4    1.50    1.40
  -6  -3   4    2.10    1.60
   6  -3  -4    1.00    1.40
   6   3  -4    2.90    1.40
  -6   3   4    3.10    1.40
  -6   3   4    2.20    1.50
  -5  -3   4  299.27   13.50
   5  -3  -4  278.87   13.30
  -5  -3   4  286.67   13.10
  -5   3   4  287.57   13.30
   5   3  -4  281.67   13.30
  -5   3   4  271.97   13.10
   4  -3  -4  730.53   31.50
   4  -3  -4  686.43   32.10
  -4  -3   4  763.82   32.00
  -4  -3   4  744.93   32.20
  -4   3   4  745.33   32.00
  -4   3   4  741.03   32.10
   4   3  -4  731.83   32.10
   4   3  -4  741.13   31.50
  -3  -3   4  566.04   25.20
   3  -3  -4  558.54   25.40
  -3  -3   4  572.74   25.50
   3  -3  -4  567.14   25.10
   3   3  -4  593.34   25.50
  -3   3   4  605.14   25.40
   3   3  -4  601.74   25.10
  -3   3   4  596.74   25.30
  -2  -3   4 1462.55   62.19
   2  -3  -4 1496.55   62.29
  -2  -3   4 1438.46   62.49
   2  -3  -4 1468.65   62.39
   2   3  -4 1417.76   62.19
  -2   3   4 1452.05   62.39
  -2   3   4 1454.35   62.19
   2   3  -4 1498.95   62.39
  -1  -3   4  788.62   33.30
   1  -3  -4  758.72   33.10
   1  -3  -4  778.82   33.20
  -1  -3   4  787.22   33.10
  -1   3   4  770.92   33.00
   1   3  -4  765.72   33.10
   1   3  -4  760.62   33.20
   0  -3  -4  325.27   14.20
   0  -3   4  337.07   14.30
   0  -3  -4  320.57   13.90
   0  -3   4  318.17   14.00
   0   3   4  313.67   14.00
   0   3  -4  313.57   13.80
   0   3  -4  318.57   14.20
   0   3   4  328.37   14.10
  -1  -3  -4  108.59    5.20
   1  -3   4   93.89    5.10
   1  -3   4  102.49    5.00
  -1  -3  -4  107.99    4.70
   1   3   4  108.39    5.10
   1   3   4  109.29    5.10
  -1   3  -4  105.39    5.10
  -2  -3  -4  427.16   19.30
   2  -3   4  423.26   19.50
   2  -3   4  408.36   19.30
   2   3   4  460.85   19.00
   2   3   4  455.25   19.50
   2   3   4  441.66   19.30
  -2   3  -4  470.15   19.40
   3  -3   4  530.35   23.20
   3  -3   4  536.05   24.00
  -3  -3  -4  545.05   23.60
  -3   3  -4  548.95   23.60
   3   3   4  554.44   23.30
   3   3   4  531.05   23.70
   3   3   4  547.75   24.00
  -3   3  -4  533.15   23.80
   4  -3   4  118.39    6.20
  -4  -3  -4  110.39    5.50
  -4  -3  -4  111.59    5.80
   4   3   4  109.39    5.40
   4   3   4  109.79    6.10
  -4   3  -4  110.29    5.50
  -4   3  -4  108.69    5.80
  -5  -3  -4  185.48    9.30
   5  -3   4  186.98    9.60
   5   3   4  189.28    9.60
  -5   3  -4  190.28    9.40
  -6  -3  -4   67.69    4.60
   6  -3   4   66.79    5.10
   6   3   4   71.69    5.20
  -6   3  -4   72.59    4.80
  -7  -3  -4   11.90    2.40
   7  -3   4    7.70    2.50
  -7   3  -4    6.50    2.10
   7   3   4    8.00    2.30
  -8  -4   4   13.20    2.70
  -8  -4   4   12.20    2.90
   8  -4  -4   16.50    2.90
  -8   4   4   19.10    3.10
   8   4  -4   18.80    3.00
  -8   4   4   19.70    3.00
  -7  -4   4  104.69    6.10
   7  -4  -4  105.29    6.30
  -7  -4   4  101.79    6.60
   7   4  -4  102.49    6.40
  -7   4   4  102.69    6.40
  -7   4   4  101.39    6.20
  -6  -4   4  124.99    7.30
  -6  -4   4  126.09    6.90
   6  -4  -4  124.09    7.00
  -6   4   4  137.69    7.10
  -6   4   4  133.79    7.20
   6   4  -4  136.69    7.20
   5  -4  -4  316.47   14.70
  -5  -4   4  307.17   14.80
  -5  -4   4  319.37   14.40
   5   4  -4  317.17   14.70
  -5   4   4  322.57   14.70
  -4  -4   4   71.99    4.00
   4  -4  -4   75.09    3.60
  -4  -4   4   76.19    4.30
   4  -4  -4   79.59    4.20
   4   4  -4   73.69    4.20
  -4   4   4   73.99    4.30
   4   4  -4   67.19    3.50
  -4   4   4   68.79    4.00
   3  -4  -4   74.09    4.00
   3  -4  -4   72.99    3.70
  -3  -4   4   73.79    3.80
  -3  -4   4   79.19    4.20
  -3   4   4   74.79    3.70
   3   4  -4   68.19    3.90
   3   4  -4   71.09    3.60
  -3   4   4   73.59    4.00
  -2  -4   4    4.10    0.70
   2  -4  -4    3.60    0.80
  -2  -4   4    5.00    1.10
   2  -4  -4    2.80    0.80
  -2   4   4    4.10    0.90
   2   4  -4    5.80    0.80
  -2   4   4    6.10    0.80
   2   4  -4    5.10    0.90
  -1  -4   4  975.40   43.30
   1  -4  -4 1010.20   43.20
   1  -4  -4  964.60   43.10
  -1  -4   4 1005.70   43.00
   1   4  -4 1017.00   43.00
  -1   4   4 1030.70   42.90
  -1   4   4 1033.50   43.20
   1   4  -4 1031.00   43.20
   0  -4  -4 1354.06   57.69
   0  -4   4 1397.06   57.79
   0  -4  -4 1348.86   57.99
   0  -4   4 1359.86   57.99
   0   4  -4 1376.36   57.99
   0   4  -4 1345.27   57.59
   0   4   4 1345.47   57.89
   0   4   4 1328.07   57.69
   1  -4   4 1014.70   43.50
  -1  -4  -4 1002.60   43.60
  -1  -4  -4 1015.90   43.30
   1  -4   4 1019.10   43.70
  -1   4  -4 1012.60   43.60
   1   4   4 1032.10   43.60
   2  -4   4  743.73   32.20
   2  -4   4  741.73   32.40
  -2  -4  -4  751.82   32.20
  -2   4  -4  746.23   32.20
   2   4   4  734.13   31.90
   2   4   4  741.23   32.20
   2   4   4  758.02   32.30
  -3  -4  -4  330.77   14.50
   3  -4   4  310.07   14.00
   3  -4   4  337.57   14.90
  -3   4  -4  324.27   14.50
   3   4   4  333.27   14.80
   3   4   4  332.47   14.60
  -3   4  -4  319.27   14.60
   3   4   4  308.37   14.20
  -4  -4  -4   17.20    1.90
   4  -4   4   15.80    2.20
  -4  -4  -4   14.40    1.60
  -4   4  -4   22.50    2.20
   4   4   4   20.30    2.20
   4   4   4   20.80    1.70
  -4   4  -4   18.00    1.70
   5  -4   4    5.80    1.70
  -5  -4  -4    5.90    1.50
  -5   4  -4    6.90    1.60
   5   4   4    5.20    1.70
   6  -4   4   34.40    3.80
  -6  -4  -4   35.60    3.30
  -6   4  -4   37.20    3.30
   6   4   4   31.20    3.50
  -7  -4  -4   20.60    2.90
   7  -4   4   18.10    3.10
  -7   4  -4   20.70    2.80
   7   4   4   17.70    3.10
  -8  -5   4   12.10    2.90
  -8  -5   4   12.70    2.60
   8  -5  -4   14.20    2.60
   8   5  -4   14.60    2.80
  -8   5   4   16.40    3.10
   7  -5  -4   12.50    2.30
  -7  -5   4    7.30    2.30
  -7  -5   4    8.30    2.00
   7   5  -4    8.20    2.20
  -7   5   4    9.10    2.40
  -7   5   4    8.70    2.00
  -6  -5   4   10.30    1.90
   6  -5  -4   13.80    2.20
  -6  -5   4   14.10    2.40
  -6   5   4   11.50    2.20
   6   5  -4    9.40    2.00
  -5  -5   4   54.99    3.80
   5  -5  -4   51.89    3.50
  -5  -5   4   51.09    3.30
   5   5  -4   39.50    3.30
  -5   5   4   48.00    3.60
  -5   5   4   47.20    3.30
  -4  -5   4  441.36   19.80
   4  -5  -4  440.66   19.60
  -4  -5   4  444.26   19.40
   4  -5  -4  441.86   19.10
   4   5  -4  425.36   19.00
  -4   5   4  448.46   19.40
   4   5  -4  428.86   19.60
  -4   5   4  442.96   19.60
   3  -5  -4  717.23   31.40
  -3  -5   4  717.03   31.60
  -3  -5   4  727.93   31.20
   3  -5  -4  727.83   31.10
  -3   5   4  732.53   31.40
  -3   5   4  711.23   31.10
   3   5  -4  728.03   31.10
   3   5  -4  728.13   31.40
  -2  -5   4  808.12   33.30
  -2  -5   4  829.92   32.90
   2  -5  -4  774.52   33.10
   2  -5  -4  795.72   33.10
   2   5  -4  752.32   33.10
  -2   5   4  717.73   33.10
   2   5  -4  740.13   33.00
  -2   5   4  726.53   32.80
  -1  -5   4  504.15   21.40
   1  -5  -4  496.25   21.60
   1  -5  -4  506.95   21.70
  -1  -5   4  511.55   21.80
   1   5  -4  490.15   21.60
   1   5  -4  491.65   21.50
  -1   5   4  491.25   21.30
  -1   5   4  490.25   21.60
   0  -5   4  173.88    7.50
   0  -5  -4  166.58    7.40
   0  -5   4  172.58    7.20
   0  -5  -4  153.18    7.10
   0   5   4  148.99    7.20
   0   5  -4  154.18    7.00
   0   5   4  154.08    7.10
   0   5  -4  150.28    7.30
  -1  -5  -4   71.69    3.70
  -1  -5  -4   78.59    3.50
   1  -5   4   68.59    3.50
   1  -5   4   71.39    3.80
   1   5   4   72.29    3.60
  -1   5  -4   72.69    3.70
   1   5   4   60.09    3.50
  -2  -5  -4  336.07   14.80
   2  -5   4  318.47   14.70
   2  -5   4  309.37   14.90
   2  -5   4  334.87   14.10
  -2   5  -4  334.67   14.80
   2   5   4  338.17   14.50
   2   5   4  336.17   14.80
   2   5   4  332.87   14.70
  -2   5  -4  342.47   14.80
  -3  -5  -4  416.06   18.60
   3  -5   4  410.66   18.10
   3  -5   4  402.96   18.90
  -3   5  -4  421.56   18.70
   3   5   4  415.66   18.80
   3   5   4  431.56   18.30
  -3   5  -4  445.46   18.60
   3   5   4  416.36   18.60
  -4  -5  -4  302.17   13.20
   4  -5   4  283.17   13.70
  -4  -5  -4  302.37   13.50
   4   5   4  286.27   13.00
  -4   5  -4  286.47   13.10
  -4   5  -4  287.77   13.50
   4   5   4  289.87   13.70
   5  -5   4  154.38    8.30
  -5  -5  -4  145.09    7.70
  -5   5  -4  154.88    7.90
   5   5   4  155.48    8.20
   6  -5   4   62.79    4.90
  -6  -5  -4   60.29    4.40
  -6   5  -4   61.89    4.40
   6   5   4   68.69    5.00
  -7  -5  -4    9.50    2.30
   7  -5   4    6.90    2.30
   7   5   4    7.40    2.50
  -7   5  -4    7.20    2.10
   8  -6  -4   12.20    2.40
  -8  -6   4   16.80    3.30
  -8  -6   4   10.80    2.60
  -8   6   4   18.60    3.20
   8   6  -4   15.00    2.70
   7  -6  -4  127.49    7.40
  -7  -6   4  137.29    7.90
  -7  -6   4  128.79    7.20
   7   6  -4  133.19    7.60
  -7   6   4  126.99    7.30
  -7   6   4  133.69    7.60
  -6  -6   4  168.78    8.20
   6  -6  -4  165.88    8.50
   6  -6  -4  164.78    8.20
  -6  -6   4  170.08    8.80
  -6   6   4  163.78    8.60
   6   6  -4  177.28    8.70
  -6   6   4  132.79    8.00
  -5  -6   4  293.17   13.40
  -5  -6   4  289.57   12.90
   5  -6  -4  295.87   13.20
   5   6  -4  265.27   13.10
  -5   6   4  262.07   13.10
  -5   6   4  268.77   12.80
  -4  -6   4   64.59    4.10
   4  -6  -4   66.59    3.30
   4  -6  -4   66.79    3.90
  -4  -6   4   67.29    3.60
  -4   6   4   62.79    4.00
   4   6  -4   62.19    3.20
   4   6  -4   66.79    3.90
  -4   6   4   59.49    3.50
  -3  -6   4  188.68    8.50
  -3  -6   4  187.38    8.90
   3  -6  -4  183.28    8.40
   3  -6  -4  188.48    8.80
   3   6  -4  189.28    8.40
  -3   6   4  184.78    8.80
   3   6  -4  187.88    8.80
  -3   6   4  179.98    8.40
  -2  -6   4  151.38    6.80
  -2  -6   4  155.78    7.40
   2  -6  -4  138.09    7.10
  -2   6   4  154.28    7.00
   2   6  -4  159.88    7.10
   2   6  -4  159.48    7.00
  -2   6   4  150.38    6.70
  -2   6   4  147.99    7.10
  -1  -6   4  383.46   17.80
   1  -6  -4  373.06   17.50
  -1  -6   4  381.96   17.30
  -1   6   4  416.36   17.60
  -1   6   4  427.96   17.60
   1   6  -4  409.96   17.50
  -1   6   4  416.96   17.20
   1   6  -4  409.46   17.60
   0  -6   4 1236.58   53.29
   0  -6  -4 1230.58   53.19
   0  -6  -4 1233.18   52.99
   0  -6   4 1246.58   52.89
   0   6   4 1241.88   53.09
   0   6   4 1246.88   53.09
   0   6  -4 1274.07   53.19
   0   6  -4 1237.98   52.79
   0   6   4 1237.28   52.89
  -1  -6  -4  670.03   28.50
  -1  -6  -4  652.73   28.80
   1  -6   4  654.53   28.90
   1  -6   4  646.54   28.20
   1  -6   4  669.23   28.60
   1   6   4  675.03   28.70
   1   6   4  656.43   28.60
  -1   6  -4  692.13   28.80
   2  -6   4  955.00   40.10
   2  -6   4  921.11   39.20
  -2  -6  -4  930.91   39.80
   2   6   4  911.81   39.80
   2   6   4  920.81   39.50
  -2   6  -4  919.31   39.80
  -2   6  -4  912.91   39.80
   2   6   4  920.21   39.80
   3  -6   4  209.68    9.80
   3  -6   4  229.58   10.70
  -3  -6  -4  230.28   10.30
   3   6   4  221.98   10.10
   3   6   4  229.08   10.50
  -3   6  -4  215.18   10.30
  -3   6  -4  214.88   10.20
   3   6   4  239.18   10.40
  -4  -6  -4   28.30    2.30
  -4  -6  -4   27.00    2.40
   4  -6   4   31.90    2.80
   4   6   4   35.30    2.30
  -4   6  -4   34.70    2.40
   4   6   4   36.50    2.90
  -4   6  -4   36.40    2.70
  -5  -6  -4   17.40    2.20
   5  -6   4   22.60    2.80
   5   6   4   19.00    2.60
  -5   6  -4   20.00    2.40
   6  -6   4   30.20    3.70
  -6  -6  -4   32.20    3.10
  -6   6  -4   31.70    3.20
   6   6   4   30.10    3.60
  -7  -6  -4   12.70    2.50
   7  -6   4   10.50    2.60
   7   6   4   10.60    2.80
  -7   6  -4   16.70    2.80
   8  -7  -4   10.80    2.50
  -8  -7   4   13.40    3.10
   8   7  -4   13.90    2.50
  -8   7   4   14.60    3.10
  -7  -7   4    3.20    2.10
  -7  -7   4   -0.20    1.50
   7  -7  -4    2.10    1.70
  -7   7   4    2.50    2.00
   7   7  -4    1.30    1.50
  -6  -7   4   56.19    4.50
  -6  -7   4   58.39    3.90
   6  -7  -4   56.49    3.80
   6  -7  -4   54.69    4.10
  -6   7   4   59.59    4.20
   6   7  -4   57.69    4.10
  -5  -7   4   42.30    3.40
  -5  -7   4   38.80    3.00
   5  -7  -4   36.10    3.00
   5  -7  -4   39.20    2.90
  -5   7   4   47.30    3.00
   5   7  -4   45.30    3.30
  -5   7   4   43.00    3.30
  -4  -7   4  401.16   17.50
  -4  -7   4  396.26   18.00
   4  -7  -4  395.96   17.30
   4  -7  -4  389.36   17.80
  -4   7   4  403.46   17.50
  -4   7   4  383.66   17.80
   4   7  -4  387.56   17.90
   4   7  -4  407.56   17.30
  -3  -7   4  300.07   13.40
  -3  -7   4  285.97   13.90
   3  -7  -4  288.87   13.70
   3   7  -4  312.47   13.80
  -3   7   4  307.47   13.30
   3   7  -4  312.27   13.50
  -3   7   4  314.17   13.80
  -3   7   4  313.87   13.40
  -2   7   4   48.70    2.60
   2   7  -4   43.90    2.60
   2   7  -4   42.30    2.60
  -2   7   4   44.90    2.70
  -2   7   4   48.80    2.20
  -1  -7   4  222.98    9.90
   1  -7  -4  214.08    9.60
  -1  -7   4  215.48    9.30
  -1   7   4  213.98    9.60
   1   7  -4  206.88    9.50
   1   7  -4  208.38    9.60
  -1   7   4  210.58    9.60
   0  -7  -4  216.48    9.90
   0  -7   4  227.28   10.20
   0  -7   4  221.18    9.80
   0   7   4  222.68   10.00
   0   7   4  224.68    9.70
   0   7  -4  228.58   10.10
   0   7   4  217.48   10.00
   0   7  -4  215.08    9.70
   1  -7   4    2.00    0.60
  -1  -7  -4    1.80    0.70
  -1  -7  -4    2.20    0.60
   1  -7   4    2.70    0.90
   1  -7   4    1.70    0.40
   1   7   4    2.10    0.70
  -1   7  -4    2.10    0.70
   1   7   4    3.80    0.70
  -2  -7  -4  155.88    7.30
   2  -7   4  141.99    7.40
   2  -7   4  158.48    6.70
   2   7   4  152.98    7.30
   2   7   4  155.68    7.20
   2   7   4  151.48    7.00
  -2   7  -4  155.48    7.20
  -2   7  -4  153.18    7.30
  -3  -7  -4  297.47   12.80
   3  -7   4  273.07   13.10
   3  -7   4  275.87   12.70
   3   7   4  275.97   12.80
  -3   7  -4  280.37   12.80
  -3   7  -4  288.87   12.80
   3   7   4  276.67   12.60
   3   7   4  284.27   13.00
   4  -7   4  246.88   12.30
  -4  -7  -4  261.07   12.10
  -4  -7  -4  267.77   11.80
   4   7   4  255.57   11.70
  -4   7  -4  255.27   11.70
   4   7   4  254.97   12.20
  -4   7  -4  258.67   12.10
  -5  -7  -4  111.99    6.00
   5  -7   4  104.49    6.30
   5   7   4  109.39    6.30
  -5   7  -4  109.49    6.10
  -6  -7  -4   50.19    4.00
   6  -7   4   54.29    4.40
  -6   7  -4   58.69    4.20
   6   7   4   58.59    4.70
  -7  -7  -4    4.70    1.80
   7  -7   4    3.40    2.00
   7   7   4    6.00    2.30
  -7   7  -4    4.10    2.10
   8  -8  -4   26.40    3.40
  -8  -8   4   20.90    3.70
  -8   8   4   35.90    4.10
   8   8  -4   25.50    3.40
  -7  -8   4   46.50    4.50
   7  -8  -4   45.70    4.00
  -7  -8   4   48.10    3.90
   7   8  -4   50.79    4.20
  -7   8   4   41.90    4.00
  -6  -8   4  119.09    6.40
   6  -8  -4  118.09    6.70
   6  -8  -4  119.09    6.80
  -6  -8   4  110.79    7.10
  -6   8   4  132.59    7.00
   6   8  -4  132.79    7.00
   5  -8  -4  173.78    8.20
  -5  -8   4  167.18    8.10
   5  -8  -4  167.58    8.50
  -5  -8   4  179.18    8.90
  -5   8   4  163.28    8.60
   5   8  -4  162.48    8.50
   4  -8  -4   87.79    4.20
  -4  -8   4   84.69    4.30
  -4  -8   4   89.49    5.10
   4  -8  -4   92.09    4.80
   4   8  -4   77.29    4.10
  -4   8   4   77.19    4.20
  -4   8   4   77.69    4.00
  -4   8   4   78.99    4.70
   4   8  -4   77.59    4.70
  -3  -8   4   24.80    1.70
  -3  -8   4   24.00    2.40
   3  -8  -4   26.70    2.10
  -3   8   4   22.50    1.50
   3   8  -4   23.80    1.70
   3   8  -4   20.90    1.90
  -3   8   4   25.20    2.10
  -3   8   4   23.80    1.70
  -2  -8   4  327.27   15.00
  -2  -8   4  309.67   14.30
   2  -8  -4  323.77   14.80
   2   8  -4  326.37   14.70
  -2   8   4  333.67   14.60
   2   8  -4  343.67   14.60
  -2   8   4  352.06   14.80
   1  -8  -4  705.73   30.40
  -1  -8   4  719.23   30.60
  -1  -8   4  674.53   30.00
  -1   8   4  707.43   30.30
  -1   8   4  699.13   30.30
   1   8  -4  717.73   30.40
   1   8  -4  698.63   30.20
   0  -8  -4  611.04   26.30
   0  -8   4  606.14   26.60
   0  -8   4  601.64   26.10
   0   8   4  607.54   26.40
   0   8   4  594.24   26.30
   0   8  -4  616.34   26.10
   0   8  -4  632.34   26.50
   0   8   4  603.94   26.00
   1  -8   4  964.60   40.50
   1  -8   4  963.20   40.90
  -1  -8  -4  950.40   40.50
   1  -8   4  934.51   40.20
  -1   8  -4  957.80   40.70
   1   8   4  914.61   40.60
   1   8   4  935.91   40.70
   1   8   4  941.11   40.50
   2  -8   4  559.94   24.10
  -2  -8  -4  578.94   24.60
   2  -8   4  549.25   24.80
   2   8   4  552.34   24.60
   2   8   4  574.14   24.60
  -2   8  -4  556.94   24.60
  -2   8  -4  568.74   24.50
   2   8   4  563.14   24.40
  -3  -8  -4   27.70    2.20
   3  -8   4   28.60    2.50
   3   8   4   33.10    2.50
   3   8   4   28.60    2.10
  -3   8  -4   31.80    2.30
  -3   8  -4   29.50    2.20
   3   8   4   30.10    2.30
  -4  -8  -4   13.90    1.60
  -4  -8  -4   14.80    1.90
   4  -8   4   10.30    1.90
   4   8   4   14.10    1.60
  -4   8  -4   15.10    1.90
   4   8   4   21.20    2.40
  -4   8  -4   15.20    1.70
   5  -8   4   36.50    3.50
  -5  -8  -4   32.00    2.90
  -5   8  -4   36.10    2.90
   5   8   4   36.40    3.40
  -6  -8  -4   34.40    3.10
   6  -8   4   31.00    3.40
   6   8   4   21.30    3.10
  -6   8  -4   27.10    2.90
  -7  -8  -4   18.20    2.80
   7  -8   4   18.00    3.00
  -7   8  -4   19.50    3.00
   7   8   4   16.10    3.10
   8  -9  -4    9.70    2.30
  -8  -9   4    5.00    2.40
  -8   9   4    6.40    2.60
   8   9  -4   11.30    2.60
  -7  -9   4   -0.10    1.70
   7  -9  -4    0.20    1.40
  -7   9   4    0.00    1.70
   7   9  -4    0.40    1.60
   6  -9  -4    9.10    2.00
  -6  -9   4    5.40    2.00
  -6  -9   4    7.50    1.60
   6   9  -4    8.60    2.00
  -6   9   4   13.20    2.30
   5  -9  -4   98.19    5.20
  -5  -9   4   95.99    5.20
  -5  -9   4  101.49    6.00
   5  -9  -4   95.49    5.60
  -5   9   4  103.29    5.70
   5   9  -4  107.79    5.80
   4  -9  -4  335.17   16.10
  -4  -9   4  348.07   16.40
  -4  -9   4  351.06   15.70
  -4   9   4  355.26   15.70
  -4   9   4  351.96   16.10
   4   9  -4  363.56   16.20
   4   9  -4  363.16   15.60
  -4   9   4  365.56   15.60
   3  -9  -4  457.55   20.70
  -3  -9   4  472.25   20.20
  -3  -9   4  441.66   20.90
  -3   9   4  463.35   20.10
  -3   9   4  471.85   20.40
  -3   9   4  475.75   20.70
   3   9  -4  476.35   20.40
   3   9  -4  483.65   20.80
  -2  -9   4  456.35   19.30
   2  -9  -4  463.75   19.80
  -2  -9   4  454.65   20.00
   2   9  -4  434.46   19.70
  -2   9   4  456.75   19.60
   2   9  -4  427.16   19.60
  -2   9   4  446.56   19.70
  -1  -9   4  479.05   20.80
  -1  -9   4  480.75   21.40
   1  -9  -4  486.55   21.20
  -1   9   4  477.55   21.10
   1   9  -4  481.45   21.10
  -1   9   4  506.25   21.20
   1   9  -4  482.75   21.20
   0  -9   4  187.28    8.90
   0  -9  -4  201.68    9.20
   0  -9   4  192.78    9.50
   0   9   4  212.28    8.90
   0   9  -4  205.58    9.40
   0   9   4  210.18    9.20
   0   9  -4  195.38    9.00
   0   9   4  218.38    9.40
  -1  -9  -4   46.30    2.70
   1  -9   4   50.09    2.50
   1  -9   4   54.69    3.10
   1   9   4   48.80    2.80
   1   9   4   47.60    2.70
  -1   9  -4   51.89    3.00
   1   9   4   49.70    2.90
   2  -9   4  174.18    8.70
   2  -9   4  179.58    8.00
  -2  -9  -4  182.88    8.30
  -2  -9  -4  173.88    8.50
   2   9   4  176.38    8.40
  -2   9  -4  185.58    8.50
  -2   9  -4  184.98    8.40
   2   9   4  185.58    8.50
  -3  -9  -4  279.17   12.70
   3  -9   4  269.07   13.10
  -3   9  -4  279.07   12.80
   3   9   4  283.27   13.00
   3   9   4  287.07   12.60
  -3   9  -4  274.17   12.70
   3   9   4  283.67   12.70
  -4  -9  -4   83.29    4.70
   4  -9   4   80.69    5.10
  -4  -9  -4   83.19    4.50
  -4   9  -4   80.09    4.50
   4   9   4   87.19    5.00
  -4   9  -4   83.99    4.80
   4   9   4   81.89    4.50
   5  -9   4  105.49    6.40
  -5  -9  -4  101.99    5.80
   5   9   4  104.29    6.20
  -5   9  -4  101.89    5.80
  -6  -9  -4   56.29    4.10
   6  -9   4   52.09    4.40
  -6   9  -4   58.49    4.30
   6   9   4   56.69    4.70
   7  -9   4    2.00    2.20
  -7  -9  -4    2.30    1.60
   7   9   4    4.30    2.40
  -7   9  -4    3.80    2.00
  -7 -10   4   34.60    4.10
   7 -10  -4   35.20    3.40
   7  10  -4   34.20    3.70
  -7  10   4   34.00    3.80
   6 -10  -4   87.89    5.60
  -6 -10   4   90.89    6.10
  -6  10   4  105.99    5.90
   6  10  -4   98.69    5.80
  -5 -10   4   40.60    3.60
  -5 -10   4   40.80    2.90
   5 -10  -4   50.19    3.50
   5  10  -4   44.80    3.40
  -5  10   4   49.40    3.70
  -4 -10   4   72.29    4.70
  -4 -10   4   78.69    3.90
   4 -10  -4   78.19    4.50
   4  10  -4   73.39    3.80
  -4  10   4   74.49    4.50
   4  10  -4   66.69    4.30
  -4  10   4   72.59    3.80
  -3 -10   4    2.80    0.70
  -3 -10   4    1.30    1.30
   3 -10  -4    2.10    1.00
   3  10  -4    1.00    0.90
  -3  10   4    1.90    0.60
   3  10  -4    0.40    0.40
  -3  10   4    1.50    0.70
  -3  10   4    1.50    1.20
  -2 -10   4  107.19    5.00
  -2 -10   4  111.09    5.90
   2 -10  -4   99.69    5.50
   2  10  -4  116.19    5.50
  -2  10   4  121.79    5.60
  -2  10   4  115.69    5.50
   2  10  -4  113.19    5.50
  -1 -10   4  426.06   19.30
   1 -10  -4  439.16   19.80
  -1 -10   4  447.06   20.10
  -1  10   4  463.65   19.80
  -1  10   4  451.45   19.70
   1  10  -4  467.25   19.90
   1  10  -4  466.15   19.70
   0 -10   4  197.28    8.70
   0 -10   4  204.08    9.30
   0 -10  -4  193.08    9.00
   0  10   4  195.58    9.00
   0  10  -4  192.48    8.80
   0  10  -4  200.38    9.20
   0  10   4  194.08    8.60
   0  10   4  200.38    9.10
  -1 -10  -4  653.33   28.90
   1 -10   4  651.53   29.20
   1 -10   4  631.04   28.60
   1  10   4  681.83   28.80
  -1  10  -4  680.43   28.80
   1  10   4  669.33   28.90
  -1  10  -4  679.63   29.10
   1  10   4  693.83   29.00
   2 -10   4  172.88    8.60
   2 -10   4  197.38    9.40
  -2 -10  -4  187.98    9.00
  -2  10  -4  198.38    9.10
   2  10   4  200.18    9.00
   2  10   4  207.98    9.10
  -2  10  -4  201.58    9.00
  -3 -10  -4   49.30    3.00
   3 -10   4   49.20    3.20
   3  10   4   41.00    2.70
  -3  10  -4   38.70    2.80
   3  10   4   45.60    2.80
  -3  10  -4   35.70    2.70
   3  10   4   42.40    3.00
  -4 -10  -4   25.50    2.30
   4 -10   4   30.70    2.90
  -4 -10  -4   21.00    2.10
  -4  10  -4   21.10    2.00
   4  10   4   20.30    2.00
   4  10   4   29.60    2.70
  -4  10  -4   24.60    2.30
   5 -10   4   22.60    2.90
  -5 -10  -4   19.70    2.30
  -5  10  -4   23.10    2.40
   5  10   4   23.80    2.90
  -6 -10  -4   15.70    2.40
   6 -10   4   13.90    2.50
  -6  10  -4   16.40    2.50
   6  10   4   19.40    3.10
   7 -11  -4    0.00    1.40
  -7 -11   4    1.40    2.10
   7  11  -4    0.60    1.80
  -7  11   4   -2.30    1.60
   6 -11  -4   16.40    2.40
  -6 -11   4   20.30    3.00
  -6  11   4   16.50    2.70
   6  11  -4   16.80    2.50
  -5 -11   4   47.90    4.00
   5 -11  -4   44.00    3.60
  -5  11   4   52.09    3.70
   5  11  -4   50.29    3.60
   4 -11  -4  102.79    5.80
  -4 -11   4  104.39    5.20
  -4 -11   4  100.29    6.20
   4  11  -4  114.99    5.90
   4  11  -4  115.49    5.40
  -4  11   4  107.49    5.30
  -4  11   4  112.19    5.90
   3 -11  -4  556.84   25.00
  -3 -11   4  562.14   25.20
  -3 -11   4  557.94   24.30
  -3  11   4  580.04   24.60
   3  11  -4  558.94   24.90
  -3  11   4  575.04   24.90
  -2 -11   4  463.15   20.50
  -2 -11   4  459.65   19.60
   2 -11  -4  457.55   20.20
   2  11  -4  443.76   20.10
   2  11  -4  465.75   20.10
  -2  11   4  454.05   20.10
  -2  11   4  457.55   20.10
  -1 -11   4  492.45   21.70
   1 -11  -4  500.65   21.40
  -1 -11   4  479.55   20.80
  -1  11   4  487.25   21.30
   1  11  -4  474.25   21.20
   1  11  -4  477.85   21.40
  -1  11   4  498.95   21.40
   0 -11   4   99.69    4.80
   0 -11  -4  101.49    5.20
   0 -11   4   95.99    5.40
   0  11  -4  110.39    5.40
   0  11  -4  111.29    5.10
   0  11   4  115.29    5.30
   0  11   4  111.09    5.20
   1 -11   4    4.30    1.10
   1 -11   4    6.20    0.80
  -1 -11  -4    7.30    1.10
   1  11   4    6.90    1.00
   1  11   4    4.30    1.00
  -1  11  -4    4.90    1.20
   1  11   4    5.50    0.90
  -1  11  -4    5.20    0.80
   2 -11   4   66.99    3.50
  -2 -11  -4   65.19    3.80
   2 -11   4   67.69    4.20
  -2  11  -4   77.59    4.10
   2  11   4   74.59    3.90
   2  11   4   74.19    4.00
  -2  11  -4   79.49    3.90
   2  11   4   72.19    3.90
   3 -11   4  124.39    7.10
  -3 -11  -4  128.49    6.70
   3  11   4  142.79    6.70
  -3  11  -4  141.79    6.80
   3  11   4  139.39    7.00
  -3  11  -4  140.19    6.80
   3  11   4  137.89    6.70
  -4 -11  -4  128.29    6.50
   4 -11   4  115.39    6.80
  -4 -11  -4  125.29    6.30
   4  11   4  126.39    6.30
  -4  11  -4  122.09    6.30
  -4  11  -4  126.49    6.50
   4  11   4  122.69    6.70
   5 -11   4   99.29    6.20
  -5 -11  -4   97.89    5.60
  -5  11  -4   92.39    5.60
   5  11   4  103.89    6.10
  -6 -11  -4   44.60    3.60
   6 -11   4   42.40    4.20
  -6  11  -4   41.40    3.80
   6  11   4   43.00    4.20
   7 -12  -4   20.40    2.90
  -7 -12   4   20.50    3.30
   7  12  -4   21.30    3.00
  -7  12   4   15.50    3.00
  -6 -12   4   51.79    4.60
   6 -12  -4   48.00    4.00
  -6  12   4   57.59    4.40
   6  12  -4   60.69    4.30
  -5 -12   4   13.90    2.50
   5 -12  -4   15.10    2.20
   5  12  -4    8.40    1.80
  -5  12   4   10.40    2.00
  -4 -12   4   73.69    5.00
   4 -12  -4   80.39    4.60
   4  12  -4   74.99    4.00
  -4  12   4   73.69    4.50
  -4  12   4   75.09    4.00
   4  12  -4   74.79    4.50
  -3 -12   4   16.20    2.20
   3 -12  -4   21.20    2.20
  -3 -12   4   18.20    1.30
   3  12  -4   18.50    2.00
  -3  12   4   18.70    2.00
  -3  12   4   20.30    1.70
   3  12  -4   20.00    1.80
   2 -12  -4  166.88    8.20
  -2 -12   4  158.88    7.40
  -2 -12   4  169.68    8.50
   2  12  -4  180.48    8.10
  -2  12   4  168.48    8.00
  -2  12   4  172.08    8.00
   2  12  -4  174.88    8.10
  -1 -12   4   95.79    5.10
   1 -12  -4   83.89    4.60
  -1 -12   4   87.29    4.00
  -1  12   4   88.19    4.60
   1  12  -4   92.39    4.60
   1  12  -4   91.09    4.50
  -1  12   4   85.39    4.50
   0 -12  -4  257.57   11.80
   0 -12  -4  256.07   11.30
   0 -12   4  257.67   12.10
   0  12   4  271.07   11.90
   0  12  -4  256.87   11.60
   0  12  -4  258.97   11.40
   0  12   4  261.37   11.70
   0  12  -4  262.17   11.90
   1 -12   4  335.97   15.60
   1 -12   4  339.17   16.20
  -1 -12  -4  337.27   15.90
   1  12   4  374.06   16.00
   1  12   4  359.06   15.80
  -1  12  -4  379.26   16.10
  -1  12  -4  371.66   15.70
   1  12   4  365.66   15.70
   2 -12   4  229.28   10.70
  -2 -12  -4  226.88   10.30
   2 -12   4  220.78    9.90
   2  12   4  218.68   10.30
   2  12   4  216.78   10.30
  -2  12  -4  222.98   10.20
   2  12   4  226.38   10.20
  -2  12  -4  222.48   10.40
   3 -12   4   33.30    3.00
  -3  12  -4   37.70    2.80
   3  12   4   42.50    2.70
   3  12   4   39.40    2.90
   3  12   4   39.80    2.70
  -3  12  -4   41.60    2.70
   4 -12   4   33.70    3.10
  -4 -12  -4   30.20    2.40
  -4 -12  -4   27.70    2.40
   4  12   4   32.40    3.00
  -4  12  -4   31.20    2.60
  -4  12  -4   31.70    2.60
   4  12   4   28.20    2.40
  -5 -12  -4   14.40    2.10
   5 -12   4   17.60    2.70
  -5  12  -4   18.30    2.40
   5  12   4   15.70    2.60
  -6 -12  -4    8.60    1.90
   6 -12   4    9.70    2.40
  -6  12  -4    8.00    2.10
   6  12   4    7.40    2.30
   7 -13  -4    1.30    1.80
  -7 -13   4    0.60    2.30
  -7  13   4   -0.30    1.90
   7  13  -4    1.50    1.80
   6 -13  -4   10.60    2.10
  -6 -13   4   15.10    2.90
  -6  13   4   13.40    2.40
   6  13  -4   16.10    2.50
  -5 -13   4   14.90    2.50
   5 -13  -4   14.80    2.30
  -5  13   4   23.40    2.70
   5  13  -4   23.20    2.60
  -4 -13   4  110.59    6.60
   4 -13  -4  113.49    6.30
  -4  13   4  120.29    5.80
   4  13  -4  116.99    6.30
   4  13  -4  121.99    5.80
  -4  13   4  122.79    6.30
  -3 -13   4  539.05   24.50
   3 -13  -4  549.74   24.20
   3  13  -4  541.05   23.80
  -3  13   4  538.15   24.00
   3  13  -4  545.45   24.10
  -3  13   4  551.84   23.80
   2 -13  -4  379.56   16.90
  -2 -13   4  371.26   17.20
   2  13  -4  371.06   16.80
   2  13  -4  375.96   16.70
  -2  13   4  381.16   16.80
  -2  13   4  373.66   16.70
  -1 -13   4  450.05   19.20
   1 -13  -4  428.06   18.90
   1  13  -4  417.76   18.80
  -1  13   4  415.96   18.70
  -1  13   4  424.76   18.80
   1  13  -4  418.56   18.10
   1  13  -4  417.76   18.70
   0 -13   4   76.19    4.40
   0 -13  -4   70.49    3.50
   0 -13  -4   74.09    4.10
   0  13  -4   75.59    3.80
   0  13  -4   72.49    4.10
   0  13   4   75.89    3.90
   0  13  -4   74.39    3.50
   0  13   4   75.39    4.10
   1 -13   4   25.80    1.80
   1 -13   4   26.10    2.40
  -1 -13  -4   24.80    2.00
  -1  13  -4   28.70    1.70
   1  13   4   22.80    2.10
   1  13   4   23.10    1.80
  -1  13  -4   25.80    2.10
   1  13   4   24.10    1.80
   2 -13   4   77.09    3.70
  -2 -13  -4   73.99    4.10
   2 -13   4   69.29    4.30
   2  13   4   72.29    4.00
   2  13   4   72.89    4.00
   2  13   4   77.89    4.20
  -2  13  -4   72.49    4.20
   3 -13   4   57.29    3.80
  -3  13  -4   51.99    3.20
  -3  13  -4   49.00    3.30
   3  13   4   50.99    3.30
   3  13   4   50.49    3.20
   3  13   4   50.69    3.40
   3  13   4   53.49    3.20
  -4 -13  -4   97.59    5.50
   4 -13   4  102.79    6.00
  -4 -13  -4   99.29    5.50
  -4  13  -4  102.29    5.50
  -4  13  -4  105.69    5.60
   4  13   4  103.39    5.90
  -5 -13  -4   59.79    3.80
   5 -13   4   57.39    4.40
   5  13   4   40.60    4.20
  -5  13  -4   55.19    4.00
   5  13   4   53.69    4.20
   6 -13   4   41.10    4.10
  -6 -13  -4   39.80    3.50
   6  13   4   36.00    4.00
  -6  13  -4   38.80    3.70
  -7 -14   4    4.70    2.30
   7 -14  -4    3.10    1.80
  -7  14   4    0.00    1.90
   7  14  -4    1.00    1.70
  -6 -14   4   44.10    4.30
   6 -14  -4   50.39    4.10
  -6  14   4   45.50    3.90
   6  14  -4   51.19    4.10
  -5 -14   4   77.89    5.60
   5 -14  -4   85.39    5.20
   5  14  -4   82.89    5.10
  -5  14   4   77.19    5.10
   4 -14  -4   66.89    4.10
  -4 -14   4   63.19    4.50
  -4  14   4   61.09    3.50
   4  14  -4   58.29    3.50
  -4  14   4   58.89    3.90
   4  14  -4   54.59    3.80
   3 -14  -4    4.80    1.40
  -3 -14   4    4.20    1.60
   3  14  -4    4.90    1.10
   3  14  -4    4.70    1.20
  -3  14   4    5.40    1.20
  -3  14   4    6.30    1.50
  -2 -14   4  180.88    9.00
   2 -14  -4  176.48    8.70
  -2  14   4  181.78    8.50
  -2  14   4  169.88    8.50
   2  14  -4  183.18    8.60
   2  14  -4  186.48    8.60
   1 -14  -4  252.67   11.40
  -1 -14   4  258.97   11.70
  -1  14   4  234.78   11.10
   1  14  -4  240.38   11.30
  -1  14   4  243.08   11.30
   1  14  -4  240.38   11.20
   0 -14   4  229.28   11.00
   0 -14  -4  222.68   10.20
   0 -14  -4  229.68   10.80
   0 -14   4  219.78   10.60
   0  14   4  246.08   10.90
   0  14   4  238.38   10.60
   0  14  -4  236.08   10.60
   0  14  -4  240.58   10.20
   0  14  -4  239.08   10.90
   1 -14   4  534.85   23.40
  -1 -14  -4  556.84   23.40
   1 -14   4  531.35   23.90
  -1 -14  -4  540.35   23.70
   1  14   4  533.45   23.70
   1  14   4  538.75   23.50
  -1  14  -4  538.15   23.80
  -1  14  -4  528.65   23.30
  -2 -14  -4  263.17   12.10
   2 -14   4  279.27   11.80
   2 -14   4  269.37   12.50
   2  14   4  246.28   12.10
   2  14   4  267.27   12.00
  -2  14  -4  261.07   11.90
   2  14   4  265.57   12.10
  -2  14  -4  252.77   12.20
   3 -14   4    2.80    1.30
   3  14   4    6.80    1.50
   3  14   4    7.10    1.30
   3  14   4    6.30    1.20
   3  14   4    7.50    1.40
  -3  14  -4    7.30    1.40
  -3  14  -4    6.20    1.30
  -4 -14  -4    9.60    1.70
   4 -14   4   11.20    2.10
  -4 -14  -4   14.20    1.90
   4  14   4   12.80    2.10
   4  14   4   14.30    1.90
  -4  14  -4   14.40    2.00
  -4  14  -4   11.70    1.80
  -5 -14  -4    0.30    1.10
   5 -14   4    0.60    1.60
   5  14   4    0.00    0.60
  -5  14  -4    0.30    1.20
   5  14   4    0.00    1.60
  -6 -14  -4   10.00    2.00
   6 -14   4    9.90    2.40
  -6  14  -4    6.00    2.00
   6  14   4    6.00    2.30
   7 -15  -4    3.90    2.00
  -7 -15   4    1.40    2.50
  -7  15   4    3.80    2.40
   7  15  -4    1.70    1.90
  -6 -15   4   12.40    2.90
   6 -15  -4   11.60    2.40
  -6  15   4   12.00    2.30
   6  15  -4   13.30    2.50
  -5 -15   4   37.00    4.00
   5 -15  -4   35.50    3.40
  -5  15   4   37.80    3.60
   5  15  -4   42.80    3.50
  -4 -15   4  125.59    6.80
   4 -15  -4  122.19    6.30
  -4  15   4  105.89    5.70
   4  15  -4  104.49    6.10
   4  15  -4  106.59    5.60
  -4  15   4  109.59    6.10
   3 -15  -4  279.57   12.50
  -3 -15   4  276.67   12.90
   3  15  -4  262.57   12.40
  -3  15   4  262.27   12.30
   3  15  -4  252.27   12.10
  -3  15   4  256.77   12.10
   2 -15  -4  181.28    8.70
  -2 -15   4  174.48    9.00
  -2  15   4  179.38    8.50
   2  15  -4  174.88    8.60
  -2  15   4  180.78    8.50
   2  15  -4  178.78    8.50
   1 -15  -4  222.58   10.10
  -1 -15   4  219.18   10.40
   1  15  -4  201.28   10.00
   1  15  -4  205.68    9.90
  -1  15   4  215.18    9.80
  -1  15   4  214.38   10.00
   0 -15  -4   34.00    2.50
   0 -15   4   33.40    2.20
   0 -15   4   35.50    2.90
   0  15  -4   30.20    2.40
   0  15   4   35.10    2.20
   0  15   4   31.30    2.40
   0  15  -4   32.10    1.80
  -1 -15  -4   28.00    2.30
   1 -15   4   27.10    2.00
   1 -15   4   26.50    2.40
  -1 -15  -4   26.40    2.00
  -1  15  -4   29.50    2.50
  -1  15  -4   28.80    1.80
   1  15   4   30.50    2.10
   1  15   4   27.00    2.40
   2 -15   4   50.89    3.70
   2 -15   4   55.49    3.10
  -2 -15  -4   55.69    3.40
  -2  15  -4   59.39    3.20
   2  15   4   54.79    3.50
   2  15   4   56.79    3.40
   2  15   4   56.39    3.20
  -2  15  -4   57.19    3.60
   3 -15   4   79.09    4.60
   3  15   4   71.99    4.10
   3  15   4   65.89    4.10
   3  15   4   66.19    4.10
   3  15   4   69.69    3.90
  -3  15  -4   66.79    4.00
  -3  15  -4   66.59    4.10
  -4 -15  -4   83.09    4.70
  -4 -15  -4   81.19    4.70
   4 -15   4   80.59    5.30
  -4  15  -4   76.99    4.70
   4  15   4   81.89    5.10
   4  15   4   81.39    4.80
  -4  15  -4   85.59    4.90
  -5 -15  -4   53.29    3.80
   5 -15   4   59.49    4.50
   5  15   4   54.89    3.90
   5  15   4   51.39    4.40
  -5  15  -4   55.99    4.10
   6 -15   4   15.60    2.90
  -6 -15  -4   13.60    2.30
   6  15   4   16.20    2.90
  -6  15  -4   16.80    2.70
   7 -16  -4   14.50    2.70
  -7 -16   4   12.90    3.00
  -7  16   4    9.00    2.80
   7  16  -4   11.10    2.60
  -6 -16   4   36.70    4.30
   6 -16  -4   35.50    3.70
  -6  16   4   36.70    3.80
   6  16  -4   38.10    3.70
   5 -16  -4   39.40    3.60
  -5 -16   4   37.10    3.80
   5  16  -4   43.50    3.50
  -5  16   4   40.20    3.70
   4 -16  -4   29.80    2.70
  -4 -16   4   29.50    3.20
  -4  16   4   25.30    2.20
   4  16  -4   28.20    2.30
   4  16  -4   21.50    2.40
  -4  16   4   26.80    2.60
  -3 -16   4   49.80    4.00
   3 -16  -4   58.49    3.80
  -3  16   4   51.79    3.40
   3  16  -4   55.69    3.40
  -3  16   4   52.39    3.50
   3  16  -4   59.99    3.70
  -2 -16   4   80.09    4.80
   2 -16  -4   78.49    4.40
   2  16  -4   67.09    4.10
  -2  16   4   68.29    4.10
  -2  16   4   76.39    4.20
   2  16  -4   70.49    4.20
   1 -16  -4   43.40    3.20
  -1 -16   4   43.10    3.50
  -1  16   4   53.79    3.10
   1  16  -4   56.09    3.20
   1  16  -4   50.39    3.30
  -1  16   4   52.29    3.30
   0 -16  -4   68.59    4.40
   0 -16   4   69.39    4.60
   0  16   4   88.49    4.30
   0  16  -4   87.29    4.60
   0  16   4   95.19    4.60
   1 -16   4  280.07   13.30
   1 -16   4  286.27   12.80
  -1 -16  -4  275.17   13.00
  -1 -16  -4  278.17   12.70
   1  16   4  273.17   13.00
   1  16   4  294.97   12.80
  -1  16  -4  289.77   12.50
  -1  16  -4  284.37   13.10
   2 -16   4   92.09    4.60
  -2 -16  -4   94.19    5.00
   2 -16   4   99.79    5.40
  -2 -16  -4   96.19    4.90
   2  16   4   88.79    4.70
  -2  16  -4   85.59    4.60
   2  16   4   82.59    4.90
  -2  16  -4   81.39    4.90
   3 -16   4   16.50    2.30
  -3 -16  -4   12.70    1.80
  -3  16  -4   13.00    1.90
  -3  16  -4   12.80    1.70
   3  16   4   16.10    1.80
   3  16   4   16.10    2.00
   3  16   4   15.40    1.90
   4 -16   4   11.00    2.10
  -4 -16  -4   10.40    1.70
  -4  16  -4   10.30    1.80
   4  16   4   12.40    2.10
   4  16   4   10.40    1.90
   4  16   4    9.00    1.60
  -4  16  -4    8.70    1.70
  -5 -16  -4    4.10    1.40
   5 -16   4    4.70    2.00
   5  16   4    2.30    1.80
   5  16   4    5.60    1.70
  -5  16  -4    4.60    1.60
   6 -16   4    1.30    1.90
   6  16   4    0.40    1.90
  -6  16  -4   -1.90    1.60
  -7 -17   4    0.50    2.70
   7 -17  -4    2.50    2.00
  -7  17   4    0.20    2.30
   7  17  -4    3.20    2.10
  -6 -17   4   11.60    3.00
   6 -17  -4   10.00    2.30
   6  17  -4   10.40    2.10
  -6  17   4    8.50    2.20
   5 -17  -4   48.40    3.90
  -5 -17   4   47.30    4.60
   5  17  -4   57.09    4.10
  -5  17   4   51.59    3.90
  -4 -17   4    3.90    2.00
   4 -17  -4    2.60    1.30
   4  17  -4    1.10    1.30
   4  17  -4    1.30    0.90
  -4  17   4    0.80    0.90
  -4  17   4   -0.30    1.40
  -3 -17   4  118.09    6.60
   3 -17  -4  116.39    6.20
  -3  17   4  111.89    5.80
  -3  17   4  107.39    5.80
   3  17  -4  105.09    5.70
   3  17  -4  105.79    6.00
  -2 -17   4  133.49    7.30
   2 -17  -4  141.49    7.00
  -2  17   4  131.19    6.70
  -2  17   4  136.09    6.70
   2  17  -4  131.79    6.80
   2  17  -4  133.39    6.80
  -1 -17   4   61.39    4.00
   1 -17  -4   64.09    3.70
   1  17  -4   49.99    3.40
  -1  17   4   48.10    3.10
  -1  17   4   49.70    3.40
   1  17  -4   50.39    3.30
   0 -17   4    4.00    1.50
   0 -17  -4    1.80    1.10
   0  17   4    2.30    1.00
   0  17   4    2.70    0.90
   0  17  -4    2.90    1.20
   1 -17   4   12.90    1.50
  -1 -17  -4    9.40    2.20
  -1 -17  -4   10.80    1.60
   1 -17   4   12.20    2.00
  -1  17  -4   10.60    1.70
  -1  17  -4   13.40    1.50
   1  17   4   10.80    1.40
   1  17   4    8.10    1.40
   2 -17   4    6.30    1.20
   2 -17   4    7.60    1.60
  -2 -17  -4    7.60    1.50
  -2 -17  -4    6.20    1.30
   2  17   4    6.10    1.40
  -2  17  -4    7.00    1.60
   2  17   4    8.20    1.20
  -2  17  -4    7.40    1.20
  -3 -17  -4   55.89    3.70
   3 -17   4   48.30    3.80
  -3 -17  -4   58.09    3.70
   3  17   4   52.09    3.50
  -3  17  -4   52.99    3.60
   3  17   4   54.49    3.40
  -4 -17  -4   97.49    5.30
  -4 -17  -4   99.39    5.80
   4 -17   4   89.79    5.70
  -4  17  -4   97.79    5.50
   4  17   4   89.19    5.20
   4  17   4   97.19    5.50
   4  17   4   96.89    5.80
  -4  17  -4   94.69    5.40
  -5 -17  -4   38.00    3.20
   5 -17   4   41.10    4.00
   5  17   4   44.50    3.50
   5  17   4   38.70    3.90
  -5  17  -4   44.00    3.60
   6 -17   4    2.10    2.00
  -6 -17  -4    6.80    2.20
  -6  17  -4    1.20    1.90
   6  17   4    2.00    2.20
   6 -18  -4   34.10    3.50
  -6 -18   4   29.00    4.10
   6  18  -4   33.80    3.40
  -6  18   4   25.60    3.30
   5 -18  -4    5.00    1.70
  -5 -18   4    2.20    2.20
   5  18  -4    4.30    1.70
  -5  18   4    5.00    1.90
  -4 -18   4   11.50    2.60
   4 -18  -4   14.60    2.20
  -4  18   4   15.80    1.90
  -4  18   4   13.70    2.20
   4  18  -4   15.00    2.30
  -3 -18   4    3.60    1.90
   3 -18  -4    6.50    1.50
   3  18  -4    5.70    1.40
  -3  18   4    6.20    1.60
  -3  18   4    5.70    1.40
   3  18  -4    6.30    1.60
  -2 -18   4   57.09    4.30
   2 -18  -4   54.79    3.90
  -2  18   4   72.39    3.90
   2  18  -4   63.79    3.90
  -2  18   4   62.99    3.90
   2  18  -4   66.29    4.00
   1 -18  -4  108.09    6.20
  -1 -18   4  104.69    6.40
  -1  18   4  126.49    6.00
   1  18  -4  119.69    6.20
   1  18  -4  123.79    6.10
  -1  18   4  123.79    6.20
   0 -18   4  140.39    7.00
   0 -18  -4  138.59    7.30
   0 -18   4  127.89    7.40
   0  18   4  158.98    7.40
   0  18  -4  146.79    7.30
   0  18   4  155.28    7.00
  -1 -18  -4   92.59    5.30
   1 -18   4   94.19    5.50
   1 -18   4   98.59    5.00
   1  18   4   95.59    5.30
  -1  18  -4   95.29    5.40
   2 -18   4   67.59    4.30
  -2 -18  -4   65.99    3.90
   2 -18   4   67.29    3.70
  -2 -18  -4   66.59    4.00
  -2  18  -4   59.19    3.50
   2  18   4   59.29    3.90
  -2  18  -4   57.99    4.00
  -3 -18  -4   54.39    3.80
   3 -18   4   53.89    4.10
  -3 -18  -4   53.79    3.90
   3  18   4   64.69    3.90
  -3  18  -4   62.29    4.00
  -3  18  -4   62.89    3.70
  -4 -18  -4   13.90    2.30
  -4 -18  -4   13.40    1.90
   4 -18   4   11.00    2.10
   4  18   4   12.80    1.90
  -4  18  -4   10.40    1.90
  -4  18  -4   12.90    2.00
   4  18   4   12.40    2.00
   5 -18   4    3.70    2.00
  -5 -18  -4    3.90    1.90
  -5  18  -4    2.70    1.70
   5  18   4    2.60    1.60
   6 -19  -4    2.40    1.90
  -6 -19   4    2.80    2.30
  -6  19   4    1.50    2.00
   6  19  -4    5.30    2.00
  -5 -19   4   44.90    4.40
   5 -19  -4   49.90    4.10
  -5  19   4   50.89    4.10
   5  19  -4   52.59    4.10
  -4 -19   4   42.30    4.00
   4 -19  -4   45.00    3.80
   4  19  -4   46.30    3.20
   4  19  -4   49.20    3.80
  -4  19   4   48.20    3.30
  -4  19   4   51.79    3.60
   3 -19  -4   52.49    4.00
  -3 -19   4   47.60    4.20
   3  19  -4   60.89    3.80
   3  19  -4   65.09    4.00
  -3  19   4   62.89    3.90
  -3  19   4   61.29    3.80
   2 -19  -4   61.39    4.30
  -2 -19   4   60.29    4.70
   2  19  -4   80.29    4.50
   2  19  -4   79.09    4.50
  -2  19   4   78.99    4.50
  -2  19   4   82.59    4.30
   1 -19  -4   40.90    3.30
  -1 -19   4   41.10    3.60
  -1  19   4   49.30    3.30
  -1  19   4   53.09    3.10
   1  19  -4   48.10    3.20
   1  19  -4   48.80    3.30
   0 -19   4   19.40    2.00
   0 -19  -4   22.80    2.30
   0 -19   4   16.50    2.20
   0  19   4   22.30    1.80
   0  19   4   22.90    2.30
   0  19  -4   18.70    2.10
   1 -19   4   17.50    1.80
   1 -19   4   18.60    2.40
  -1 -19  -4   16.90    2.10
   1  19   4   15.10    1.90
  -1  19  -4   18.70    2.30
   2 -19   4   31.60    2.40
  -2 -19  -4   33.00    2.80
   2 -19   4   31.10    2.80
   2  19   4   25.50    2.50
  -2  19  -4   31.80    2.80
   2  19   4   29.60    2.30
   3 -19   4   28.10    2.80
  -3 -19  -4   32.30    3.00
  -3 -19  -4   32.80    2.80
  -3  19  -4   30.80    2.60
  -3  19  -4   28.00    2.80
   3  19   4   30.70    2.70
   3  19   4   26.00    2.30
   4 -19   4   88.49    5.70
  -4 -19  -4   86.09    5.60
   4  19   4   87.49    5.40
  -4  19  -4   88.19    5.30
   4  19   4   91.79    5.20
  -4  19  -4   86.29    5.20
  -5 -19  -4   20.80    3.00
   5 -19   4   22.50    3.10
   5  19   4   19.70    2.70
  -5  19  -4   21.30    2.80
  -6 -20   4   34.70    4.40
   6 -20  -4   32.90    3.80
  -6  20   4   29.00    3.60
   6  20  -4   24.40    3.30
   5 -20  -4   13.40    2.50
  -5 -20   4   11.80    3.00
  -5  20   4   12.60    2.20
   5  20  -4   12.70    2.50
   4 -20  -4    3.10    1.60
  -4 -20   4    3.70    2.20
  -4  20   4    1.40    1.60
   4  20  -4    2.60    1.20
   4  20  -4    1.30    1.40
  -4  20   4    2.30    1.30
  -3 -20   4   20.50    3.00
   3 -20  -4   17.20    2.40
   3  20  -4   16.90    2.10
   3  20  -4   20.30    2.40
  -3  20   4   18.80    2.20
  -3  20   4   22.20    2.40
   2 -20  -4   46.20    3.60
  -2 -20   4   46.30    3.90
  -2  20   4   49.99    3.50
  -2  20   4   50.79    3.30
   2  20  -4   54.09    3.60
   2  20  -4   51.59    3.50
  -1 -20   4   57.09    3.90
   1 -20  -4   56.79    3.50
   1  20  -4   40.80    3.20
  -1  20   4   46.30    3.00
  -1  20   4   41.60    3.30
   1  20  -4   39.50    3.10
   0 -20   4   31.80    3.10
   0 -20  -4   33.90    2.80
   0 -20   4   35.60    2.60
   0  20   4   35.70    2.80
   0  20  -4   32.80    2.80
   1 -20   4   83.09    4.70
  -1 -20  -4   84.99    5.10
   1 -20   4   81.89    5.10
   1  20   4   93.69    4.60
  -1  20  -4   87.09    5.20
   1  20   4   89.19    5.00
   2 -20   4  100.89    5.90
  -2 -20  -4  103.19    5.70
   2 -20   4   95.59    5.30
   2  20   4  104.29    5.30
  -2  20  -4  100.19    5.70
   2  20   4   98.49    5.60
   3 -20   4   46.30    3.80
  -3 -20  -4   45.70    3.60
   3  20   4   54.49    3.50
  -3  20  -4   49.10    3.70
   3  20   4   51.49    3.60
   4 -20   4   14.40    2.50
  -4 -20  -4   16.80    2.40
  -4 -20  -4   16.40    2.60
   4  20   4   14.70    2.10
  -4  20  -4   14.30    2.30
  -4  20  -4   12.50    2.10
   5 -20   4    0.90    1.70
  -5 -20  -4    0.90    1.80
  -5  20  -4   -1.30    1.50
   5  20   4    1.90    1.70
   6 -21  -4    4.00    1.90
  -6 -21   4    5.90    3.00
   6  21  -4    4.50    1.90
  -6  21   4    5.70    2.20
   5 -21  -4   39.70    3.70
  -5 -21   4   40.00    4.70
   5  21  -4   47.90    4.10
  -5  21   4   41.30    3.80
  -4 -21   4   32.60    4.00
   4 -21  -4   33.40    3.50
  -4  21   4   39.90    3.10
   4  21  -4   36.30    3.40
  -4  21   4   35.40    3.30
   4  21  -4   39.10    3.00
   3 -21  -4   58.99    4.10
  -3 -21   4   52.99    4.30
   3  21  -4   50.79    3.90
   3  21  -4   50.49    3.60
  -3  21   4   53.69    3.60
  -3  21   4   49.90    3.60
   2 -21  -4   94.29    5.70
  -2 -21   4   98.99    6.10
   2  21  -4   93.29    5.50
   2  21  -4   97.19    5.50
  -2  21   4  101.39    5.30
  -2  21   4   95.29    5.40
  -1 -21   4   28.60    3.10
   1 -21  -4   32.90    2.70
   1  21  -4   22.50    2.50
  -1  21   4   20.40    2.00
  -1  21   4   22.10    2.50
   1  21  -4   23.40    2.30
   0 -21   4    7.20    1.80
   0 -21  -4    8.50    1.80
   0 -21   4    9.30    1.50
   0  21   4    6.80    1.60
   0  21   4   11.50    1.50
   0  21  -4    7.90    1.60
  -1 -21  -4   14.30    2.10
   1 -21   4   13.90    2.20
  -1  21  -4   11.70    2.10
   1  21   4    9.40    1.70
   1  21   4   13.00    1.50
   2 -21   4    6.30    1.80
   2 -21   4    8.40    1.70
  -2 -21  -4    7.60    1.70
   2  21   4    4.80    1.50
   2  21   4    4.80    1.20
  -2  21  -4    5.90    1.70
  -3 -21  -4   16.90    2.40
   3 -21   4   14.50    2.30
   3  21   4   13.50    2.00
  -3  21  -4   10.80    2.10
  -4 -21  -4   49.50    3.90
   4 -21   4   45.50    4.00
  -4  21  -4   47.00    3.70
   4  21   4   45.80    3.60
   5 -21   4   17.30    3.00
  -5 -21  -4   15.70    3.20
   5  21   4   13.10    2.50
   6 -22  -4   33.90    3.90
  -6 -22   4   27.80    4.30
   6  22  -4   24.30    3.40
  -6  22   4   26.60    3.50
  -5 -22   4   13.50    3.20
   5 -22  -4   19.60    3.00
   5  22  -4   19.80    2.90
  -5  22   4   19.50    2.70
   4 -22  -4   18.00    2.70
  -4 -22   4   13.90    2.80
  -4  22   4   15.10    2.30
  -4  22   4   16.10    2.10
   4  22  -4   15.00    2.10
   4  22  -4   17.50    2.60
   3 -22  -4    7.90    2.00
  -3 -22   4   10.60    2.60
   3  22  -4    6.70    1.80
  -3  22   4    8.50    1.70
   3  22  -4    6.90    1.70
  -3  22   4    8.40    1.70
  -2 -22   4   34.90    3.70
   2 -22  -4   32.20    3.00
  -2  22   4   38.30    2.80
   2  22  -4   29.80    3.00
   2  22  -4   35.50    3.00
  -2  22   4   33.80    3.00
   1 -22  -4  104.89    5.90
  -1 -22   4  113.49    5.90
  -1 -22   4  107.69    6.20
   1  22  -4  101.59    5.80
  -1  22   4   89.59    5.80
   1  22  -4  108.39    6.00
   0 -22   4  114.79    5.70
   0 -22   4  111.89    6.10
   0 -22  -4  120.69    6.10
   0  22  -4   92.39    5.80
   0  22   4   88.89    5.70
   0  22   4   97.79    5.30
  -1 -22  -4   62.99    4.10
   1 -22   4   57.69    4.00
   1  22   4   57.29    3.50
   1  22   4   55.49    4.00
  -1  22  -4   58.29    4.10
  -2 -22  -4   22.10    2.60
   2 -22   4   23.10    2.80
  -2  22  -4   27.10    2.80
   2  22   4   23.90    2.70
  -3 -22  -4   28.60    2.90
   3 -22   4   24.30    2.90
  -3  22  -4   20.20    2.70
   3  22   4   27.80    2.80
  -4 -22  -4    6.20    1.90
   4 -22   4    8.30    2.10
  -4  22  -4    4.30    1.70
   4  22   4    3.20    1.50
  -5 -22  -4    7.00    2.20
   5 -22   4    4.10    2.10
   5  22   4    6.20    2.10
  -5 -23   4   25.70    3.80
   5 -23  -4   32.50    3.80
  -5  23   4   32.80    3.60
   5  23  -4   32.50    3.60
  -4 -23   4   12.40    2.90
   4 -23  -4   11.70    2.40
  -4  23   4   15.00    2.30
  -4  23   4   11.00    1.90
   4  23  -4   10.30    1.90
   4  23  -4   13.20    2.50
   3 -23  -4   71.49    4.90
  -3 -23   4   71.99    5.20
  -3  23   4   66.09    4.30
  -3  23   4   71.69    4.50
   3  23  -4   66.89    4.70
   3  23  -4   70.09    4.50
   2 -23  -4  116.79    6.60
  -2 -23   4  120.99    7.10
   2  23  -4  117.79    6.50
   2  23  -4  111.29    6.40
  -2  23   4  116.19    6.00
  -2  23   4  108.69    6.30
   1 -23  -4   33.00    3.10
  -1 -23   4   35.90    2.90
  -1 -23   4   36.20    3.50
   1  23  -4   25.90    2.90
  -1  23   4   25.60    2.70
   0 -23  -4    1.80    1.30
   0 -23   4    3.10    1.50
   0 -23   4    2.10    1.20
   0  23   4    2.10    1.30
   0  23   4    1.90    1.00
   0  23  -4    0.10    1.30
   1 -23   4   10.40    1.70
   1 -23   4   11.10    2.10
  -1 -23  -4   12.10    2.10
   1  23   4    6.20    1.70
  -1  23  -4    8.40    1.90
   2 -23   4   10.50    2.10
  -2 -23  -4   11.60    2.00
  -2  23  -4    9.10    2.00
   2  23   4    6.90    1.70
  -3 -23  -4   19.70    2.60
   3 -23   4   17.30    2.60
  -3  23  -4   22.40    2.70
   3  23   4   20.20    2.50
   4 -23   4   33.80    3.50
  -4 -23  -4   33.10    3.40
  -4  23  -4   29.50    3.30
   4  23   4   29.40    3.00
  -5 -24   4    6.10    2.80
   5 -24  -4    6.20    2.40
   5  24  -4    6.50    2.10
  -5  24   4    6.20    2.10
  -4 -24   4    0.60    2.20
   4 -24  -4    1.40    1.80
  -4  24   4    0.30    1.30
   4  24  -4    0.30    1.50
  -4  24   4    0.60    1.50
   4  24  -4    0.50    1.30
   3 -24  -4    5.60    1.80
  -3 -24   4    5.60    2.40
  -3  24   4    8.20    1.70
   3  24  -4    6.00    1.70
  -3  24   4    7.20    1.80
   3  24  -4    6.60    1.90
   2 -24  -4   27.10    3.10
  -2 -24   4   30.80    3.60
  -2  24   4   30.70    2.60
   2  24  -4   35.20    3.20
   2  24  -4   30.60    2.90
  -2  24   4   28.80    2.80
   1 -24  -4   30.50    3.10
  -1 -24   4   30.70    2.80
  -1 -24   4   31.70    3.40
  -1  24   4   30.80    2.50
   1  24  -4   26.90    3.00
  -1  24   4   28.20    3.00
   0 -24   4   55.79    4.20
   0 -24  -4   60.29    4.10
   0 -24   4   61.09    3.90
   0  24  -4   49.80    4.10
   0  24   4   51.79    4.00
   1 -24   4   37.10    3.40
   1 -24   4   36.00    2.90
  -1 -24  -4   39.70    3.40
  -1  24  -4   34.40    3.40
   1  24   4   36.30    3.30
   2 -24   4    6.80    1.90
  -2 -24  -4    3.20    1.50
   2  24   4    3.20    1.50
  -2  24  -4    1.90    1.50
   3 -24   4   11.70    2.20
  -3 -24  -4   13.40    2.40
  -3  24  -4    9.30    2.00
   3  24   4    8.60    1.90
   4 -24   4    3.10    1.80
  -4 -24  -4    2.70    1.80
   4  24   4    0.60    1.40
  -4  24  -4    0.30    1.50
   5 -25  -4   30.00    3.70
  -5 -25   4   25.30    4.20
   5  25  -4   32.70    3.60
  -5  25   4   30.40    3.40
  -4 -25   4   25.00    3.50
   4 -25  -4   29.50    3.40
   4  25  -4   22.50    2.80
   4  25  -4   22.80    3.00
  -4  25   4   24.80    2.80
  -4  25   4   22.80    2.80
  -3 -25   4   23.80    3.40
   3 -25  -4   21.70    3.00
  -3  25   4   25.50    2.80
   3  25  -4   21.60    2.80
  -3  25   4   25.80    2.70
   3  25  -4   19.60    2.60
  -2 -25   4   66.79    5.00
   2 -25  -4   72.69    4.80
   2  25  -4   60.79    4.40
   2  25  -4   62.19    4.50
  -2  25   4   64.49    4.40
  -1 -25   4   14.90    2.70
   1 -25  -4   12.60    2.20
  -1 -25   4   19.70    2.40
   1  25  -4   14.90    2.40
  -1  25   4   14.00    2.30
   0 -25  -4   10.60    2.00
   0 -25   4   10.80    2.10
   0 -25   4   10.90    1.90
   0  25  -4    6.10    1.80
   0  25   4    8.30    1.90
  -1 -25  -4    6.00    1.70
   1 -25   4    5.20    1.60
   1 -25   4    7.50    2.00
  -1  25  -4    3.20    1.70
   1  25   4    2.10    1.50
  -2 -25  -4   21.70    2.80
   2 -25   4   18.40    2.60
   2  25   4   15.60    2.30
  -2  25  -4   17.30    2.70
  -3 -25  -4   14.00    2.50
   3 -25   4   13.30    2.40
  -3  25  -4   11.30    2.20
   3  25   4    7.90    2.00
  -4 -25  -4   13.00    2.50
   4 -25   4   14.90    2.70
   4  25   4   13.40    2.30
  -4  25  -4   13.60    2.40
   4 -26  -4    1.50    1.90
  -4 -26   4    0.40    2.40
   4  26  -4    4.50    1.90
  -4  26   4    3.80    1.70
   4  26  -4    2.60    1.70
  -4  26   4    3.30    1.60
   3 -26  -4   -0.20    1.60
  -3 -26   4   -1.80    2.00
   3  26  -4   -0.40    1.40
  -3  26   4    0.30    1.30
   3  26  -4   -1.40    1.40
  -3  26   4   -0.30    1.50
  -2 -26   4   12.30    2.80
   2 -26  -4   13.80    2.40
   2  26  -4   20.10    2.70
   2  26  -4   13.60    2.30
  -2  26   4   15.10    2.30
  -1 -26   4   27.50    2.90
  -1 -26   4   27.50    3.40
   1 -26  -4   28.00    3.20
   1  26  -4   26.30    3.00
  -1  26   4   23.60    2.80
   0 -26   4   40.20    3.40
   0 -26   4   42.80    3.70
   0 -26  -4   39.80    3.50
   0  26   4   42.40    3.60
   0  26  -4   35.20    3.60
  -1 -26  -4   25.70    3.10
   1 -26   4   20.00    2.50
   1 -26   4   25.00    3.00
   1  26   4   18.90    2.50
  -1  26  -4   17.70    2.50
  -2 -26  -4    6.10    1.90
   2 -26   4    7.80    2.00
  -2  26  -4    4.00    1.80
   2  26   4    4.10    1.70
  -3 -26  -4    6.20    2.00
   3 -26   4    6.90    2.10
  -3  26  -4    5.50    2.00
   3  26   4    4.40    1.70
  -4 -27   4   18.50    3.60
   4 -27  -4   18.70    2.90
   4  27  -4   19.10    3.10
   4  27  -4   18.10    2.60
  -4  27   4   17.20    2.60
  -3 -27   4   35.90    4.20
   3 -27  -4   37.40    3.80
   3  27  -4   32.00    3.50
   3  27  -4   29.10    3.30
  -3  27   4   29.60    3.30
  -2 -27   4   60.59    4.60
  -2 -27   4   63.69    5.10
   2 -27  -4   61.79    4.60
   2  27  -4   58.09    4.50
   2  27  -4   65.49    4.60
  -2  27   4   65.59    4.60
   1 -27  -4   10.00    2.20
  -1 -27   4   14.20    2.60
  -1 -27   4   13.90    2.30
  -1  27   4    7.80    1.90
   1  27  -4    8.10    2.10
   0 -27   4   19.20    2.70
   0 -27   4   20.70    2.60
   0 -27  -4   20.30    2.70
   0  27   4   16.60    2.50
   0  27  -4   15.30    2.60
  -1 -27  -4   12.10    2.20
   1 -27   4   12.00    2.10
   1 -27   4   13.30    2.40
  -1  27  -4   13.40    2.30
   1  27   4   11.00    2.20
  -2 -27  -4    8.00    2.10
   2 -27   4    6.20    2.00
   2  27   4    7.00    2.00
  -2  27  -4    5.50    1.90
   3 -27   4    4.10    1.90
  -3 -27  -4    4.30    1.90
  -3  27  -4    2.80    1.90
   3  27   4    6.10    1.90
   4  28  -4    3.30    1.90
   4  28  -4    2.10    1.70
  -4  28   4    3.80    1.80
   3 -28  -4    5.90    2.20
  -3 -28   4    5.10    2.50
  -3  28   4    5.50    1.80
   3  28  -4    7.50    2.20
   3  28  -4    5.20    2.00
  -2 -28   4    3.80    2.10
   2 -28  -4    5.30    2.00
  -2 -28   4    5.00    2.00
  -2  28   4    3.80    1.70
   2  28  -4    3.80    1.70
  -1 -28   4   14.50    2.40
   1 -28  -4   11.20    2.30
  -1 -28   4   15.70    2.80
  -1  28   4   15.60    2.60
   1  28  -4   13.80    2.40
   0 -28  -4   13.80    2.50
   0 -28   4   13.50    2.30
   0 -28   4   15.50    2.70
   0  28  -4   17.00    2.70
   0  28   4   14.10    2.30
   1 -28   4   18.70    2.60
  -1 -28  -4   20.80    3.00
   1 -28   4   23.30    3.00
   1  28   4   21.40    2.80
  -1  28  -4   21.00    2.90
  -2 -28  -4    6.00    2.00
   2 -28   4    5.80    2.00
  -2  28  -4    5.60    2.00
   2  28   4    6.90    2.00
   3 -29  -4   10.60    2.50
  -3 -29   4   12.60    3.10
   3  29  -4    6.50    2.10
   3  29  -4    9.10    2.30
  -3  29   4   11.30    2.40
  -2 -29   4    2.70    1.80
  -2 -29   4    3.90    2.30
   2 -29  -4    5.70    2.00
  -2  29   4    3.60    1.80
   2  29  -4    4.20    1.80
   1 -29  -4    0.10    1.60
  -1 -29   4    1.10    1.50
  -1 -29   4    2.00    1.90
   1  29  -4   -1.90    1.40
  -1  29   4   -0.60    1.50
   0 -29   4    7.60    2.00
   0 -29   4    6.80    2.10
   0 -29  -4    6.70    2.10
   0  29   4    5.10    1.90
   0  29  -4    5.30    2.10
   1 -29   4    2.80    1.70
  -1 -29  -4    0.40    1.40
  -1  29  -4    0.20    1.70
   1  29   4    0.20    1.60
   2 -29   4    3.10    1.80
  -2 -29  -4    1.60    1.90
   2  29   4    3.60    1.80
  -2  29  -4    2.40    1.80
  -2 -30   4    8.00    2.20
   2 -30  -4    6.20    2.30
  -2 -30   4    6.80    2.40
   2  30  -4    4.10    2.10
  -2  30   4    2.90    1.90
   1 -30  -4   15.10    2.80
  -1 -30   4   18.20    3.00
  -1 -30   4   15.40    2.60
   1  30  -4   14.00    2.60
  -1  30   4   18.20    2.80
   0 -30  -4   31.50    3.70
   0 -30   4   30.20    3.40
   0 -30   4   30.10    3.70
   0  30   4   25.40    3.20
   0  30  -4   27.80    3.40
   1 -30   4   20.00    3.00
  -1 -30  -4   14.70    2.70
  -1  30  -4   17.30    2.90
   1  30   4   13.00    2.40
  -1 -31   4    5.60    2.10
  -1 -31   4    3.90    1.90
   1 -31  -4    2.40    2.00
   1  31  -4    1.60    1.90
  -1  31   4    1.80    1.70
   0 -31   4   10.20    2.40
   0 -31   4    7.90    2.20
   0 -31  -4   10.60    2.40
   0  31   4    8.40    2.30
   0  31  -4    8.30    2.40
  -8   0   5   25.70    3.50
   8   0  -5   33.10    3.80
  -8   0   5   30.50    3.90
  -7   0   5   22.10    3.10
   7   0  -5   24.70    3.10
  -7   0   5   19.40    2.80
  -6   0   5    9.20    2.00
   6   0  -5    8.10    1.70
  -6   0   5    7.20    1.90
  -5   0   5    4.50    1.40
  -5   0   5    2.90    1.40
   5   0  -5    3.10    1.30
  -4   0   5  181.48    8.50
   4   0  -5  170.78    7.90
   4   0  -5  173.28    8.50
  -4   0   5  171.38    8.40
   3   0  -5  292.27   13.20
   3   0  -5  298.07   13.40
  -3   0   5  300.57   13.40
   2   0  -5  761.12   32.20
   2   0  -5  736.73   32.20
  -2   0   5  741.03   32.20
  -2   0   5  749.62   32.20
   1   0  -5 1074.79   45.10
  -1   0   5 1077.29   45.20
   1   0  -5 1017.00   45.30
   0   0   5  303.07   13.20
   0   0   5  303.17   13.10
   0   0  -5  293.97   12.80
   0   0  -5  286.07   13.30
   1   0   5   50.79    2.80
  -1   0  -5   44.10    2.80
   1   0   5   46.30    2.70
   2   0   5    1.80    0.90
   2   0   5    2.50    0.90
  -2   0  -5   -0.30    0.80
  -3   0  -5   29.00    2.20
   3   0   5   29.10    2.30
   3   0   5   27.90    2.50
   4   0   5    2.10    1.40
  -4   0  -5    1.20    1.00
  -4   0  -5    2.40    1.00
   5   0   5   26.10    3.20
  -5   0  -5   28.70    2.80
  -6   0  -5   23.90    2.90
   6   0   5   22.30    3.10
  -8  -1   5   -0.10    2.00
  -8  -1   5   -1.20    2.00
   8  -1  -5    2.30    1.90
   8   1  -5    2.10    1.80
  -8   1   5    1.40    2.00
  -8   1   5    0.00    2.10
  -7  -1   5   93.79    6.00
  -7  -1   5   96.29    6.20
   7  -1  -5  106.29    6.30
  -7   1   5   98.09    6.20
  -7   1   5   96.99    6.20
   7   1  -5  102.29    6.30
  -6  -1   5   13.70    2.20
  -6  -1   5   12.70    2.20
   6  -1  -5   11.50    2.10
  -6   1   5   13.30    2.20
  -6   1   5   10.00    2.00
   6   1  -5   12.40    2.20
  -5  -1   5  104.19    5.80
   5  -1  -5  106.69    5.90
  -5  -1   5  106.19    5.90
  -5   1   5  108.39    5.90
  -5   1   5  110.79    5.80
   5   1  -5  107.49    5.90
   4  -1  -5  701.93   30.40
  -4  -1   5  713.43   30.80
   4  -1  -5  703.03   30.90
  -4  -1   5  716.53   30.90
   4   1  -5  696.53   30.90
  -4   1   5  694.83   30.80
   4   1  -5  718.63   30.40
  -3  -1   5  428.06   19.20
   3  -1  -5  430.96   19.20
   3  -1  -5  444.06   19.00
  -3  -1   5  436.46   19.10
   3   1  -5  431.46   19.00
  -3   1   5  433.46   19.20
   3   1  -5  435.96   19.20
  -3   1   5  434.26   19.10
   2  -1  -5   74.09    3.80
   2  -1  -5   74.59    3.80
  -2  -1   5   75.69    3.80
   2   1  -5   74.99    3.90
   2   1  -5   73.39    3.80
  -2   1   5   75.39    3.90
  -2   1   5   74.59    3.90
   1  -1  -5   20.00    1.30
   1  -1  -5   15.20    1.40
  -1  -1   5   17.00    1.50
  -1  -1   5   16.40    1.40
  -1   1   5   16.70    1.40
  -1   1   5   18.00    1.50
   1   1  -5   15.90    1.40
   1   1  -5   15.10    1.20
   0  -1   5  254.37   11.80
   0  -1  -5  268.37   12.10
   0  -1  -5  276.77   11.60
   0  -1   5  258.87   12.00
   0   1   5  265.27   11.90
   0   1  -5  269.37   11.50
   0   1  -5  275.57   12.10
   1  -1   5   31.40    2.10
   1  -1   5   31.90    2.20
  -1  -1  -5   31.00    2.20
  -1  -1  -5   30.10    1.50
  -1   1  -5   37.10    2.30
   1   1   5   40.60    2.20
   2  -1   5  431.46   19.30
  -2  -1  -5  427.96   19.20
   2  -1   5  422.16   19.10
  -2   1  -5  435.86   19.20
   2   1   5  434.66   19.10
   2   1   5  451.05   19.40
  -3  -1  -5  473.75   20.80
   3  -1   5  467.45   20.90
   3  -1   5  473.75   21.20
  -3   1  -5  451.55   20.80
   3   1   5  487.05   21.20
   3   1   5  472.85   20.90
  -4  -1  -5   15.40    1.70
  -4  -1  -5   13.10    1.80
   4  -1   5   11.90    1.90
  -4   1  -5   10.20    1.40
  -4   1  -5    9.30    1.70
   4   1   5   10.70    2.00
   5  -1   5   56.69    4.30
  -5  -1  -5   52.19    3.80
   5   1   5   53.79    4.10
  -5   1  -5   52.69    3.80
   6  -1   5   11.50    2.50
  -6  -1  -5    7.80    2.00
   6   1   5   11.00    2.40
  -6   1  -5   12.00    2.30
   8  -2  -5   33.00    3.80
  -8  -2   5   31.20    4.00
  -8  -2   5   31.00    3.60
   8   2  -5   29.50    3.70
  -8   2   5   28.40    3.70
   7  -2  -5   33.80    3.30
  -7  -2   5   27.10    3.20
  -7  -2   5   27.00    3.40
   7   2  -5   28.20    3.40
  -7   2   5   30.20    3.30
  -7   2   5   33.10    3.50
  -6  -2   5   15.80    2.30
   6  -2  -5   13.20    2.10
  -6  -2   5   17.50    2.50
  -6   2   5   17.80    2.40
  -6   2   5   14.20    2.30
   6   2  -5   16.60    2.30
   5  -2  -5   40.40    3.20
  -5  -2   5   40.60    3.00
  -5  -2   5   44.60    3.30
   5   2  -5   41.70    3.10
  -5   2   5   39.40    3.10
   4  -2  -5  140.89    7.30
   4  -2  -5  144.79    6.80
  -4  -2   5  161.88    7.50
  -4  -2   5  153.98    7.20
   4   2  -5  143.39    6.80
   4   2  -5  138.89    7.30
  -4   2   5  143.89    7.20
  -4   2   5  146.19    7.20
  -3  -2   5  199.28    9.00
   3  -2  -5  194.78    8.80
   3  -2  -5  185.68    9.10
  -3  -2   5  196.08    9.20
   3   2  -5  187.78    9.10
  -3   2   5  198.38    9.00
  -3   2   5  193.88    9.10
   3   2  -5  196.88    8.80
  -2  -2   5  598.64   24.90
  -2  -2   5  576.64   25.00
   2  -2  -5  580.44   24.90
   2  -2  -5  590.44   24.90
   2   2  -5  564.84   24.90
   2   2  -5  548.95   24.90
  -2   2   5  558.84   24.90
  -2   2   5  570.64   24.80
   1  -2  -5  399.86   17.30
  -1  -2   5  381.66   17.30
  -1  -2   5  401.96   17.20
   1  -2  -5  399.46   17.10
  -1   2   5  390.06   17.10
   1   2  -5  390.66   17.00
  -1   2   5  397.56   17.20
   1   2  -5  380.76   17.30
   0  -2  -5  466.45   20.20
   0  -2   5  468.15   20.60
   0  -2   5  463.35   20.50
   0  -2  -5  486.65   20.70
   0   2   5  481.65   20.50
   0   2   5  489.55   20.50
   0   2  -5  462.95   20.10
   0   2  -5  448.26   20.60
   1  -2   5   83.79    4.00
  -1  -2  -5   75.59    4.10
   1  -2   5   83.29    4.20
  -1  -2  -5   77.19    3.50
   1   2   5   74.79    4.00
  -1   2  -5   77.89    4.10
   1   2   5   79.89    4.10
  -2  -2  -5   34.50    1.60
  -2  -2  -5   32.00    2.30
   2  -2   5   39.20    2.50
   2  -2   5   37.80    2.30
  -2   2  -5   24.30    2.20
   2   2   5   23.80    2.10
   2   2   5   27.50    2.10
  -3  -2  -5   22.40    2.00
   3  -2   5   23.70    2.30
   3   2   5   21.30    1.90
   3   2   5   25.20    2.40
  -3   2  -5   23.90    2.10
  -3   2  -5   23.90    2.20
   4  -2   5    6.50    1.70
  -4  -2  -5    6.60    1.40
  -4  -2  -5    6.90    1.20
   4   2   5    3.00    1.50
  -4   2  -5    3.10    1.20
  -4   2  -5    4.00    1.10
   5  -2   5   32.70    3.20
  -5  -2  -5   33.80    2.90
  -5   2  -5   34.00    3.00
   5   2   5   32.10    3.40
  -6  -2  -5   31.80    3.10
   6  -2   5   36.20    3.90
   6   2   5   28.60    3.40
  -6   2  -5   30.50    3.10
  -8  -3   5    6.80    2.60
  -8  -3   5    6.30    2.40
   8  -3  -5    5.50    2.30
  -8   3   5    7.10    2.30
   8   3  -5    6.20    2.30
   7  -3  -5   38.20    3.70
  -7  -3   5   41.50    4.00
  -7  -3   5   35.70    3.60
  -7   3   5   36.70    3.70
  -7   3   5   39.10    3.90
   7   3  -5   37.00    3.70
  -6  -3   5   45.40    3.80
  -6  -3   5   49.99    3.70
   6  -3  -5   45.60    3.60
  -6   3   5   50.99    3.90
   6   3  -5   50.59    3.80
  -5  -3   5  148.29    7.50
  -5  -3   5  158.68    7.90
   5  -3  -5  140.79    7.70
  -5   3   5  148.79    7.60
  -5   3   5  159.28    7.80
   5   3  -5  148.29    7.80
   4  -3  -5  356.76   16.30
  -4  -3   5  365.56   16.10
  -4  -3   5  374.56   16.50
   4  -3  -5  372.06   15.80
   4   3  -5  353.66   16.30
  -4   3   5  349.77   16.30
   4   3  -5  358.06   15.80
  -4   3   5  352.36   16.10
   3  -3  -5  228.18   10.30
   3  -3  -5  218.18   10.00
  -3  -3   5  219.28   10.40
  -3  -3   5  220.38   10.10
   3   3  -5  223.98   10.30
   3   3  -5  222.78   10.00
  -3   3   5  219.58   10.10
  -3   3   5  223.28   10.30
   2  -3  -5  110.79    5.20
  -2  -3   5  104.39    5.10
   2  -3  -5  108.39    5.20
  -2  -3   5  103.19    5.30
   2   3  -5  103.49    5.10
  -2   3   5  108.69    5.00
  -2   3   5  108.79    5.20
   2   3  -5   98.99    5.10
   1  -3  -5   65.99    3.50
  -1  -3   5   68.59    3.70
  -1  -3   5   67.59    3.40
   1  -3  -5   69.89    3.40
   1   3  -5   64.59    3.30
  -1   3   5   65.89    3.50
  -1   3   5   65.69    3.30
   1   3  -5   62.19    3.50
   0  -3   5   20.30    1.50
   0  -3  -5   23.40    1.40
   0  -3   5   24.50    1.80
   0  -3  -5   22.00    1.80
   0   3  -5   20.00    1.20
   0   3  -5   23.30    1.80
   0   3   5   21.90    1.50
   0   3   5   20.20    1.60
   1  -3   5  198.58    9.80
  -1  -3  -5  209.08    9.80
   1  -3   5  206.98    9.60
  -1  -3  -5  201.38    9.30
   1   3   5  227.58    9.80
   1   3   5  229.98    9.80
  -1   3  -5  218.48    9.80
   2  -3   5  575.04   26.10
  -2  -3  -5  610.04   26.20
  -2  -3  -5  617.34   25.70
   2  -3   5  590.74   26.40
   2   3   5  597.04   26.30
  -2   3  -5  607.44   26.20
   2   3   5  598.94   26.20
   3  -3   5  381.66   17.10
  -3  -3  -5  379.36   16.70
   3   3   5  363.36   16.70
   3   3   5  380.76   17.00
  -3   3  -5  363.36   16.70
  -3   3  -5  373.16   16.90
  -4  -3  -5   54.69    3.40
  -4  -3  -5   57.19    3.80
   4  -3   5   54.09    4.10
  -4   3  -5   58.19    3.80
  -4   3  -5   60.69    3.50
   4   3   5   63.19    4.00
  -5  -3  -5   52.89    3.80
   5  -3   5   51.39    4.10
   5   3   5   52.99    4.00
  -5   3  -5   55.99    3.90
   6  -3   5    8.30    2.20
  -6  -3  -5    7.90    2.00
   6   3   5    9.20    2.40
  -6   3  -5    7.40    1.80
  -8  -4   5   32.50    4.10
   8  -4  -5   41.30    4.20
  -8  -4   5   36.00    3.90
  -8   4   5   35.40    4.10
   8   4  -5   34.10    3.70
  -7  -4   5   32.80    3.40
   7  -4  -5   39.10    3.70
  -7  -4   5   29.70    3.70
   7   4  -5   33.90    3.60
  -7   4   5   34.00    3.70
  -7   4   5   33.20    4.70
   6  -4  -5   47.30    3.70
  -6  -4   5   42.80    3.80
  -6  -4   5   43.20    3.50
  -6   4   5   43.10    3.40
   6   4  -5   55.09    3.80
  -6   4   5   46.30    3.80
  -5  -4   5    5.00    1.40
  -5  -4   5    4.20    1.60
   5  -4  -5    1.90    1.40
  -5   4   5    3.70    1.50
  -5   4   5    3.50    1.30
   5   4  -5    3.60    1.30
  -4  -4   5  150.38    7.30
   4  -4  -5  149.29    7.00
  -4  -4   5  148.69    7.70
   4  -4  -5  151.18    7.60
  -4   4   5  152.38    7.60
   4   4  -5  152.78    7.00
   4   4  -5  149.59    7.50
  -4   4   5  156.78    7.30
   3  -4  -5  188.68    9.50
   3  -4  -5  217.28    9.80
  -3  -4   5  212.28    9.60
  -3  -4   5  217.38   10.00
   3   4  -5  213.58    9.50
  -3   4   5  212.08    9.50
   3   4  -5  206.08    9.80
  -3   4   5  215.88    9.80
   2  -4  -5  469.45   18.90
   2  -4  -5  453.55   18.90
  -2  -4   5  460.25   18.70
  -2  -4   5  451.15   19.00
   2   4  -5  409.56   18.70
  -2   4   5  386.66   18.50
  -2   4   5  394.06   18.80
   2   4  -5  404.86   18.80
  -1  -4   5  215.28    9.40
  -1  -4   5  211.48    9.00
   1  -4  -5  205.38    9.20
   1  -4  -5  209.48    9.10
  -1   4   5  190.18    9.10
  -1   4   5  191.98    8.90
   1   4  -5  190.88    9.20
   1   4  -5  189.68    8.90
   0  -4  -5  359.36   16.40
   0  -4  -5  339.07   16.00
   0  -4   5  362.66   16.50
   0  -4   5  355.36   16.20
   0   4   5  391.76   16.20
   0   4  -5  385.36   15.90
   0   4   5  379.26   16.30
   0   4  -5  389.96   16.50
  -1  -4  -5  132.39    5.70
   1  -4   5  131.09    6.00
   1  -4   5  126.59    6.20
  -1  -4  -5  133.89    6.20
   1   4   5  124.99    6.10
  -1   4  -5  108.19    6.10
  -2  -4  -5   79.89    3.80
   2  -4   5   87.29    4.50
  -2  -4  -5   83.99    4.40
   2  -4   5   82.69    4.20
   2   4   5   79.79    4.40
  -2   4  -5   70.79    4.20
   2   4   5   76.79    4.20
   3  -4   5   39.20    3.10
  -3  -4  -5   41.30    2.80
   3   4   5   40.30    3.00
  -3   4  -5   36.30    2.70
  -3   4  -5   42.00    2.90
   3   4   5   44.50    2.90
  -4  -4  -5   25.70    2.40
  -4  -4  -5   23.70    2.00
   4  -4   5   28.10    2.80
   4   4   5   21.60    2.60
  -4   4  -5   18.50    2.20
  -4   4  -5   23.20    2.00
  -5  -4  -5   24.90    2.50
   5  -4   5   28.30    3.20
  -5   4  -5   26.00    2.70
   5   4   5   24.20    3.00
   6  -4   5   30.20    3.70
  -6  -4  -5   25.70    3.00
  -6   4  -5   24.50    3.00
   6   4   5   30.70    3.70
   8  -5  -5   13.90    2.60
  -8  -5   5   12.30    2.70
  -8  -5   5   14.20    3.00
   8   5  -5   17.30    3.00
  -8   5   5   17.30    3.20
  -7  -5   5   52.19    4.60
  -7  -5   5   55.89    4.10
   7  -5  -5   53.69    4.20
   7   5  -5   46.50    4.00
  -7   5   5   51.09    4.40
  -6  -5   5   92.59    5.00
   6  -5  -5   84.39    5.20
  -6  -5   5   87.29    5.40
   6   5  -5   78.39    5.00
  -6   5   5   75.79    5.00
  -6   5   5   69.09    4.80
  -5  -5   5  176.08    8.40
   5  -5  -5  173.48    8.60
  -5  -5   5  181.58    8.90
  -5   5   5  164.68    8.60
  -5   5   5  169.38    8.30
   5   5  -5  160.38    8.60
   4  -5  -5  273.87   12.70
   4  -5  -5  283.67   12.20
  -4  -5   5  271.67   12.80
  -4  -5   5  272.97   12.40
   4   5  -5  265.67   12.60
  -4   5   5  266.67   12.30
   4   5  -5  274.87   12.10
  -4   5   5  270.37   12.60
  -3  -5   5  124.39    6.60
  -3  -5   5  125.59    6.10
   3  -5  -5  127.69    6.50
  -3   5   5  133.69    6.50
   3   5  -5  136.09    6.40
  -3   5   5  132.59    6.10
   3   5  -5  130.19    6.20
  -2  -5   5  187.08    8.70
   2  -5  -5  190.88    8.50
   2  -5  -5  187.58    8.50
  -2  -5   5  194.28    8.30
  -2   5   5  171.38    8.10
   2   5  -5  175.68    8.40
  -2   5   5  183.08    8.50
   2   5  -5  169.38    8.40
  -1  -5   5   35.50    2.00
   1  -5  -5   34.00    2.30
   1  -5  -5   33.60    2.10
  -1  -5   5   36.60    2.50
   1   5  -5   36.50    2.30
  -1   5   5   36.40    2.20
   1   5  -5   35.80    2.00
  -1   5   5   33.40    1.90
   0  -5   5  290.57   12.70
   0  -5   5  287.27   13.00
   0  -5  -5  314.67   12.60
   0  -5  -5  308.77   13.00
   0   5   5  273.87   12.60
   0   5  -5  272.07   12.40
   0   5  -5  271.17   12.90
   0   5   5  279.87   12.80
  -1  -5  -5  200.48    8.90
   1  -5   5  191.78    9.10
  -1  -5  -5  198.98    9.40
   1  -5   5  190.18    9.40
  -1   5  -5  209.68    9.40
   1   5   5  209.98    9.30
   1   5   5  206.18    9.20
   2  -5   5  634.04   27.90
  -2  -5  -5  646.34   28.00
  -2  -5  -5  655.43   27.60
   2  -5   5  633.24   28.20
   2   5   5  640.94   28.00
  -2   5  -5  655.73   28.00
   2   5   5  624.24   27.90
  -3  -5  -5  534.65   22.30
   3  -5   5  505.65   22.60
  -3   5  -5  496.25   22.20
   3   5   5  508.85   22.50
   3   5   5  498.85   22.20
  -3   5  -5  475.05   22.30
  -4  -5  -5   86.29    5.10
  -4  -5  -5   88.19    4.90
   4  -5   5   87.79    5.50
  -4   5  -5   99.09    5.00
  -4   5  -5   98.89    5.20
   4   5   5   95.99    5.40
  -5  -5  -5   49.70    3.70
   5  -5   5   50.49    4.20
   5   5   5   51.89    4.10
  -5   5  -5   46.80    3.60
   6  -5   5    5.80    2.00
  -6  -5  -5    3.90    1.70
  -6   5  -5    5.40    1.80
   6   5   5    7.70    2.30
  -8  -6   5   39.70    4.60
   8  -6  -5   39.90    3.90
   8   6  -5   42.50    4.30
  -8   6   5   38.50    4.10
   7  -6  -5   71.69    5.00
  -7  -6   5   62.49    4.60
  -7  -6   5   67.29    5.20
   7   6  -5   58.59    4.60
  -7   6   5   67.09    5.00
   6  -6  -5   24.90    2.90
  -6  -6   5   25.20    2.70
  -6  -6   5   26.10    3.20
  -6   6   5   22.30    2.90
   6   6  -5   26.30    2.90
  -5  -6   5    5.90    1.80
  -5  -6   5    6.10    1.40
   5  -6  -5    6.40    1.60
  -5   6   5    5.00    1.30
   5   6  -5    6.20    1.60
  -5   6   5    6.90    1.80
  -4  -6   5  152.08    7.10
   4  -6  -5  143.49    6.90
   4  -6  -5  138.69    7.40
  -4  -6   5  150.98    7.70
   4   6  -5  150.78    6.90
  -4   6   5  146.29    7.40
  -4   6   5  150.38    7.10
   4   6  -5  152.48    7.50
   3  -6  -5  236.38   11.00
  -3  -6   5  245.78   11.20
  -3  -6   5  245.68   10.70
   3   6  -5  235.58   10.90
  -3   6   5  227.88   11.00
  -3   6   5  231.48   10.50
   2  -6  -5  297.27   12.40
   2  -6  -5  292.17   12.40
  -2  -6   5  305.67   12.70
  -2  -6   5  312.27   12.20
   2   6  -5  243.98   12.30
  -2   6   5  257.47   12.40
   2   6  -5  254.67   12.30
  -2   6   5  242.38   11.90
   1  -6  -5  545.35   22.90
  -1  -6   5  527.95   22.50
  -1  -6   5  529.05   23.00
   1  -6  -5  530.25   22.70
   1   6  -5  519.25   22.80
  -1   6   5  504.05   22.70
  -1   6   5  499.85   22.30
   1   6  -5  519.05   22.50
   0  -6  -5  322.57   14.70
   0  -6  -5  317.87   14.40
   0  -6   5  336.57   14.80
   0  -6   5  331.57   14.40
   0   6   5  334.57   14.40
   0   6  -5  331.57   14.20
   0   6   5  330.87   14.60
   0   6  -5  327.17   14.70
  -1  -6  -5  292.37   12.40
   1  -6   5  284.07   12.90
  -1  -6  -5  273.67   12.70
   1  -6   5  279.87   12.50
  -1   6  -5  271.37   12.70
   1   6   5  280.47   12.60
   1   6   5  286.27   12.70
  -2  -6  -5  118.59    5.90
   2  -6   5  138.39    6.30
   2  -6   5  126.09    6.50
  -2  -6  -5  129.79    6.40
   2   6   5  131.59    6.40
  -2   6  -5  121.49    6.30
   2   6   5  132.99    6.30
  -3  -6  -5   32.00    2.50
   3  -6   5   31.00    2.70
   3   6   5   29.70    2.60
  -3   6  -5   33.80    2.50
   3   6   5   30.50    2.00
  -3   6  -5   31.90    2.50
   3   6   5   30.70    2.30
   4  -6   5   32.50    3.00
  -4  -6  -5   28.00    2.60
  -4  -6  -5   28.80    2.40
   4   6   5   26.60    2.80
  -4   6  -5   27.10    2.30
  -4   6  -5   24.80    2.40
  -5  -6  -5   31.50    2.90
   5  -6   5   29.30    3.10
   5   6   5   29.40    3.20
  -5   6  -5   25.20    2.80
   6  -6   5   24.20    3.40
  -6  -6  -5   24.40    2.90
  -6   6  -5   20.70    2.80
   6   6   5   24.80    3.30
   8  -7  -5   13.50    2.60
  -8  -7   5   15.80    3.30
   8   7  -5   14.30    2.70
  -8   7   5   13.90    3.00
   7  -7  -5   53.39    4.30
  -7  -7   5   49.80    4.20
  -7  -7   5   58.39    4.80
   7   7  -5   45.00    4.20
  -7   7   5   41.70    4.00
  -6  -7   5   78.49    4.70
   6  -7  -5   79.99    5.00
  -6  -7   5   85.09    5.50
  -6   7   5   71.99    5.10
   6   7  -5   70.99    5.00
   5  -7  -5  226.18   10.70
  -5  -7   5  226.48   10.30
  -5  -7   5  223.08   10.90
  -5   7   5  206.68   10.50
   5   7  -5  203.88   10.60
   4  -7  -5  329.57   14.90
  -4  -7   5  320.97   14.40
   4  -7  -5  327.37   14.30
  -4  -7   5  327.77   15.10
   4   7  -5  319.17   14.80
  -4   7   5  312.57   14.30
  -4   7   5  321.87   14.80
   4   7  -5  318.87   14.30
  -3  -7   5   75.69    4.50
  -3  -7   5   71.79    3.80
   3  -7  -5   78.69    4.30
  -3   7   5   75.49    4.20
  -3   7   5   77.29    3.70
   3   7  -5   74.79    4.20
  -2  -7   5   71.29    3.80
   2  -7  -5   64.39    3.40
   2  -7  -5   63.39    3.40
  -2  -7   5   66.59    3.10
   2   7  -5   54.09    3.20
  -2   7   5   53.39    2.80
   2   7  -5   57.89    3.30
  -2   7   5   51.99    3.30
   1  -7  -5    2.00    0.80
  -1  -7   5    3.70    0.70
   1  -7  -5    1.90    0.70
  -1  -7   5    1.40    0.90
   1   7  -5    1.90    0.60
  -1   7   5    1.90    0.40
   1   7  -5    2.20    0.80
  -1   7   5    1.20    0.70
   0  -7  -5  611.04   25.70
   0  -7   5  604.34   25.60
   0  -7   5  617.34   26.10
   0  -7  -5  609.74   26.00
   0   7   5  572.84   25.50
   0   7  -5  601.74   26.00
   0   7   5  570.84   25.80
   0   7  -5  570.34   25.40
  -1  -7  -5  321.37   14.10
   1  -7   5  318.57   14.20
   1  -7   5  318.97   13.80
  -1  -7  -5  329.87   13.70
  -1   7  -5  307.27   14.00
   1   7   5  285.77   13.70
   1   7   5  291.97   13.80
  -2  -7  -5  509.05   22.40
  -2  -7  -5  519.65   22.10
   2  -7   5  492.35   22.60
  -2   7  -5  517.55   22.40
  -2   7  -5  511.35   22.40
   2   7   5  507.75   22.40
   2   7   5  499.45   22.40
   3  -7   5  337.97   16.30
  -3  -7  -5  365.66   16.10
  -3   7  -5  365.16   16.10
   3   7   5  354.86   15.70
  -3   7  -5  354.76   16.00
   3   7   5  356.06   16.00
   3   7   5  354.76   16.20
  -4  -7  -5   93.69    5.50
  -4  -7  -5   93.29    5.30
   4  -7   5   96.49    5.80
   4   7   5  112.79    5.90
  -4   7  -5  104.89    5.60
  -4   7  -5  100.29    5.30
   5  -7   5   41.40    3.80
  -5  -7  -5   42.10    3.30
  -5   7  -5   37.10    3.30
   5   7   5   39.50    3.70
   6  -7   5    3.00    2.00
  -6  -7  -5    2.30    1.60
   6   7   5    1.90    1.90
  -6   7  -5    3.00    1.70
   7  -8  -5   42.80    3.80
  -7  -8   5   41.60    4.40
   7   8  -5   43.50    4.00
  -7   8   5   44.20    4.00
   6  -8  -5   16.20    2.50
  -6  -8   5   14.00    2.00
  -6  -8   5   15.80    2.80
  -6   8   5   11.60    2.40
   6   8  -5   13.20    2.20
  -5  -8   5   12.20    2.20
  -5  -8   5   15.70    1.80
   5  -8  -5   17.00    2.10
   5   8  -5   15.20    2.20
  -5   8   5   15.00    2.20
  -4  -8   5   58.09    4.00
  -4  -8   5   52.49    3.10
   4  -8  -5   50.39    3.10
   4  -8  -5   47.90    3.50
   4   8  -5   54.69    3.50
   4   8  -5   57.19    3.00
  -4   8   5   50.69    3.60
   3  -8  -5  296.17   13.10
  -3  -8   5  298.47   12.90
   3  -8  -5  281.17   13.30
  -3  -8   5  290.17   13.60
   3   8  -5  302.67   13.30
  -3   8   5  286.87   12.70
  -3   8   5  288.07   13.30
   2  -8  -5  561.64   23.10
  -2  -8   5  564.64   22.60
   2  -8  -5  547.25   23.00
  -2  -8   5  541.85   23.30
   2   8  -5  492.45   22.90
  -2   8   5  500.35   23.00
   2   8  -5  498.95   22.90
  -2   8   5  486.95   22.80
  -1  -8   5  683.83   28.60
   1  -8  -5  676.93   28.90
  -1  -8   5  697.03   29.20
   1  -8  -5  701.23   29.10
   1   8  -5  657.73   28.70
  -1   8   5  639.44   28.90
   1   8  -5  645.84   29.00
  -1   8   5  635.84   28.30
  -1   8   5  663.93   28.90
   0  -8  -5  434.76   19.20
   0  -8   5  435.86   18.80
   0  -8   5  430.06   19.30
   0  -8  -5  440.06   19.00
   0   8   5  440.66   18.70
   0   8  -5  433.06   19.20
   0   8  -5  422.16   18.70
   0   8   5  434.26   19.10
  -1  -8  -5  152.38    7.30
   1  -8   5  148.29    6.90
   1  -8   5  158.38    7.80
  -1  -8  -5  160.78    7.70
   1  -8   5  156.18    7.30
   1   8   5  161.48    7.30
   1   8   5  166.88    7.50
  -1   8  -5  163.48    7.70
  -2  -8  -5   40.10    2.40
   2  -8   5   48.50    3.10
  -2  -8  -5   42.20    2.80
  -2   8  -5   37.40    2.80
   2   8   5   40.00    2.60
  -2   8  -5   42.40    2.70
  -3  -8  -5   26.40    2.20
   3  -8   5   20.70    2.30
   3   8   5   22.50    2.30
   3   8   5   24.90    2.20
   3   8   5   21.90    1.80
  -3   8  -5   22.50    2.00
  -3   8  -5   21.00    2.10
  -4  -8  -5   26.00    2.30
   4  -8   5   26.70    2.90
  -4  -8  -5   24.00    2.30
   4   8   5   23.00    2.60
   4   8   5   24.80    2.30
  -4   8  -5   23.80    2.30
  -4   8  -5   24.20    2.40
  -5  -8  -5   38.60    3.20
   5  -8   5   37.40    3.80
   5   8   5   33.20    3.50
  -5   8  -5   39.40    3.10
   6  -8   5   24.30    3.50
  -6  -8  -5   28.00    3.10
   6   8   5   24.00    3.40
  -6   8  -5   25.40    3.10
  -7  -9   5   18.20    3.20
   7  -9  -5   17.90    2.80
  -7   9   5   12.20    2.70
   7   9  -5   12.50    2.60
  -6  -9   5   64.19    4.90
   6  -9  -5   58.79    4.20
   6   9  -5   58.49    4.40
  -6   9   5   60.79    4.40
  -5  -9   5  182.58    8.80
   5  -9  -5  183.78    9.40
  -5  -9   5  191.08    9.80
   5   9  -5  193.58    9.50
  -5   9   5  184.58    9.40
   4  -9  -5  322.87   14.60
  -4  -9   5  316.27   14.80
  -4  -9   5  310.57   14.00
   4  -9  -5  319.17   14.10
   4   9  -5  312.37   14.00
   4   9  -5  310.47   14.50
  -4   9   5  307.77   14.50
  -3  -9   5  263.97   11.70
   3  -9  -5  262.17   12.20
  -3  -9   5  253.77   12.50
   3  -9  -5  274.47   12.00
  -3   9   5  266.07   12.20
   3   9  -5  254.07   11.90
   3   9  -5  270.27   12.20
  -3   9   5  269.27   11.90
  -2  -9   5  138.19    6.10
   2  -9  -5  139.29    6.60
  -2  -9   5  134.69    6.90
  -2   9   5  130.99    6.50
  -2   9   5  133.39    6.60
   2   9  -5  135.59    6.50
   2   9  -5  127.49    6.40
   1  -9  -5   13.40    1.40
  -1  -9   5   11.20    1.00
  -1  -9   5   10.30    1.60
   1   9  -5   10.80    1.20
  -1   9   5   13.00    1.40
  -1   9   5   11.40    1.40
   1   9  -5   14.20    1.60
   0  -9   5  399.86   16.20
   0  -9   5  397.86   16.80
   0  -9  -5  378.96   16.40
   0   9  -5  342.77   16.50
   0   9  -5  368.96   16.10
   0   9   5  354.16   16.50
   0   9   5  359.56   16.40
   0   9   5  363.16   16.00
  -1  -9  -5  313.67   13.60
   1  -9   5  306.87   13.20
  -1  -9  -5  303.87   13.90
   1  -9   5  318.27   14.10
   1  -9   5  313.47   13.50
  -1   9  -5  298.27   13.80
   1   9   5  298.57   13.50
   1   9   5  288.87   13.70
  -2  -9  -5  431.36   18.40
  -2  -9  -5  410.56   18.70
   2  -9   5  411.16   19.00
  -2   9  -5  417.56   18.70
   2   9   5  415.66   18.60
  -2   9  -5  427.56   18.60
   3  -9   5  136.69    7.10
  -3  -9  -5  143.39    6.80
  -3  -9  -5  135.59    6.50
   3   9   5  134.99    6.80
  -3   9  -5  131.49    6.70
   3   9   5  125.69    6.60
  -3   9  -5  126.69    6.70
  -4  -9  -5  171.48    8.30
  -4  -9  -5  160.78    8.40
   4  -9   5  154.98    8.70
   4   9   5  172.68    8.40
   4   9   5  183.28    8.80
  -4   9  -5  172.08    8.30
  -4   9  -5  164.78    8.40
   5  -9   5   23.10    3.00
  -5  -9  -5   28.10    2.80
   5   9   5   22.80    2.90
  -5   9  -5   24.20    2.80
  -6  -9  -5    3.00    1.50
   6  -9   5    2.20    2.00
   6   9   5    6.00    2.00
  -6   9  -5    3.20    1.70
  -7 -10   5   31.80    4.00
   7 -10  -5   33.60    3.60
  -7  10   5   31.80    3.80
   7  10  -5   30.60    3.60
  -6 -10   5    7.20    2.20
   6 -10  -5   10.50    2.20
  -6  10   5    7.10    2.00
   6  10  -5   13.90    2.30
   5 -10  -5    7.40    1.80
  -5 -10   5    9.40    2.20
   5  10  -5    6.40    1.50
  -5  10   5    4.60    1.70
   4 -10  -5   44.80    2.80
  -4 -10   5   48.80    3.80
  -4 -10   5   43.00    2.70
   4 -10  -5   41.70    3.30
   4  10  -5   49.00    2.80
  -4  10   5   50.69    3.40
   4  10  -5   45.80    3.20
  -3 -10   5  287.87   12.50
  -3 -10   5  290.17   13.50
   3 -10  -5  273.97   13.10
   3  10  -5  281.57   13.10
  -3  10   5  283.47   12.80
   3  10  -5  293.27   12.90
  -3  10   5  284.47   13.10
  -2 -10   5  456.65   20.20
   2 -10  -5  448.66   19.90
  -2 -10   5  459.35   19.30
   2  10  -5  438.16   19.80
   2  10  -5  446.36   19.80
  -2  10   5  444.06   19.80
  -2  10   5  445.06   19.80
  -1 -10   5  627.94   27.20
   1 -10  -5  604.64   26.90
  -1 -10   5  629.64   26.50
   1  10  -5  604.24   26.70
   1  10  -5  622.84   27.00
  -1  10   5  610.34   26.90
  -1  10   5  621.24   26.90
   0 -10   5  289.57   14.40
   0 -10   5  293.17   13.80
   0 -10  -5  302.87   14.10
   0  10   5  328.07   14.20
   0  10   5  327.87   13.80
   0  10   5  337.07   14.30
   0  10  -5  330.97   14.40
   0  10  -5  324.27   13.90
   1 -10   5  104.19    5.20
  -1 -10  -5  100.69    5.30
   1 -10   5   92.99    4.90
   1 -10   5  103.19    5.70
  -1 -10  -5  102.59    5.60
   1  10   5  121.89    5.30
   1  10   5  123.69    5.60
   1  10   5  119.99    5.50
  -1  10  -5  112.89    5.60
   2 -10   5   65.19    3.90
  -2 -10  -5   58.79    3.30
  -2 -10  -5   58.49    3.60
   2  10   5   56.49    3.30
   2  10   5   58.99    3.40
  -2  10  -5   53.99    3.30
  -2  10  -5   51.69    3.50
  -3 -10  -5   17.10    1.90
   3 -10   5   17.00    2.30
  -3 -10  -5   19.20    1.80
   3  10   5   15.50    1.80
  -3  10  -5   14.50    1.80
   3  10   5   17.70    2.10
  -3  10  -5   16.60    2.00
  -4 -10  -5   42.70    3.00
   4 -10   5   35.20    3.30
  -4  10  -5   41.10    3.00
  -4  10  -5   37.60    2.90
   4  10   5   38.70    3.30
   4  10   5   41.70    3.10
   5 -10   5   35.20    3.50
  -5 -10  -5   29.60    2.80
  -5  10  -5   37.60    3.20
   5  10   5   29.90    3.40
   6 -10   5   25.40    3.50
  -6 -10  -5   28.60    3.10
  -6  10  -5   24.80    3.10
   6  10   5   26.00    3.50
   7 -11  -5   11.20    2.30
  -7 -11   5   14.80    3.10
   7  11  -5   10.90    2.40
  -7  11   5   12.40    2.70
   6 -11  -5   48.50    4.00
  -6 -11   5   48.10    4.50
  -6  11   5   47.00    4.10
   6  11  -5   47.20    3.80
   5 -11  -5  107.09    6.00
  -5 -11   5  102.69    6.30
   5  11  -5   97.69    5.80
  -5  11   5   95.99    5.80
   4 -11  -5  252.67   11.90
  -4 -11   5  248.18   12.20
  -4  11   5  242.58   11.80
   4  11  -5  244.58   11.80
  -4  11   5  247.78   11.30
   4  11  -5  255.77   11.30
  -3 -11   5  294.37   13.00
   3 -11  -5  301.77   13.80
  -3 -11   5  289.57   14.10
   3  11  -5  301.57   13.50
   3  11  -5  305.47   13.70
  -3  11   5  294.27   13.70
  -3  11   5  299.47   13.40
  -2 -11   5  296.57   13.90
  -2 -11   5  291.57   12.80
   2 -11  -5  306.47   13.50
  -2  11   5  292.17   13.40
   2  11  -5  291.47   13.40
  -2  11   5  290.77   13.30
   2  11  -5  300.67   13.40
  -1 -11   5   20.30    2.20
   1 -11  -5   19.30    1.80
  -1 -11   5   19.60    1.30
  -1  11   5   17.60    1.70
   1  11  -5   16.70    1.90
  -1  11   5   21.10    1.80
   1  11  -5   19.20    1.60
   0 -11   5  259.17   10.80
   0 -11   5  252.47   11.50
   0 -11  -5  261.77   11.20
   0  11   5  236.68   10.70
   0  11   5  240.08   11.30
   0  11   5  239.68   11.10
   0  11  -5  235.98   10.90
   0  11  -5  231.38   11.30
   1 -11   5  200.08    9.20
   1 -11   5  212.18   10.00
  -1 -11  -5  204.98    9.50
  -1  11  -5  210.98    9.80
  -1  11  -5  207.88    9.40
   1  11   5  205.78    9.40
   1  11   5  202.58    9.60
   1  11   5  212.48    9.70
   2 -11   5  297.97   14.20
  -2 -11  -5  308.27   13.80
  -2 -11  -5  295.67   14.00
   2  11   5  316.97   13.90
  -2  11  -5  299.87   14.00
  -2  11  -5  311.57   13.80
   2  11   5  310.27   13.90
  -3 -11  -5  122.19    6.30
  -3 -11  -5  130.19    6.50
   3 -11   5  127.79    6.90
   3  11   5  126.59    6.60
  -3  11  -5  123.09    6.50
  -3  11  -5  126.09    6.40
   3  11   5  127.99    6.40
   4 -11   5  165.28    9.00
  -4 -11  -5  161.08    8.50
  -4  11  -5  178.78    8.60
   4  11   5  184.08    9.00
  -4  11  -5  178.58    8.70
   4  11   5  178.08    8.70
   5 -11   5   32.10    3.50
  -5 -11  -5   25.20    2.70
   5  11   5   26.20    3.20
  -5  11  -5   26.20    2.90
   6 -11   5    2.90    2.00
  -6 -11  -5    5.60    1.80
  -6  11  -5    6.40    2.00
   6  11   5    8.20    2.50
  -7 -12   5   23.10    3.80
   7 -12  -5   26.80    3.30
   7  12  -5   21.20    3.10
  -7  12   5   19.70    3.10
   6 -12  -5    3.40    1.80
  -6 -12   5    4.50    2.30
  -6  12   5    7.80    2.10
   6  12  -5    8.50    2.10
  -5 -12   5    3.10    1.90
   5 -12  -5    2.50    1.40
   5  12  -5    0.80    1.20
  -5  12   5    1.20    1.70
  -4 -12   5   20.20    2.80
   4 -12  -5   22.80    2.50
   4  12  -5   23.40    2.40
   4  12  -5   22.80    2.00
  -4  12   5   22.20    2.00
  -4  12   5   23.10    2.50
  -3 -12   5  276.77   13.10
   3 -12  -5  272.37   12.70
   3  12  -5  282.67   12.40
   3  12  -5  269.17   12.60
  -3  12   5  267.17   12.60
  -3  12   5  265.67   12.40
  -2 -12   5  375.26   16.10
   2 -12  -5  371.96   16.90
  -2 -12   5  397.66   17.30
   2  12  -5  369.16   16.70
  -2  12   5  369.46   16.80
  -2  12   5  355.06   16.70
   2  12  -5  384.26   16.80
   1 -12  -5  768.22   32.50
  -1 -12   5  754.62   32.80
  -1 -12   5  757.12   31.90
  -1  12   5  747.53   32.40
  -1  12   5  732.13   32.40
   1  12  -5  738.33   32.50
   1  12  -5  724.53   32.20
   0 -12   5  210.18    9.20
   0 -12   5  203.38    9.90
   0 -12  -5  198.88    9.60
   0  12   5  213.38    9.60
   0  12  -5  206.08    9.30
   0  12   5  209.38    9.10
   0  12   5  204.78    9.70
   0  12  -5  201.58    9.70
   1 -12   5   74.29    3.90
   1 -12   5   82.59    4.70
  -1 -12  -5   78.09    4.40
  -1  12  -5   78.69    4.60
  -1  12  -5   84.19    4.20
   1  12   5   89.19    4.20
   1  12   5   87.89    4.40
   1  12   5   85.69    4.60
  -2 -12  -5   25.60    2.30
   2 -12   5   24.80    2.60
  -2 -12  -5   20.40    2.00
  -2  12  -5   21.40    2.20
   2  12   5   27.30    2.20
   2  12   5   25.60    2.20
  -2  12  -5   25.50    2.00
   2  12   5   29.50    2.20
   3 -12   5   16.90    2.30
  -3 -12  -5   12.80    1.60
  -3 -12  -5   14.30    1.90
  -3  12  -5   15.70    1.90
   3  12   5   15.20    1.80
  -3  12  -5   13.50    1.70
   3  12   5   12.30    1.80
   4 -12   5   31.30    3.10
  -4 -12  -5   32.40    2.70
  -4  12  -5   26.50    2.70
  -4  12  -5   35.60    2.80
   4  12   5   25.30    3.00
   4  12   5   32.90    2.70
  -5 -12  -5   26.00    2.60
   5 -12   5   29.60    3.60
  -5  12  -5   24.50    2.80
   5  12   5   22.80    3.00
  -6 -12  -5   27.30    3.10
   6 -12   5   29.60    3.80
   6  12   5   29.00    3.70
  -6  12  -5   24.80    3.10
   7 -13  -5    2.20    1.90
  -7 -13   5    1.40    2.20
   7  13  -5    2.40    1.80
  -7  13   5    1.90    2.20
  -6 -13   5   56.49    5.10
   6 -13  -5   57.79    4.50
  -6  13   5   61.79    4.70
   6  13  -5   58.49    4.30
   5 -13  -5  118.49    6.20
  -5 -13   5  109.69    6.50
   5  13  -5   91.79    5.90
  -5  13   5   98.69    5.90
  -4 -13   5  159.78    8.60
   4 -13  -5  168.88    8.30
  -4  13   5  157.98    8.10
   4  13  -5  151.98    8.10
  -4  13   5  166.58    7.80
   4  13  -5  163.58    7.80
  -3 -13   5  207.28   10.80
   3 -13  -5  216.88   10.50
  -3  13   5  223.48   10.40
   3  13  -5  224.68   10.20
  -3  13   5  220.18   10.20
   3  13  -5  220.08   10.40
  -2 -13   5  220.38   11.40
   2 -13  -5  231.48   11.10
  -2  13   5  245.28   11.00
   2  13  -5  246.18   11.10
  -2  13   5  240.78   11.00
   2  13  -5  240.18   11.10
  -1 -13   5   43.30    2.20
  -1 -13   5   41.50    3.40
   1 -13  -5   45.80    3.00
   1  13  -5   44.40    3.00
  -1  13   5   45.70    3.00
  -1  13   5   46.00    2.80
   1  13  -5   46.00    2.80
   0 -13   5  153.68    7.50
   0 -13  -5  159.08    7.20
   0  13   5  135.09    7.10
   0  13  -5  139.69    6.80
   0  13  -5  139.49    7.20
   0  13   5  141.39    7.00
   0  13  -5  145.69    6.60
   1 -13   5  345.77   15.00
  -1 -13  -5  366.86   15.40
   1 -13   5  332.87   15.70
  -1  13  -5  336.77   15.50
   1  13   5  349.07   15.10
   1  13   5  336.97   15.40
   1  13   5  331.57   15.30
  -1  13  -5  330.17   15.10
  -2 -13  -5  116.79    5.80
   2 -13   5  116.19    6.20
   2  13   5  113.29    5.90
  -2  13  -5  113.49    6.00
   2  13   5  111.29    5.80
   2  13   5  112.19    5.80
  -3 -13  -5   67.89    4.10
   3 -13   5   66.19    4.70
  -3 -13  -5   66.49    4.30
  -3  13  -5   81.29    4.30
   3  13   5   72.39    4.30
  -3  13  -5   79.99    4.40
   3  13   5   82.79    4.30
  -4 -13  -5  120.89    6.80
   4 -13   5  128.29    7.40
  -4  13  -5  128.49    6.90
  -4  13  -5  129.39    6.80
   4  13   5  138.49    7.20
   4  13   5  137.89    6.90
   5 -13   5   26.20    3.20
  -5 -13  -5   29.70    2.90
   5  13   5   28.00    3.30
  -5  13  -5   28.60    3.00
   6 -13   5   11.80    2.70
  -6 -13  -5    9.70    2.20
  -6  13  -5    8.70    2.30
   6  13   5   11.40    2.70
   7 -14  -5   23.20    3.20
  -7 -14   5   22.00    3.80
   7  14  -5   24.30    3.20
  -7  14   5   17.30    3.00
  -6 -14   5    7.50    2.40
   6 -14  -5   11.40    2.30
   6  14  -5   12.00    2.40
  -6  14   5    6.60    2.00
   5 -14  -5    4.20    1.70
  -5 -14   5    4.00    2.20
   5  14  -5    5.10    1.60
  -5  14   5    6.30    2.00
  -4 -14   5   42.90    3.70
   4 -14  -5   42.30    3.30
   4  14  -5   39.80    2.80
  -4  14   5   40.10    2.80
  -4  14   5   37.80    3.10
   4  14  -5   34.70    3.10
  -3 -14   5  143.89    7.30
   3 -14  -5  136.79    6.70
  -3  14   5  111.79    6.40
   3  14  -5  123.79    6.30
  -3  14   5  120.29    6.30
   3  14  -5  126.29    6.60
  -2 -14   5  274.17   13.00
   2 -14  -5  269.37   12.60
   2  14  -5  270.47   12.50
   2  14  -5  275.27   12.50
  -2  14   5  268.47   12.40
  -2  14   5  268.97   12.50
  -1 -14   5  479.15   22.00
   1 -14  -5  482.65   21.70
   1  14  -5  508.85   21.70
  -1  14   5  477.95   21.50
  -1  14   5  485.65   21.70
   1  14  -5  494.75   21.50
   0 -14   5  248.28   11.20
   0 -14   5  251.97   11.80
   0 -14  -5  255.67   11.50
   0  14   5  243.48   11.50
   0  14  -5  249.18   10.90
   0  14  -5  245.28   11.20
   0  14   5  244.98   11.30
   0  14  -5  237.68   11.50
   1 -14   5   80.39    4.20
   1 -14   5   82.79    4.90
  -1 -14  -5   80.59    4.60
   1  14   5   87.09    4.70
   1  14   5   83.19    4.40
  -1  14  -5   86.29    4.20
  -1  14  -5   81.69    4.80
   1  14   5   86.29    4.30
   2 -14   5    3.60    1.50
  -2 -14  -5    3.90    1.10
   2  14   5    4.20    1.10
  -2  14  -5    5.40    1.10
   2  14   5    4.80    1.20
   2  14   5    5.50    1.20
  -2  14  -5    3.20    1.30
  -3 -14  -5   21.10    2.10
   3 -14   5   22.80    2.70
  -3 -14  -5   21.90    2.20
  -3  14  -5   19.30    2.30
  -3  14  -5   21.20    2.10
   3  14   5   21.40    2.10
   4 -14   5   30.20    3.30
  -4 -14  -5   25.20    2.60
   4  14   5   27.80    2.60
   4  14   5   29.80    3.10
  -4  14  -5   31.40    2.80
  -4  14  -5   29.90    2.70
  -5 -14  -5   38.60    3.20
   5 -14   5   38.60    3.90
   5  14   5   32.90    3.60
  -5  14  -5   33.90    3.30
  -6 -14  -5   22.80    2.90
   6 -14   5   17.80    3.10
   6  14   5   18.80    3.20
  -6  14  -5   19.60    3.00
  -7 -15   5    2.40    2.80
   7 -15  -5    4.30    1.90
   7  15  -5    0.90    1.70
  -7  15   5   -0.20    2.10
  -6 -15   5   84.89    6.30
   6 -15  -5   85.29    5.70
   6  15  -5   87.29    5.80
  -6  15   5   88.29    5.80
   5 -15  -5  175.08    8.80
  -5 -15   5  167.98    9.20
  -5  15   5  149.09    8.50
   5  15  -5  159.08    8.60
  -4 -15   5  103.29    6.20
   4 -15  -5  105.19    5.70
  -4  15   5   90.09    5.50
   4  15  -5   88.59    5.00
  -4  15   5   94.59    5.00
   4  15  -5   87.99    5.40
   3 -15  -5  189.28    9.60
  -3 -15   5  175.78    9.90
   3  15  -5  192.68    9.50
   3  15  -5  209.38    9.40
  -3  15   5  202.78    9.30
  -3  15   5  196.98    9.50
   2 -15  -5  204.58   10.10
  -2 -15   5  205.88   10.50
   2  15  -5  209.98   10.00
  -2  15   5  210.98    9.90
   2  15  -5  220.08   10.00
  -2  15   5  206.88    9.90
   1 -15  -5   31.70    2.50
  -1 -15   5   25.90    2.70
   1  15  -5   32.50    2.50
  -1  15   5   30.80    2.40
   1  15  -5   28.90    2.20
  -1  15   5   30.90    2.40
   0 -15   5   62.99    4.30
   0 -15  -5   68.99    4.00
   0 -15   5   66.09    3.70
   0  15  -5   71.09    4.20
   0  15   5   73.89    4.20
   0  15   5   74.09    3.90
  -1 -15  -5  230.68   10.60
   1 -15   5  225.68   10.20
   1 -15   5  220.18   10.90
   1  15   5  217.48   10.60
  -1  15  -5  225.28   10.70
   1  15   5  229.68   10.40
  -1  15  -5  223.88   10.20
  -2 -15  -5  137.39    6.60
   2 -15   5  128.49    7.10
   2  15   5  129.09    6.50
   2  15   5  130.09    6.70
  -2  15  -5  127.99    6.40
  -2  15  -5  128.69    6.80
   2  15   5  130.59    6.50
   3 -15   5   66.09    4.60
  -3 -15  -5   68.19    4.30
  -3 -15  -5   68.69    4.20
   3  15   5   67.79    4.30
   3  15   5   76.99    4.40
  -3  15  -5   78.29    4.30
   3  15   5   76.49    4.30
  -3  15  -5   77.69    4.50
  -4 -15  -5  138.59    7.50
  -4 -15  -5  124.79    6.90
   4 -15   5  128.39    7.60
  -4  15  -5  128.89    7.00
   4  15   5  143.99    7.00
  -4  15  -5  132.29    7.00
   4  15   5  130.59    7.20
   5 -15   5   17.10    2.90
  -5 -15  -5   16.80    2.30
  -5  15  -5   15.30    2.40
   5  15   5   15.40    2.70
   7 -16  -5   26.70    3.60
  -7 -16   5   29.30    4.30
   7  16  -5   29.30    3.60
  -7  16   5   26.20    3.70
  -6 -16   5   17.90    3.40
   6 -16  -5   22.00    3.10
   6  16  -5   18.90    2.70
  -6  16   5   18.50    2.90
   5 -16  -5    7.90    2.00
  -5 -16   5    3.30    2.00
  -5  16   5    4.70    1.90
   5  16  -5    2.50    1.60
  -4 -16   5   30.80    3.50
   4 -16  -5   31.00    2.90
  -4  16   5   23.40    2.20
   4  16  -5   23.30    2.60
  -4  16   5   25.30    2.80
   3 -16  -5  101.79    5.50
  -3 -16   5   94.69    5.90
  -3  16   5   93.49    5.30
  -3  16   5   91.99    5.10
   3  16  -5   90.19    5.30
   3  16  -5   94.39    5.20
  -2 -16   5  255.17   12.80
   2 -16  -5  256.77   12.50
  -2  16   5  264.47   12.30
  -2  16   5  267.67   12.30
   2  16  -5  274.37   12.40
   2  16  -5  271.87   12.40
  -1 -16   5  151.88    7.70
   1 -16  -5  141.29    7.30
   1  16  -5  151.38    7.20
   1  16  -5  148.79    7.40
  -1  16   5  142.39    7.10
  -1  16   5  143.09    7.30
   0 -16  -5  120.99    6.30
   0 -16   5  111.59    5.90
   0 -16   5  117.79    6.60
   0  16  -5  128.49    6.40
   0  16   5  128.89    6.10
   0  16   5  119.69    6.30
   1 -16   5  129.29    7.20
  -1 -16  -5  135.09    6.90
   1 -16   5  125.79    6.50
  -1  16  -5  135.49    7.10
   1  16   5  149.29    7.10
  -1  16  -5  136.19    6.40
   1  16   5  148.39    6.80
   2 -16   5   29.80    3.00
  -2 -16  -5   29.10    2.50
   2  16   5   34.40    2.70
  -2  16  -5   27.30    2.70
   2  16   5   33.80    2.90
   2  16   5   36.10    2.50
  -2  16  -5   31.10    2.30
  -3 -16  -5    7.30    1.50
   3 -16   5    8.10    1.90
   3  16   5    9.00    1.70
  -3  16  -5    7.30    1.70
   3  16   5    8.50    1.70
   3  16   5    7.90    1.50
  -3  16  -5    7.10    1.40
  -4 -16  -5   42.90    3.20
  -4 -16  -5   36.40    3.20
   4 -16   5   38.10    3.80
   4  16   5   34.00    3.00
  -4  16  -5   37.70    3.10
   4  16   5   33.20    3.30
  -4  16  -5   37.60    3.20
   5 -16   5   21.90    3.10
  -5 -16  -5   21.00    2.50
  -5  16  -5   21.70    2.80
   5  16   5   22.50    3.10
   6 -17  -5   76.59    5.40
  -6 -17   5   69.49    5.70
   6  17  -5   69.69    5.20
  -6  17   5   72.89    5.30
  -5 -17   5   69.59    5.60
   5 -17  -5   77.99    5.00
   5  17  -5   68.19    4.90
  -5  17   5   70.19    4.70
  -4 -17   5   72.89    5.40
   4 -17  -5   75.39    4.80
  -4  17   5   77.09    4.80
   4  17  -5   69.89    4.70
  -4  17   5   79.79    4.50
   3 -17  -5  132.89    7.20
  -3 -17   5  130.39    7.60
  -3  17   5  134.89    6.90
  -3  17   5  135.69    7.00
   3  17  -5  136.89    7.10
   3  17  -5  139.49    6.90
   2 -17  -5   86.19    4.90
  -2 -17   5   89.19    5.40
  -2  17   5   73.89    4.50
  -2  17   5   76.59    4.50
   2  17  -5   75.79    4.50
   2  17  -5   79.09    4.60
  -1 -17   5   41.00    3.60
   1 -17  -5   48.30    3.20
  -1  17   5   47.90    3.30
  -1  17   5   48.70    3.10
   1  17  -5   46.80    3.30
   1  17  -5   45.50    3.00
   0 -17   5   55.69    4.00
   0 -17   5   62.89    3.50
   0 -17  -5   60.69    3.80
   0  17   5   58.49    3.80
   0  17  -5   64.19    3.90
   0  17   5   63.69    3.50
   1 -17   5  118.99    5.90
   1 -17   5  120.49    6.60
  -1 -17  -5  121.79    6.30
  -1  17  -5  120.69    6.40
   1  17   5  116.19    6.30
   1  17   5  112.39    5.90
  -2 -17  -5  123.19    6.50
   2 -17   5  115.19    6.70
  -2  17  -5  123.89    6.60
   2  17   5  129.79    6.60
  -2  17  -5  120.69    6.10
   2  17   5  126.89    6.30
   3 -17   5  110.19    6.80
  -3 -17  -5  121.19    6.50
  -3  17  -5  125.49    6.70
   3  17   5  126.29    6.60
   3  17   5  129.59    6.70
   3  17   5  128.59    6.40
  -4 -17  -5  102.49    6.00
  -4 -17  -5   97.69    6.00
   4 -17   5  105.69    6.50
  -4  17  -5  112.79    6.10
   4  17   5  109.99    5.90
  -4  17  -5  112.49    6.10
   4  17   5  105.39    6.30
   5 -17   5    6.30    2.10
  -5 -17  -5    8.10    1.80
  -5  17  -5    6.20    1.90
   5  17   5    7.70    2.30
  -6 -18   5    3.50    2.60
   6 -18  -5   11.20    2.60
   6  18  -5   10.80    2.40
  -6  18   5    7.30    2.20
  -5 -18   5    2.40    2.20
   5 -18  -5    5.00    1.80
   5  18  -5    3.40    1.70
  -5  18   5    5.80    1.80
  -4 -18   5   11.10    2.40
   4 -18  -5   11.30    2.10
  -4  18   5    8.50    1.60
  -4  18   5   10.40    2.00
   4  18  -5    6.50    1.70
   4  18  -5    7.40    1.50
   3 -18  -5   50.79    3.80
  -3 -18   5   51.39    4.30
   3  18  -5   50.19    3.40
  -3  18   5   49.70    3.40
  -3  18   5   49.90    3.40
   3  18  -5   46.70    3.40
   2 -18  -5  213.98   11.20
  -2 -18   5  214.28   11.60
   2  18  -5  247.88   11.20
  -2  18   5  242.68   11.00
  -2  18   5  239.98   11.20
   2  18  -5  241.68   11.20
   1 -18  -5  196.98    9.80
  -1 -18   5  194.68   10.20
   1  18  -5  201.38    9.70
  -1  18   5  213.38    9.60
  -1  18   5  211.48    9.90
   1  18  -5  200.48    9.90
   0 -18   5  103.99    6.10
   0 -18   5  107.69    5.50
   0 -18  -5  110.09    5.90
   0  18   5  109.29    5.60
   0  18  -5  109.19    6.00
   0  18   5  105.99    5.80
  -1 -18  -5   90.09    5.20
   1 -18   5   94.99    5.60
   1 -18   5   89.99    5.00
  -1  18  -5   88.79    5.30
   1  18   5   96.79    5.30
   1  18   5   96.09    4.90
   2 -18   5   44.00    3.60
  -2 -18  -5   40.70    3.20
  -2  18  -5   40.40    3.30
   2  18   5   43.80    3.20
   2  18   5   46.00    3.00
  -3 -18  -5    0.90    1.20
   3 -18   5    2.90    1.60
   3  18   5    2.50    1.20
  -3  18  -5    2.10    1.20
   3  18   5   -0.30    1.10
  -3  18  -5    1.50    1.40
   4 -18   5   22.30    3.10
  -4 -18  -5   26.60    2.70
  -4 -18  -5   21.40    2.80
  -4 -18  -5   27.00    2.80
   4  18   5   20.20    2.40
  -4  18  -5   23.20    2.70
   4  18   5   24.60    3.00
  -4  18  -5   22.60    2.60
   5 -18   5   14.90    2.80
  -5 -18  -5   13.60    2.50
  -5 -18  -5   11.50    2.40
  -5  18  -5   12.20    2.30
   5  18   5   10.60    2.50
   6 -19  -5   35.20    3.90
  -6 -19   5   33.90    4.50
  -6  19   5   34.70    3.60
   6  19  -5   33.50    3.80
   5 -19  -5   43.20    3.90
  -5 -19   5   38.80    4.20
   5  19  -5   37.90    3.70
  -5  19   5   42.00    3.60
   4 -19  -5   34.20    3.40
  -4 -19   5   36.30    4.10
  -4  19   5   38.20    3.00
   4  19  -5   38.90    3.40
   4  19  -5   38.60    3.00
  -4  19   5   40.10    3.40
  -3 -19   5   55.79    4.80
   3 -19  -5   59.69    4.30
  -3  19   5   72.39    4.20
   3  19  -5   66.19    4.20
  -3  19   5   72.49    4.30
   3  19  -5   68.69    4.40
  -2 -19   5   47.00    4.10
   2 -19  -5   50.09    3.80
   2  19  -5   57.79    3.80
   2  19  -5   55.99    3.70
  -2  19   5   57.19    3.60
  -2  19   5   56.99    3.70
   1 -19  -5   36.90    2.90
  -1 -19   5   30.40    3.10
  -1  19   5   34.40    2.90
   1  19  -5   30.10    2.90
   1  19  -5   31.90    2.60
  -1  19   5   37.10    2.60
   0 -19   5    9.90    1.50
   0 -19   5    9.90    1.90
   0 -19  -5    6.90    1.50
   0  19  -5    7.50    1.60
   0  19   5    7.30    1.30
   0  19   5    7.80    1.70
  -1 -19  -5  116.39    6.10
   1 -19   5  112.19    6.40
   1  19   5  112.19    5.70
   1  19   5  106.49    6.10
  -1  19  -5  110.39    6.20
   2 -19   5   92.39    5.70
  -2 -19  -5   94.59    5.40
  -2  19  -5   91.99    5.50
   2  19   5   89.09    5.30
   2  19   5   96.99    5.10
   3 -19   5  131.09    7.90
  -3 -19  -5  138.69    7.60
   3  19   5  153.88    7.30
  -3  19  -5  152.68    7.70
   3  19   5  142.29    7.50
  -4 -19  -5   65.29    4.40
  -4 -19  -5   65.99    4.50
   4 -19   5   67.19    5.00
   4  19   5   68.79    4.30
  -4  19  -5   67.99    4.60
  -4  19  -5   67.49    4.40
   5 -19   5    7.80    2.50
  -5  19  -5    7.60    2.00
   6 -20  -5   11.10    2.60
  -6 -20   5    5.90    2.70
   6  20  -5   11.70    2.60
  -6  20   5   10.30    2.60
   5 -20  -5    5.40    2.00
  -5 -20   5    3.30    2.40
   5  20  -5    4.30    1.80
  -5  20   5    3.90    2.00
  -4 -20   5   14.40    2.90
   4 -20  -5   10.00    2.00
   4  20  -5    9.40    2.10
  -4  20   5    9.70    1.80
   4  20  -5   10.60    1.80
  -4  20   5   10.70    2.10
   3 -20  -5   24.10    2.80
  -3 -20   5   22.50    3.20
   3  20  -5   15.30    2.20
  -3  20   5   22.80    2.50
  -3  20   5   18.50    2.20
   3  20  -5   18.40    2.20
  -2 -20   5   62.39    4.80
   2 -20  -5   61.49    4.30
   2  20  -5   69.59    4.20
  -2  20   5   61.89    4.10
  -2  20   5   66.79    4.00
   2  20  -5   66.39    4.30
  -1 -20   5   31.90    3.10
   1 -20  -5   27.30    2.60
  -1  20   5   31.50    2.80
  -1  20   5   30.70    2.50
   1  20  -5   30.40    2.60
   1  20  -5   33.90    2.90
   0 -20   5   63.39    4.00
   0 -20   5   63.19    4.60
   0 -20  -5   64.39    4.30
   0  20   5   70.29    4.40
   0  20   5   75.69    4.00
   0  20  -5   68.29    4.40
  -1 -20  -5  117.89    6.60
   1 -20   5  120.49    6.90
  -1  20  -5  115.99    6.70
   1  20   5  128.19    6.70
   1  20   5  125.99    6.20
  -2 -20  -5   41.40    3.30
   2 -20   5   40.10    3.50
   2  20   5   40.60    3.30
  -2  20  -5   47.20    3.60
   2  20   5   43.00    3.00
   3 -20   5    6.40    1.90
  -3 -20  -5    4.40    1.60
   3  20   5    7.00    1.50
   3  20   5    6.50    1.60
  -3  20  -5    5.50    1.70
  -4 -20  -5    7.70    1.90
   4 -20   5    6.90    2.10
  -4 -20  -5    7.20    1.80
   4  20   5    7.00    1.80
  -4  20  -5    6.10    1.80
   5 -20   5   10.40    2.60
  -6 -21   5   22.00    3.90
   6 -21  -5   20.90    3.30
   6  21  -5   19.40    3.10
  -6  21   5   20.70    3.20
  -5 -21   5   42.60    4.60
   5 -21  -5   51.89    4.40
   5  21  -5   50.99    4.30
  -5  21   5   51.49    4.20
   4 -21  -5   36.80    3.50
  -4 -21   5   33.50    3.80
  -4  21   5   31.20    2.80
  -4  21   5   29.30    3.10
   4  21  -5   32.00    2.90
   4  21  -5   25.60    2.90
   3 -21  -5   47.00    3.90
  -3 -21   5   46.90    4.50
  -3  21   5   52.79    3.70
   3  21  -5   51.99    3.70
  -3  21   5   52.09    3.70
   3  21  -5   52.49    3.80
   2 -21  -5   28.40    2.90
  -2 -21   5   29.00    3.50
  -2  21   5   31.90    3.00
  -2  21   5   36.40    2.80
   2  21  -5   34.90    2.90
   2  21  -5   31.80    3.00
  -1 -21   5   71.69    4.90
   1 -21  -5   67.19    4.50
   1  21  -5   66.19    4.50
  -1  21   5   68.59    4.40
  -1  21   5   68.19    4.10
   1  21  -5   69.59    4.20
   0 -21   5   18.10    1.90
   0 -21   5   19.90    2.70
   0 -21  -5   23.70    2.50
   0  21   5   15.00    2.10
   0  21   5   17.10    1.90
   0  21  -5   18.50    2.40
  -1 -21  -5   34.00    3.00
   1 -21   5   31.30    3.20
  -1  21  -5   29.80    3.10
   1  21   5   33.10    3.00
   1  21   5   29.80    2.40
   2 -21   5   50.79    4.10
  -2 -21  -5   54.19    3.80
   2  21   5   47.70    3.70
  -2  21  -5   52.29    4.00
   3 -21   5   53.59    4.30
  -3 -21  -5   53.89    4.00
   3  21   5   54.69    4.00
  -3  21  -5   58.39    4.30
   4 -21   5   27.40    3.50
  -4 -21  -5   27.40    3.00
   4  21   5   30.00    3.00
  -4  21  -5   30.30    3.20
   5 -22  -5    0.20    1.60
  -5 -22   5    0.30    2.40
   5  22  -5    2.20    1.70
  -5  22   5    4.00    1.90
   4 -22  -5   -0.30    1.70
  -4 -22   5    1.00    2.20
  -4  22   5    0.50    1.20
   4  22  -5    0.10    1.30
   4  22  -5    0.30    1.40
  -4  22   5    0.60    1.30
   3 -22  -5    9.00    2.10
  -3 -22   5   11.00    2.50
  -3  22   5    9.50    1.80
   3  22  -5    7.90    1.80
   3  22  -5    9.20    2.00
  -3  22   5    5.90    1.60
  -2 -22   5   79.89    5.60
   2 -22  -5   82.29    5.20
   2  22  -5   83.19    5.00
   2  22  -5   82.09    5.00
  -2  22   5   79.99    4.70
  -2  22   5   76.59    4.90
   1 -22  -5   46.10    3.60
  -1 -22   5   49.50    4.00
  -1 -22   5   50.79    3.40
  -1  22   5   41.10    3.40
   1  22  -5   40.00    3.20
  -1  22   5   42.60    3.10
   1  22  -5   42.90    3.60
   0 -22  -5   59.79    4.20
   0 -22   5   58.89    4.40
   0  22   5   61.39    4.20
   0  22   5   63.19    3.70
   0  22  -5   57.69    4.20
   1 -22   5   80.09    5.30
  -1 -22  -5   77.59    5.00
   1  22   5   83.99    5.10
  -1  22  -5   86.49    5.30
   2 -22   5   24.70    2.90
  -2 -22  -5   23.80    2.70
   2  22   5   18.60    2.70
   2  22   5   28.90    2.90
  -2  22  -5   27.30    3.00
   3 -22   5    3.90    1.80
  -3 -22  -5    1.20    1.40
   3  22   5    2.70    1.50
  -3  22  -5    3.10    1.70
   4 -22   5    4.60    2.00
  -4 -22  -5    5.20    1.80
  -4  22  -5    2.70    1.70
   4  22   5    4.10    1.70
   5 -23  -5   32.30    3.80
  -5 -23   5   23.00    3.90
  -5  23   5   31.00    3.40
   5  23  -5   30.70    3.60
  -4 -23   5   24.80    3.70
   4 -23  -5   31.50    3.50
  -4  23   5   21.60    2.70
   4  23  -5   17.10    2.40
   4  23  -5   18.60    2.80
  -4  23   5   18.50    2.50
   3 -23  -5   38.40    3.50
  -3 -23   5   32.70    3.80
   3  23  -5   33.90    3.20
   3  23  -5   35.40    3.30
  -3  23   5   36.10    3.10
  -3  23   5   34.60    3.20
   2 -23  -5   25.80    2.80
  -2 -23   5   17.10    2.80
  -2  23   5   24.10    2.40
   2  23  -5   22.70    2.70
  -2  23   5   23.80    2.60
   2  23  -5   25.40    2.70
  -1 -23   5   16.40    2.20
  -1 -23   5   16.10    2.70
   1 -23  -5   15.90    2.40
  -1  23   5   13.90    2.20
  -1  23   5   16.40    2.00
   1  23  -5   15.90    2.20
   0 -23   5    1.50    0.80
   0 -23   5    7.80    2.00
   0 -23  -5   10.40    2.00
   0  23  -5    4.70    1.60
   0  23   5    7.60    1.80
   0  23   5    3.80    1.00
  -1 -23  -5   28.30    2.90
   1 -23   5   28.90    3.20
   1  23   5   26.10    2.40
   1  23   5   27.60    3.00
  -1  23  -5   25.40    2.90
  -2 -23  -5   20.60    2.60
   2 -23   5   19.50    2.70
   2  23   5   20.00    2.50
  -2  23  -5   19.20    2.60
   3 -23   5   25.50    3.30
  -3 -23  -5   27.80    3.00
  -3  23  -5   29.10    3.30
   3  23   5   31.40    3.10
  -4 -23  -5   19.00    2.80
   4 -23   5   15.80    2.80
  -4  23  -5   20.00    2.80
   4  23   5   19.20    2.60
  -5 -24   5    7.90    3.10
   5 -24  -5    4.60    2.20
  -5  24   5   10.90    2.40
   5  24  -5    5.20    2.10
  -4 -24   5    3.70    2.20
   4 -24  -5    3.90    2.00
   4  24  -5    1.80    1.60
  -4  24   5    1.80    1.40
   4  24  -5    0.50    1.40
  -4  24   5    3.40    1.60
  -3 -24   5   10.50    2.80
   3 -24  -5   10.20    2.20
   3  24  -5    8.30    2.00
  -3  24   5    9.40    1.90
  -3  24   5    8.90    1.80
   3  24  -5    8.70    2.00
   2 -24  -5   55.89    4.20
  -2 -24   5   52.19    4.40
  -2  24   5   51.89    3.70
   2  24  -5   54.59    4.10
   2  24  -5   58.59    4.20
  -2  24   5   51.89    4.00
  -1 -24   5   49.20    3.70
   1 -24  -5   52.39    4.00
  -1 -24   5   46.70    4.20
   1  24  -5   46.70    3.90
  -1  24   5   48.50    3.30
  -1  24   5   49.20    3.80
   0 -24   5   68.29    4.40
   0 -24  -5   75.19    4.70
   0 -24   5   65.19    4.90
   0  24  -5   74.69    5.00
   0  24   5   71.89    4.60
  -1 -24  -5   15.80    2.40
   1 -24   5   16.90    2.60
   1  24   5   17.70    2.50
  -1  24  -5   18.60    2.70
  -2 -24  -5   10.90    2.20
   2 -24   5   18.70    2.80
   2  24   5   15.00    2.40
  -2  24  -5   17.00    2.60
   3 -24   5   -0.50    1.60
  -3 -24  -5   -0.40    1.40
   3  24   5    1.10    1.40
  -3  24  -5    0.70    1.50
   4 -25  -5    3.90    2.00
  -4 -25   5    1.60    2.50
   4  25  -5    4.90    1.80
  -4  25   5    6.60    1.80
  -4  25   5    4.30    1.80
   4  25  -5    5.00    1.80
   3 -25  -5   31.50    3.50
  -3 -25   5   35.00    4.20
  -3  25   5   28.60    3.20
  -3  25   5   32.90    3.00
   3  25  -5   35.30    3.40
   3  25  -5   24.40    3.00
   2 -25  -5   21.10    2.90
  -2 -25   5   17.10    2.90
   2  25  -5   20.50    2.70
  -2  25   5   19.20    2.60
   2  25  -5   21.00    2.70
  -2  25   5   20.80    2.40
  -1 -25   5    8.50    1.80
   1 -25  -5    6.00    1.80
  -1 -25   5    8.10    2.30
  -1  25   5    6.20    1.70
  -1  25   5    4.10    1.10
   1  25  -5    5.90    1.90
   0 -25   5    3.70    1.90
   0 -25  -5    2.40    1.60
   0 -25   5    2.30    1.40
   0  25  -5    1.70    1.60
   0  25   5    3.90    1.70
  -1 -25  -5   25.10    3.00
   1 -25   5   24.00    3.10
   1  25   5   23.60    2.90
  -1  25  -5   25.00    3.00
   2 -25   5    6.30    2.00
  -2 -25  -5    6.70    1.90
  -2  25  -5    5.50    1.90
   2  25   5    4.40    1.70
  -3 -25  -5   15.40    2.60
   3 -25   5   17.10    2.80
  -3  25  -5   17.00    2.70
   3  25   5   16.50    2.50
  -4 -26   5    0.60    2.40
   4 -26  -5    4.80    2.10
  -4  26   5    4.70    1.90
  -4  26   5    2.40    1.60
   4  26  -5    4.00    2.00
   4  26  -5    3.10    1.80
  -3 -26   5   12.30    3.10
   3 -26  -5   14.30    2.60
  -3  26   5   12.70    2.30
   3  26  -5   11.60    2.20
   3  26  -5   11.60    2.30
  -3  26   5   11.50    2.00
  -2 -26   5   39.40    4.10
   2 -26  -5   36.40    3.70
   2  26  -5   36.00    3.60
  -2  26   5   40.40    3.40
  -2  26   5   34.30    3.30
   2  26  -5   41.60    3.70
  -1 -26   5   18.60    2.90
   1 -26  -5   21.20    2.90
  -1 -26   5   21.70    2.60
   1  26  -5   19.60    2.90
  -1  26   5   25.00    2.90
   0 -26  -5   28.10    3.20
   0 -26   5   25.80    2.90
   0 -26   5   29.20    3.30
   0  26   5   23.90    2.90
   0  26  -5   22.70    3.10
   1 -26   5    6.90    2.00
  -1 -26  -5    4.00    1.80
   1  26   5    5.40    1.80
  -1  26  -5    5.40    2.00
  -2 -26  -5    5.30    2.00
   2 -26   5    5.90    2.10
   2  26   5    3.80    1.70
  -2  26  -5    6.50    2.10
   3 -26   5    1.70    1.80
  -3 -26  -5    1.30    1.60
   3  26   5    1.40    1.70
  -3  26  -5    0.40    1.70
   4 -27  -5   16.70    2.90
  -4 -27   5   13.40    3.40
   4  27  -5   21.70    3.20
   4  27  -5   18.90    2.70
  -4  27   5   22.80    2.70
  -4  27   5   18.60    2.70
   3 -27  -5   42.40    4.10
  -3 -27   5   44.50    4.50
   3  27  -5   36.40    3.90
   3  27  -5   41.70    4.00
  -3  27   5   41.70    3.80
  -2 -27   5    1.10    1.70
  -2 -27   5    2.60    2.00
   2 -27  -5    1.80    1.70
  -2  27   5    2.20    1.50
   2  27  -5    3.20    1.80
   2  27  -5    3.80    1.80
  -1 -27   5    2.50    1.60
  -1 -27   5    2.70    1.90
   1 -27  -5    0.30    1.60
   1  27  -5    0.20    1.60
  -1  27   5    0.40    1.50
   0 -27  -5    2.00    1.70
   0 -27   5    0.90    1.70
   0  27  -5    0.10    1.50
   0  27   5    2.90    1.70
   1 -27   5   18.00    2.90
  -1 -27  -5   15.50    2.50
  -1  27  -5   16.50    2.60
   1  27   5   15.90    2.60
   2 -27   5    9.80    2.40
  -2 -27  -5    8.50    2.20
   2  27   5    8.00    2.10
  -2  27  -5    6.50    2.00
  -3 -28   5    4.20    2.50
   3 -28  -5    4.90    2.00
   3  28  -5    0.70    1.60
   3  28  -5    0.20    1.70
  -3  28   5    0.90    1.60
   2 -28  -5    6.80    2.00
  -2 -28   5    7.20    2.10
  -2 -28   5    7.10    2.30
   2  28  -5    6.30    2.00
  -2  28   5    5.30    1.80
  -1 -28   5    3.80    1.70
   1 -28  -5    2.10    1.70
  -1 -28   5    4.40    2.20
  -1  28   5    3.30    1.80
   1  28  -5    1.70    1.80
   0 -28   5   23.00    3.20
   0 -28  -5   24.80    3.10
   0  28   5   23.20    3.00
   0  28  -5   25.70    3.20
   1 -28   5   20.30    3.10
  -1 -28  -5   17.50    2.70
   1  28   5   20.10    2.90
  -1  28  -5   16.20    2.80
  -2 -28  -5    7.60    2.30
   2 -28   5    4.80    2.10
  -2  28  -5    1.50    1.80
   2  28   5    3.50    1.90
  -2 -29   5    5.30    2.30
   2 -29  -5    2.10    1.90
  -2 -29   5    2.00    1.80
  -2  29   5    5.60    2.00
   2  29  -5    5.80    2.10
  -1 -29   5    6.40    2.00
  -1 -29   5   10.20    2.50
   1 -29  -5    6.20    2.10
   1  29  -5    5.40    2.10
  -1  29   5    5.30    1.90
   0 -29  -5    5.20    2.00
   0 -29   5    4.40    2.00
   0  29  -5    1.40    2.00
   0  29   5    1.30    1.70
  -1 -29  -5   -1.30    1.60
   1 -29   5    2.20    1.90
   1  29   5    1.40    1.80
  -1  29  -5    4.40    2.10
  -1 -30   5   13.30    2.80
  -1 -30   5    9.30    2.30
   1 -30  -5    8.40    2.40
  -1  30   5   11.50    2.40
   1  30  -5   10.40    2.60
   0 -30   5   26.20    3.40
   0 -30  -5   24.50    3.30
   0  30   5   21.10    3.10
   0  30  -5   21.60    3.20
   8   0  -6    7.80    2.30
  -8   0   6    4.20    2.30
  -7   0   6   33.10    3.60
   7   0  -6   38.10    3.80
  -7   0   6   30.10    3.40
   6   0  -6    1.00    1.40
  -6   0   6    2.70    1.60
  -6   0   6    2.80    1.60
  -5   0   6   24.30    2.50
  -5   0   6   25.20    2.60
   5   0  -6   23.60    2.60
   4   0  -6  368.66   16.20
   4   0  -6  359.66   16.70
  -4   0   6  372.86   16.60
   3   0  -6  375.86   16.80
   3   0  -6  361.36   16.60
  -3   0   6  382.96   16.70
  -3   0   6  378.46   16.70
  -2   0   6  190.88    8.90
   2   0  -6  197.38    8.90
   2   0  -6  190.88    9.00
  -2   0   6  194.88    9.00
  -1   0   6  486.45   20.80
   1   0  -6  483.95   21.00
   1   0  -6  458.65   20.60
   0   0  -6   21.10    1.20
   0   0   6   23.10    1.80
   0   0  -6   21.10    1.90
   0   0   6   20.00    1.70
   1   0   6   74.49    4.10
   1   0   6   77.09    3.90
  -1   0  -6   68.29    4.00
   2   0   6    1.70    0.80
  -2   0  -6   -1.60    0.80
   2   0   6    2.30    1.10
   3   0   6   69.49    4.30
   3   0   6   67.29    4.00
  -3   0  -6   68.79    4.00
  -4   0  -6    3.00    1.20
  -4   0  -6    3.80    1.20
   4   0   6    4.40    1.70
   5   0   6   64.29    4.80
  -5   0  -6   60.29    4.20
   6   0   6   50.69    4.50
  -6   0  -6   52.09    4.20
   8  -1  -6   28.10    3.70
  -8  -1   6   31.20    3.60
  -8  -1   6   28.00    3.90
  -8   1   6   29.40    3.60
   8   1  -6   29.30    3.70
  -7  -1   6   51.59    4.60
   7  -1  -6   59.69    4.70
  -7  -1   6   61.89    4.50
   7   1  -6   65.19    4.70
  -7   1   6   56.69    4.50
  -7   1   6   53.59    4.50
  -6  -1   6   40.20    3.60
  -6  -1   6   41.30    3.40
   6  -1  -6   42.70    3.40
  -6   1   6   43.00    3.40
   6   1  -6   42.40    3.60
  -6   1   6   36.30    3.30
  -5  -1   6   74.19    4.50
   5  -1  -6   81.19    4.90
  -5  -1   6   75.49    4.80
   5   1  -6   85.39    4.90
  -5   1   6   78.49    4.70
   4  -1  -6  255.37   12.40
   4  -1  -6  265.87   12.00
  -4  -1   6  262.57   12.30
  -4  -1   6  263.37   12.40
  -4   1   6  281.87   12.40
   4   1  -6  269.67   12.00
   4   1  -6  266.57   12.40
  -4   1   6  269.17   12.30
  -3  -1   6  191.78    9.10
   3  -1  -6  197.38    9.20
   3  -1  -6  193.08    9.00
   3   1  -6  189.88    9.00
   3   1  -6  200.18    9.20
  -3   1   6  193.78    9.10
  -3   1   6  195.48    9.10
  -2  -1   6   93.39    4.70
   2  -1  -6   92.69    4.60
   2  -1  -6   89.59    4.70
  -2   1   6   88.99    4.70
   2   1  -6   92.89    4.60
   2   1  -6   95.19    4.70
  -2   1   6   88.89    4.60
  -1  -1   6  678.53   29.00
   1  -1  -6  664.93   28.80
  -1  -1   6  631.44   29.00
   1  -1  -6  629.74   29.10
   1   1  -6  696.73   29.20
   1   1  -6  701.73   28.80
  -1   1   6  670.53   29.00
  -1   1   6  684.73   29.00
   0  -1   6  266.07   12.60
   0  -1  -6  285.77   12.80
   0  -1   6  268.17   12.70
   0  -1  -6  280.77   12.20
   0   1  -6  286.47   12.80
   0   1   6  290.57   12.60
   0   1  -6  288.77   12.10
   1  -1   6  168.68    7.80
  -1  -1  -6  176.08    8.10
   1  -1   6  160.18    8.00
   1   1   6  158.78    7.80
   1   1   6  171.28    8.00
  -1   1  -6  163.68    8.00
  -2  -1  -6  361.36   16.60
   2  -1   6  365.36   16.70
   2  -1   6  361.66   16.50
   2   1   6  372.16   16.50
   2   1   6  380.46   16.70
  -2   1  -6  368.46   16.60
   3  -1   6   52.49    3.70
  -3  -1  -6   48.30    3.40
   3  -1   6   53.39    3.50
  -3   1  -6   53.99    3.40
   3   1   6   58.69    3.80
   3   1   6   63.59    3.60
  -4  -1  -6   21.30    2.10
  -4  -1  -6   25.20    2.40
   4  -1   6   24.10    2.60
  -4   1  -6   25.20    2.30
  -4   1  -6   22.80    2.40
   4   1   6   23.50    2.70
   5  -1   6    5.10    1.90
  -5  -1  -6    5.20    1.60
  -5   1  -6    3.00    1.40
   5   1   6    2.70    1.80
  -6  -1  -6    5.60    1.90
   6  -1   6    4.70    2.20
  -6   1  -6    5.60    1.90
   6   1   6    2.90    2.10
   8  -2  -6   10.00    2.70
  -8  -2   6    8.80    2.70
  -8  -2   6   11.90    2.70
  -8   2   6   14.40    2.80
   8   2  -6    9.70    2.40
   7  -2  -6   15.10    2.50
  -7  -2   6   15.00    2.70
  -7  -2   6   15.80    2.60
   7   2  -6   17.20    2.70
  -7   2   6   14.70    2.60
  -6  -2   6    9.80    2.10
   6  -2  -6    9.50    2.00
  -6  -2   6   11.40    2.00
  -6   2   6    5.50    1.50
  -6   2   6    8.80    1.90
   6   2  -6   11.10    2.00
   5  -2  -6   45.50    3.30
  -5  -2   6   47.10    3.20
  -5  -2   6   46.10    3.40
   5   2  -6   33.20    3.10
  -5   2   6   37.10    3.00
  -5   2   6   31.40    2.90
  -4  -2   6  261.87   11.40
  -4  -2   6  264.47   11.70
   4  -2  -6  251.37   11.00
   4  -2  -6  252.27   11.50
  -4   2   6  236.38   11.30
   4   2  -6  223.38   11.40
   4   2  -6  233.18   11.00
  -4   2   6  227.68   11.40
   3  -2  -6  233.88   11.20
  -3  -2   6  247.68   11.20
   3  -2  -6  240.28   11.10
  -3  -2   6  242.78   11.40
  -3   2   6  251.57   11.30
  -3   2   6  250.47   11.10
   3   2  -6  240.38   11.20
   3   2  -6  246.08   11.10
   2  -2  -6  158.38    8.00
  -2  -2   6  153.08    8.10
  -2  -2   6  156.28    7.90
   2  -2  -6  160.48    8.10
  -2   2   6  185.88    8.10
   2   2  -6  186.38    8.00
   2   2  -6  181.08    8.10
  -2   2   6  193.18    8.00
  -1  -2   6  330.77   14.50
   1  -2  -6  330.07   14.30
   1  -2  -6  335.47   14.70
  -1  -2   6  315.57   14.60
  -1   2   6  329.77   14.40
   1   2  -6  314.97   14.60
   1   2  -6  318.27   14.30
  -1   2   6  330.97   14.50
   0  -2  -6   78.09    3.60
   0  -2  -6   83.49    4.20
   0  -2   6   71.39    4.00
   0  -2   6   71.49    3.80
   0   2  -6   72.59    3.40
   0   2   6   74.89    3.90
   0   2  -6   74.19    4.10
   0   2   6   75.89    3.90
   1  -2   6  146.29    7.20
  -1  -2  -6  153.18    7.30
   1  -2   6  151.18    7.10
  -1  -2  -6  144.29    6.50
   1   2   6  148.29    7.10
  -1   2  -6  144.69    7.20
   1   2   6  150.38    7.10
   2  -2   6    8.70    1.50
   2  -2   6    7.40    1.20
  -2  -2  -6    6.60    1.40
  -2   2  -6    2.80    1.10
   2   2   6    4.80    1.20
   2   2   6    4.00    1.00
  -3  -2  -6   67.59    3.80
   3  -2   6   58.49    3.70
   3  -2   6   64.99    4.10
   3   2   6   60.99    4.00
  -3   2  -6   59.39    3.70
   3   2   6   61.09    3.80
  -4  -2  -6    9.10    1.70
   4  -2   6    7.00    1.90
  -4  -2  -6    8.20    1.50
  -4   2  -6   11.30    1.70
   4   2   6   11.20    1.90
  -4   2  -6   11.00    1.80
  -5  -2  -6   70.19    4.50
   5  -2   6   74.29    5.10
   5   2   6   65.19    4.80
  -5   2  -6   67.49    4.50
   6  -2   6   50.39    4.70
  -6  -2  -6   45.30    3.80
   6   2   6   49.40    4.60
  -6   2  -6   48.40    3.90
  -8  -3   6   22.30    3.20
   8  -3  -6   14.80    2.90
  -8   3   6   21.50    3.30
   8   3  -6   22.70    3.30
  -7  -3   6   37.70    4.10
   7  -3  -6   49.60    4.10
  -7  -3   6   43.60    3.90
   7   3  -6   47.70    4.10
  -7   3   6   49.40    4.20
  -6  -3   6   56.89    4.30
   6  -3  -6   53.49    4.20
  -6  -3   6   57.79    4.00
  -6   3   6   55.99    4.20
   6   3  -6   54.29    4.20
  -6   3   6   54.49    4.00
  -5  -3   6   86.39    4.70
   5  -3  -6   80.79    4.90
  -5  -3   6   80.09    5.00
   5   3  -6   78.39    4.90
  -5   3   6   82.99    4.80
  -5   3   6   79.39    4.90
  -4  -3   6  191.28    9.10
  -4  -3   6  188.78    9.50
   4  -3  -6  189.38    8.90
   4  -3  -6  187.88    9.30
   4   3  -6  198.08    8.90
  -4   3   6  193.78    9.10
   4   3  -6  190.98    9.30
  -4   3   6  198.98    9.30
   3  -3  -6  160.38    7.80
   3  -3  -6  161.88    7.70
  -3  -3   6  160.08    7.70
  -3  -3   6  161.08    8.00
   3   3  -6  164.78    7.70
  -3   3   6  164.38    7.70
   3   3  -6  166.88    7.90
  -3   3   6  161.38    7.90
  -2  -3   6   17.20    1.90
   2  -3  -6   16.20    1.50
   2  -3  -6   17.60    1.50
  -2  -3   6   17.30    1.50
   2   3  -6   15.00    1.60
   2   3  -6   13.10    1.40
  -2   3   6   15.60    1.50
  -2   3   6   13.30    1.60
  -1  -3   6  252.27   12.10
   1  -3  -6  254.57   11.80
  -1  -3   6  256.07   11.90
   1  -3  -6  245.88   12.10
  -1   3   6  283.77   12.10
   1   3  -6  282.87   11.80
   1   3  -6  282.07   12.20
  -1   3   6  268.87   11.80
   0  -3   6  174.88    8.60
   0  -3  -6  168.08    8.60
   0  -3   6  174.58    8.40
   0  -3  -6  172.28    8.10
   0   3   6  191.38    8.40
   0   3   6  193.78    8.50
   0   3  -6  191.28    7.90
   0   3  -6  187.48    8.60
   1  -3   6  191.38    9.10
   1  -3   6  187.18    8.80
  -1  -3  -6  193.58    8.30
  -1  -3  -6  190.98    9.10
   1   3   6  190.48    8.90
  -1   3  -6  187.18    9.00
   1   3   6  192.18    8.90
   2  -3   6  429.06   19.20
   2  -3   6  441.16   19.60
  -2  -3  -6  426.66   19.40
   2   3   6  436.16   19.40
  -2   3  -6  437.06   19.40
   2   3   6  432.56   19.30
  -3  -3  -6  143.29    7.70
   3  -3   6  143.49    7.70
   3  -3   6  144.49    8.10
   3   3   6  172.78    8.10
  -3   3  -6  168.08    7.90
  -3   3  -6  166.18    7.90
   3   3   6  170.28    7.90
   4  -3   6   20.60    2.70
  -4  -3  -6   21.10    2.50
  -4  -3  -6   19.70    2.10
  -4   3  -6   19.70    2.30
  -4   3  -6   20.20    2.20
   4   3   6   20.20    2.50
  -5  -3  -6    1.60    1.40
   5  -3   6    1.40    1.70
   5   3   6    2.70    1.70
  -5   3  -6    1.80    1.30
  -6  -3  -6    6.40    2.00
   6  -3   6    1.60    1.90
   6   3   6    1.20    1.80
  -6   3  -6    3.80    1.70
  -7  -4   6    8.80    2.50
   7  -4  -6   11.80    2.40
  -7  -4   6   11.80    2.30
   7   4  -6   12.50    2.50
  -7   4   6   17.10    2.70
   6  -4  -6   14.50    2.40
  -6  -4   6   17.20    2.30
  -6  -4   6   16.10    2.60
  -6   4   6   13.20    2.40
   6   4  -6   14.00    2.20
  -5  -4   6   10.90    2.00
   5  -4  -6    9.40    1.70
  -5  -4   6   13.20    1.80
  -5   4   6    6.60    1.70
   5   4  -6    5.10    1.50
  -5   4   6    5.30    1.50
   4  -4  -6   62.09    3.20
  -4  -4   6   59.99    3.30
   4  -4  -6   60.19    3.60
  -4  -4   6   63.89    3.90
  -4   4   6   49.20    3.20
   4   4  -6   42.90    3.00
   4   4  -6   45.90    3.40
  -4   4   6   47.70    3.50
   3  -4  -6  121.49    6.10
  -3  -4   6  130.69    6.50
   3  -4  -6  121.09    6.20
  -3  -4   6  120.09    6.00
  -3   4   6  127.19    6.00
   3   4  -6  122.99    6.10
   3   4  -6  122.19    6.20
  -3   4   6  128.29    6.30
  -2  -4   6  169.18    8.70
   2  -4  -6  165.78    8.50
  -2  -4   6  159.38    8.30
   2  -4  -6  162.48    8.50
   2   4  -6  198.98    8.60
  -2   4   6  202.68    8.30
  -2   4   6  201.98    8.60
   2   4  -6  200.68    8.50
   1  -4  -6  167.98    7.90
  -1  -4   6  173.18    7.60
   1  -4  -6  174.38    7.60
  -1  -4   6  174.08    8.00
  -1   4   6  156.08    7.50
  -1   4   6  157.48    7.70
   1   4  -6  160.78    7.90
   1   4  -6  155.68    7.40
   0  -4  -6   74.39    4.40
   0  -4   6   80.69    4.10
   0  -4  -6   72.89    3.90
   0  -4   6   81.89    4.40
   0   4   6   85.79    4.10
   0   4  -6   83.49    3.70
   0   4   6   85.99    4.30
   0   4  -6   87.89    4.40
  -1  -4  -6  135.69    6.30
   1  -4   6  137.39    7.00
  -1  -4  -6  140.49    7.00
   1  -4   6  144.69    6.70
  -1   4  -6  143.99    7.00
   1   4   6  142.89    6.80
  -2  -4  -6    8.60    1.50
   2  -4   6   11.80    1.70
   2  -4   6   11.60    1.50
   2   4   6    9.30    1.40
  -2   4  -6    6.20    1.30
   2   4   6   10.30    1.60
   3  -4   6   34.60    2.80
  -3  -4  -6   36.20    2.70
  -3   4  -6   28.20    2.50
   3   4   6   30.40    2.70
   3   4   6   28.30    2.50
  -3   4  -6   28.30    2.40
   4  -4   6   14.80    2.40
  -4  -4  -6   16.80    2.00
  -4  -4  -6   13.90    2.10
  -4   4  -6   22.80    2.40
  -4   4  -6   22.30    2.20
   4   4   6   23.40    2.70
   5  -4   6   62.79    4.80
  -5  -4  -6   58.09    4.10
  -5   4  -6   59.89    4.20
   5   4   6   54.39    4.30
  -6  -4  -6   32.50    3.40
   6  -4   6   34.70    4.10
   6   4   6   32.90    3.90
  -6   4  -6   30.90    3.50
  -7  -5   6   52.89    4.10
  -7  -5   6   51.59    4.70
   7  -5  -6   52.99    4.50
   7   5  -6   55.69    4.50
  -7   5   6   59.39    4.70
  -6  -5   6   51.09    4.20
   6  -5  -6   54.39    4.00
  -6  -5   6   56.49    3.80
  -6   5   6   44.20    3.80
   6   5  -6   48.30    3.90
  -5  -5   6   39.70    2.90
   5  -5  -6   36.60    3.20
  -5  -5   6   35.90    3.30
   5   5  -6   33.00    3.00
  -5   5   6   35.90    3.20
  -4  -5   6   78.09    4.60
   4  -5  -6   86.39    4.60
  -4  -5   6   83.79    5.20
   4  -5  -6   82.99    4.90
  -4   5   6   96.09    4.70
   4   5  -6   91.99    4.60
   4   5  -6   91.39    5.00
  -4   5   6   94.29    5.10
   3  -5  -6  153.18    7.50
  -3  -5   6  153.08    7.30
   3  -5  -6  157.88    7.40
  -3  -5   6  154.28    7.80
   3   5  -6  154.28    7.50
   3   5  -6  153.68    7.40
  -3   5   6  151.78    7.20
  -3   5   6  154.28    7.60
  -2  -5   6    1.20    0.70
   2  -5  -6    0.40    0.70
   2  -5  -6    1.00    0.80
  -2  -5   6    2.80    1.20
  -2   5   6    1.30    0.80
   2   5  -6    1.60    0.80
  -2   5   6    0.70    0.60
   2   5  -6    0.60    0.70
  -1  -5   6  263.37   12.40
   1  -5  -6  272.17   12.80
  -1  -5   6  268.37   12.80
   1  -5  -6  268.97   12.50
   1   5  -6  290.17   12.40
  -1   5   6  298.87   12.70
   1   5  -6  302.77   12.90
  -1   5   6  282.77   12.30
   0  -5   6  271.47   12.70
   0  -5  -6  275.27   12.30
   0  -5   6  275.17   12.40
   0  -5  -6  282.17   12.80
   0   5   6  278.97   12.60
   0   5  -6  279.07   12.70
   0   5  -6  277.57   12.00
   0   5   6  286.37   12.40
  -1  -5  -6  253.07   11.00
  -1  -5  -6  254.97   11.60
   1  -5   6  249.58   11.30
   1  -5   6  248.08   11.60
   1   5   6  247.08   11.40
  -1   5  -6  246.48   11.60
   1   5   6  248.88   11.40
  -2  -5  -6  436.76   19.10
   2  -5   6  406.76   18.90
   2  -5   6  424.76   19.30
  -2   5  -6  427.56   19.10
   2   5   6  435.36   19.10
   2   5   6  424.56   19.00
  -3  -5  -6  217.38   10.90
   3  -5   6  217.88   11.30
   3   5   6  244.38   11.20
   3   5   6  231.18   10.90
  -3   5  -6  241.38   11.10
  -3   5  -6  243.18   11.00
  -4  -5  -6   24.20    2.30
  -4  -5  -6   24.00    2.60
   4  -5   6   24.80    2.90
  -4   5  -6   23.70    2.20
  -4   5  -6   19.20    2.30
   4   5   6   23.90    2.80
   4   5   6   23.30    2.50
  -5  -5  -6    1.10    1.40
   5  -5   6    2.50    1.60
   5   5   6    1.60    1.70
  -5   5  -6    1.30    1.40
   6  -5   6    4.60    2.30
  -6  -5  -6    4.90    1.90
  -6   5  -6    3.80    1.90
   6   5   6    2.90    2.20
  -7  -6   6   13.10    2.40
  -7  -6   6   10.70    2.70
   7  -6  -6   15.00    2.70
  -7   6   6   14.10    2.60
   7   6  -6   16.60    2.80
  -6  -6   6   18.40    2.30
   6  -6  -6   15.70    2.50
  -6  -6   6   18.30    2.90
  -6   6   6   15.90    2.50
   6   6  -6   14.70    2.40
  -5  -6   6   40.80    2.90
  -5  -6   6   39.90    3.50
   5  -6  -6   37.90    3.30
   5   6  -6   42.70    3.30
  -5   6   6   41.20    3.40
   4  -6  -6   73.89    4.40
   4  -6  -6   82.49    4.10
  -4  -6   6   79.89    4.10
  -4  -6   6   76.49    4.80
   4   6  -6   68.49    3.90
   4   6  -6   68.29    4.30
  -4   6   6   73.59    4.50
  -3  -6   6   23.00    2.50
   3  -6  -6   18.90    1.80
   3  -6  -6   19.60    2.00
  -3  -6   6   20.10    1.70
   3   6  -6   22.20    1.80
  -3   6   6   21.90    1.70
  -3   6   6   22.40    2.20
   3   6  -6   22.80    2.00
  -2  -6   6   88.49    5.10
   2  -6  -6   96.69    5.40
   2  -6  -6   91.39    5.30
  -2  -6   6   92.19    5.60
  -2   6   6  123.99    5.60
  -2   6   6  119.49    5.00
   2   6  -6  126.19    5.60
   2   6  -6  124.79    5.40
  -1  -6   6  127.89    6.50
   1  -6  -6  136.39    6.50
   1  -6  -6  128.69    6.20
  -1  -6   6  129.99    6.10
   1   6  -6  130.89    6.00
   1   6  -6  130.99    6.50
  -1   6   6  128.79    5.90
  -1   6   6  129.09    6.40
   0  -6  -6  155.78    7.60
   0  -6   6  162.28    8.10
   0  -6  -6  155.38    8.00
   0  -6   6  158.28    7.70
   0   6  -6  174.58    7.40
   0   6   6  175.58    7.90
   0   6  -6  171.48    8.10
   0   6   6  184.28    7.70
   1  -6   6  125.69    6.50
  -1  -6  -6  125.39    6.40
  -1  -6  -6  118.39    5.80
   1  -6   6  125.69    6.10
  -1   6  -6  124.49    6.40
   1   6   6  132.69    6.30
   1   6   6  129.89    6.10
   2  -6   6   10.20    1.70
  -2  -6  -6    5.30    1.20
   2  -6   6    9.70    1.30
   2   6   6    8.00    1.40
  -2   6  -6    6.50    1.30
   2   6   6    7.80    1.40
  -3  -6  -6   30.60    2.50
   3  -6   6   30.50    2.90
   3   6   6   25.00    2.50
  -3   6  -6   24.50    2.30
   3   6   6   24.80    2.40
  -3   6  -6   26.40    2.40
   4  -6   6   32.20    3.30
  -4  -6  -6   30.60    2.70
  -4  -6  -6   30.70    2.90
  -4   6  -6   42.40    3.00
  -4   6  -6   42.40    3.00
   4   6   6   43.40    3.00
   4   6   6   41.30    3.40
  -5  -6  -6   40.70    3.40
   5  -6   6   40.10    4.00
   5   6   6   34.40    3.70
  -5   6  -6   40.70    3.30
   6  -6   6   21.50    3.30
  -6  -6  -6   22.00    3.00
  -6   6  -6   21.80    2.90
   6   6   6   20.90    3.40
  -7  -7   6   69.79    5.80
   7  -7  -6   85.39    5.70
   7   7  -6   88.09    5.80
  -7   7   6   84.09    5.70
  -6  -7   6   92.99    6.00
   6  -7  -6   93.39    5.70
  -6  -7   6   90.69    5.30
   6   7  -6   87.99    5.60
  -6   7   6   94.59    5.80
  -5  -7   6   95.59    6.00
  -5  -7   6  102.49    5.30
   5  -7  -6  102.09    5.80
   5   7  -6   97.39    5.70
  -5   7   6   97.89    5.70
  -4  -7   6   44.00    2.90
  -4  -7   6   38.70    3.60
   4  -7  -6   43.40    3.30
   4  -7  -6   43.40    2.90
   4   7  -6   54.69    3.00
   4   7  -6   49.30    3.30
  -4   7   6   54.89    3.40
  -3  -7   6   91.99    4.60
  -3  -7   6   89.69    5.30
   3  -7  -6   91.09    5.00
   3  -7  -6   91.59    4.80
  -3   7   6   93.59    5.00
   3   7  -6   96.19    5.00
   3   7  -6   95.59    4.80
   2  -7  -6   57.59    3.20
  -2  -7   6   60.29    3.70
  -2  -7   6   57.59    3.00
   2  -7  -6   57.19    3.30
  -2   7   6   50.79    3.20
   2   7  -6   50.69    3.10
   2   7  -6   53.19    3.20
  -2   7   6   48.80    2.60
   1  -7  -6  298.87   13.50
  -1  -7   6  310.57   13.90
   1  -7  -6  283.47   13.70
  -1  -7   6  300.87   13.30
   1   7  -6  312.07   13.30
   1   7  -6  317.37   13.80
  -1   7   6  301.17   13.60
  -1   7   6  288.67   13.10
   0  -7  -6  315.77   13.70
   0  -7  -6  304.87   14.00
   0  -7   6  304.17   13.70
   0  -7   6  308.37   14.10
   0   7   6  314.57   13.60
   0   7  -6  297.87   13.30
   0   7   6  300.77   13.90
   0   7  -6  319.27   14.10
  -1  -7  -6  283.27   12.60
   1  -7   6  276.37   12.30
   1  -7   6  269.17   12.70
  -1  -7  -6  275.77   12.10
   1   7   6  269.17   12.30
   1   7   6  272.07   12.40
  -1   7  -6  261.97   12.50
   2  -7   6  316.67   14.70
  -2  -7  -6  323.77   14.90
   2  -7   6  327.27   15.10
  -2   7  -6  322.27   14.80
   2   7   6  339.87   14.80
  -3  -7  -6  175.08    9.10
   3  -7   6  159.28    9.30
  -3   7  -6  204.38    9.20
   3   7   6  200.68    9.30
   3   7   6  199.88    9.20
  -3   7  -6  192.18    9.20
  -4  -7  -6   13.60    1.80
   4  -7   6   12.40    2.10
  -4   7  -6    8.70    1.60
  -4   7  -6   10.60    1.80
   4   7   6   10.00    1.70
   4   7   6   10.70    2.00
   5  -7   6    6.00    2.10
  -5  -7  -6    7.10    1.90
   5   7   6    5.90    2.00
  -5   7  -6    5.00    1.70
   6  -7   6    5.80    2.10
  -6  -7  -6    3.10    1.80
   6   7   6    3.90    2.10
  -6   7  -6    3.30    1.70
  -7  -8   6   10.60    2.90
   7  -8  -6    9.90    2.40
   7   8  -6   13.20    2.60
  -7   8   6   13.90    2.80
  -6  -8   6   11.60    2.50
   6  -8  -6   12.20    2.20
  -6   8   6    8.60    2.10
   6   8  -6    9.30    2.10
   5  -8  -6   93.29    5.70
  -5  -8   6  102.59    5.30
  -5  -8   6   96.59    6.10
  -5   8   6   97.99    5.80
   5   8  -6   98.99    5.70
   4  -8  -6  164.98    7.60
  -4  -8   6  160.28    8.30
   4  -8  -6  161.28    8.00
  -4  -8   6  165.38    7.50
   4   8  -6  156.48    7.50
   4   8  -6  146.39    7.90
  -4   8   6  145.99    7.80
  -3  -8   6   45.00    3.40
  -3  -8   6   46.00    2.70
   3  -8  -6   45.90    2.90
   3  -8  -6   44.70    3.10
   3   8  -6   50.39    2.90
  -3   8   6   42.70    3.10
   3   8  -6   47.30    3.00
   2  -8  -6   82.99    4.50
  -2  -8   6   85.09    5.00
  -2  -8   6   83.49    4.10
   2  -8  -6   80.69    4.50
   2   8  -6   85.99    4.40
  -2   8   6   85.89    4.50
   2   8  -6   86.89    4.60
  -1  -8   6   70.79    3.50
   1  -8  -6   71.09    4.00
  -1  -8   6   70.79    4.20
   1  -8  -6   67.89    3.70
  -1   8   6   65.09    3.70
   1   8  -6   64.19    3.50
   1   8  -6   64.89    3.90
  -1   8   6   68.49    3.20
   0  -8   6  202.18   10.10
   0  -8  -6  198.18    9.60
   0  -8   6  204.18    9.60
   0  -8  -6  194.48    9.90
   0   8  -6  220.88    9.40
   0   8  -6  219.28   10.00
   0   8   6  226.68    9.50
   0   8   6  231.48    9.90
  -1  -8  -6   55.79    3.60
  -1  -8  -6   56.09    3.10
   1  -8   6   62.19    3.80
   1  -8   6   59.99    3.30
   1   8   6   57.49    3.40
  -1   8  -6   59.99    3.60
   1   8   6   58.49    3.30
  -2  -8  -6   10.60    1.20
   2  -8   6   12.80    1.50
   2  -8   6   10.20    1.70
  -2  -8  -6    9.90    1.50
  -2   8  -6    8.50    1.40
  -2   8  -6    5.40    1.30
   2   8   6    8.80    1.50
   3  -8   6   17.20    2.30
  -3  -8  -6   16.00    2.00
  -3   8  -6   16.10    1.90
  -3   8  -6   14.80    1.90
   3   8   6   14.50    2.00
   3   8   6   14.30    1.80
   4  -8   6   50.79    4.20
  -4  -8  -6   49.30    3.70
   4   8   6   59.49    3.90
   4   8   6   61.09    4.20
  -4   8  -6   64.39    3.90
  -4   8  -6   58.29    3.80
  -5  -8  -6   32.80    3.10
   5  -8   6   28.90    3.40
  -5   8  -6   26.20    2.80
   5   8   6   28.20    3.40
   6  -8   6   16.70    2.90
  -6  -8  -6   14.50    2.50
   6   8   6   17.00    3.00
  -6   8  -6   16.40    2.70
   7  -9  -6   38.10    4.00
  -7  -9   6   37.60    4.50
   7   9  -6   40.50    4.00
  -7   9   6   38.30    4.10
   6  -9  -6   84.29    5.40
  -6  -9   6   71.29    5.60
  -6   9   6   77.59    5.20
   6   9  -6   86.29    5.40
   5  -9  -6  122.39    6.50
  -5  -9   6  104.39    6.70
  -5   9   6  116.29    6.50
   5   9  -6  113.29    6.40
   4  -9  -6   60.09    3.90
  -4  -9   6   55.79    4.30
   4  -9  -6   58.69    3.60
  -4  -9   6   55.49    3.40
   4   9  -6   67.19    3.60
   4   9  -6   65.69    3.90
  -4   9   6   69.19    4.20
  -3  -9   6  104.29    5.00
   3  -9  -6   98.69    5.40
  -3  -9   6   98.09    5.70
   3  -9  -6  101.49    5.30
  -3   9   6  101.59    5.50
   3   9  -6  111.09    5.30
   3   9  -6   96.09    5.30
  -2  -9   6   29.10    1.80
   2  -9  -6   25.60    2.10
  -2  -9   6   28.10    2.80
   2  -9  -6   25.30    2.20
   2   9  -6   28.70    2.20
   2   9  -6   24.60    2.00
  -2   9   6   29.00    2.30
   1  -9  -6  156.18    7.80
  -1  -9   6  165.18    7.40
  -1  -9   6  158.88    8.00
   1  -9  -6  159.18    7.60
   1   9  -6  167.58    7.40
   1   9  -6  155.98    7.80
  -1   9   6  159.08    7.70
   0  -9  -6  349.27   15.60
   0  -9   6  353.76   15.10
   0  -9   6  355.76   15.70
   0  -9  -6  350.66   15.20
   0   9  -6  339.17   15.50
   0   9   6  323.57   15.30
   0   9   6  334.97   14.90
   0   9  -6  328.57   14.80
   1  -9   6  251.17   12.00
   1  -9   6  250.57   11.50
  -1  -9  -6  246.78   11.40
  -1  -9  -6  259.67   11.90
   1   9   6  263.07   11.50
   1   9   6  251.77   11.70
  -1   9  -6  252.07   11.80
  -2  -9  -6   99.59    5.80
   2  -9   6  106.29    6.00
  -2  -9  -6  102.29    5.30
   2   9   6  115.09    5.80
  -2   9  -6  115.89    5.70
   2   9   6  113.59    5.70
  -2   9  -6  117.69    5.90
   3  -9   6  108.09    6.80
  -3  -9  -6  113.69    6.50
   3   9   6  129.39    6.50
  -3   9  -6  135.69    6.60
   3   9   6  140.49    6.80
  -3   9  -6  132.59    6.60
   4  -9   6    9.60    2.20
  -4  -9  -6    7.80    1.60
   4   9   6    5.60    1.70
  -4   9  -6    3.70    1.30
   4   9   6    4.90    1.40
  -4   9  -6    5.80    1.50
  -5  -9  -6    5.50    1.60
   5  -9   6    5.10    1.90
   5   9   6    2.80    1.80
  -5   9  -6    4.50    1.60
  -6  -9  -6    0.20    1.60
   6  -9   6    2.60    2.10
  -6   9  -6   -0.10    1.70
   6   9   6    2.90    2.10
   7 -10  -6   15.20    2.70
  -7 -10   6   12.10    3.00
  -7  10   6   15.40    2.80
   7  10  -6   15.60    2.70
   6 -10  -6   15.40    2.40
  -6 -10   6   24.10    3.40
   6  10  -6   17.70    2.60
  -6  10   6   14.90    2.50
   5 -10  -6   92.49    5.60
  -5 -10   6   97.19    6.20
   5  10  -6   96.49    5.70
  -5  10   6  100.49    5.80
  -4 -10   6  109.69    6.10
   4 -10  -6  112.49    5.60
  -4 -10   6  113.99    6.40
   4 -10  -6  105.89    5.90
   4  10  -6  104.79    5.50
   4  10  -6  104.59    5.80
  -4  10   6  103.29    5.90
   3 -10  -6   47.50    3.20
  -3 -10   6   46.50    3.70
  -3 -10   6   46.50    2.80
   3 -10  -6   45.60    3.30
   3  10  -6   53.99    3.30
   3  10  -6   61.09    3.30
  -3  10   6   63.29    3.60
  -2 -10   6  159.98    8.60
   2 -10  -6  170.48    8.30
   2 -10  -6  176.68    8.40
  -2 -10   6  164.28    7.80
   2  10  -6  179.18    8.30
   2  10  -6  178.88    8.20
  -2  10   6  178.38    8.30
  -1 -10   6   63.69    4.10
   1 -10  -6   66.59    3.90
   1 -10  -6   60.29    3.60
  -1 -10   6   63.99    3.30
  -1  10   6   67.79    3.70
   1  10  -6   67.79    3.90
   1  10  -6   65.39    3.40
   0 -10  -6  202.68   10.20
   0 -10   6  209.08    9.70
   0 -10  -6  207.68    9.90
   0 -10   6  206.48   10.40
   0  10   6  220.78    9.60
   0  10  -6  230.58   10.30
   0  10  -6  225.68    9.60
   0  10   6  225.38   10.10
  -1 -10  -6   24.10    1.90
  -1 -10  -6   23.20    2.30
   1 -10   6   27.80    2.60
   1 -10   6   25.30    1.90
  -1  10  -6   23.00    2.30
   1  10   6   24.70    1.90
   1  10   6   25.70    2.00
   2 -10   6   22.30    2.60
  -2 -10  -6   21.60    1.80
  -2 -10  -6   21.10    2.20
   2  10   6   18.00    2.00
   2  10   6   17.90    1.90
  -2  10  -6   21.80    1.90
  -2  10  -6   19.10    2.10
   3 -10   6    3.30    1.40
  -3 -10  -6    5.60    1.30
   3  10   6    3.40    1.30
  -3  10  -6    3.50    1.20
  -3  10  -6    1.80    1.10
   3  10   6    2.90    1.10
   4 -10   6   37.20    3.70
  -4 -10  -6   35.40    3.20
   4  10   6   48.50    3.70
  -4  10  -6   45.60    3.20
  -4  10  -6   47.30    3.40
   4  10   6   46.20    3.30
   5 -10   6   31.70    3.70
  -5 -10  -6   33.60    3.10
  -5  10  -6   29.50    3.10
   5  10   6   33.90    3.50
   6 -10   6   15.60    3.00
  -6 -10  -6   15.90    2.70
   6  10   6   16.10    2.90
  -6  10  -6   21.20    3.00
   7 -11  -6   20.40    3.10
  -7 -11   6   18.60    3.40
   7  11  -6   24.70    3.30
  -7  11   6   25.10    3.40
   6 -11  -6   27.10    3.10
  -6 -11   6   30.60    3.80
   6  11  -6   33.30    3.40
  -6  11   6   39.40    3.40
   5 -11  -6   47.90    3.80
  -5 -11   6   43.90    4.20
   5  11  -6   46.70    3.70
  -5  11   6   46.20    3.80
  -4 -11   6   25.50    3.20
   4 -11  -6   27.90    2.80
  -4  11   6   33.10    2.90
   4  11  -6   32.10    2.70
   4  11  -6   34.10    2.50
   3 -11  -6   93.09    5.20
   3 -11  -6   97.49    5.10
  -3 -11   6   88.89    5.50
  -3  11   6   94.49    5.20
   3  11  -6   94.69    5.10
   3  11  -6   96.99    5.00
   2 -11  -6    8.70    1.40
   2 -11  -6   10.10    1.50
  -2 -11   6    8.60    0.90
  -2 -11   6    9.80    2.00
   2  11  -6    5.70    1.10
  -2  11   6    6.10    1.20
  -2  11   6    4.90    1.20
   2  11  -6    4.40    1.20
  -1 -11   6   69.09    3.30
   1 -11  -6   69.19    4.00
   1 -11  -6   64.89    3.80
  -1 -11   6   70.39    4.20
  -1  11   6   65.69    3.80
   1  11  -6   64.89    3.50
  -1  11   6   61.39    3.80
   1  11  -6   61.19    3.90
   0 -11  -6  281.77   12.60
   0 -11   6  289.07   13.10
   0 -11   6  283.47   12.40
   0 -11  -6  277.37   12.90
   0  11  -6  281.07   12.90
   0  11  -6  275.67   12.30
   0  11   6  260.87   12.60
   1 -11   6  127.59    6.00
  -1 -11  -6  121.49    6.10
   1 -11   6  117.49    6.50
  -1 -11  -6  110.19    6.30
   1  11   6  130.39    6.00
   1  11   6  131.89    6.30
  -1  11  -6  126.09    6.40
  -2 -11  -6   38.20    3.10
   2 -11   6   32.60    3.20
  -2 -11  -6   41.50    2.70
   2  11   6   49.60    3.00
  -2  11  -6   43.50    3.10
  -2  11  -6   47.50    2.90
   2  11   6   49.00    3.00
  -3 -11  -6   77.49    4.90
   3 -11   6   70.69    5.10
   3  11   6   98.09    5.20
  -3  11  -6   94.19    5.10
   3  11   6   96.39    5.10
  -3  11  -6   93.39    5.00
  -4 -11  -6    6.50    1.60
   4 -11   6    5.50    1.90
   4  11   6    1.80    1.40
  -4  11  -6    3.30    1.30
   4  11   6    6.30    1.80
  -4  11  -6    2.80    1.40
  -5 -11  -6    5.20    1.70
   5 -11   6    5.30    2.20
  -5  11  -6    3.50    1.70
   5  11   6    4.10    2.00
  -7 -12   6   -0.50    2.30
   7 -12  -6    3.30    2.00
  -7  12   6    1.70    2.10
   7  12  -6    0.40    1.70
  -6 -12   6   13.70    2.90
   6 -12  -6   10.70    2.30
   6  12  -6   14.00    2.40
  -6  12   6   10.70    2.30
   5 -12  -6   64.99    4.50
  -5 -12   6   64.39    5.00
  -5  12   6   54.79    4.30
   5  12  -6   58.39    4.20
  -4 -12   6   83.59    5.30
   4 -12  -6   86.99    5.00
   4  12  -6   75.89    4.40
   4  12  -6   73.99    4.70
  -4  12   6   74.79    4.80
  -3 -12   6   39.70    3.50
   3 -12  -6   39.80    2.70
   3 -12  -6   36.90    2.90
   3  12  -6   32.10    2.60
   3  12  -6   32.90    2.60
  -3  12   6   31.90    2.50
  -3  12   6   33.70    2.70
  -2 -12   6  204.68   10.20
   2 -12  -6  194.88    9.70
   2  12  -6  215.28    9.80
  -2  12   6  200.38    9.60
  -2  12   6  206.08    9.70
   2  12  -6  202.88    9.50
   1 -12  -6  101.09    5.50
  -1 -12   6  105.09    5.00
  -1 -12   6  103.09    5.90
  -1  12   6  110.29    5.60
   1  12  -6  110.19    5.70
   1  12  -6  108.69    5.30
  -1  12   6  109.49    5.50
   0 -12  -6   88.49    4.90
   0 -12   6   90.49    4.60
   0 -12   6   85.19    5.40
   0 -12  -6   85.49    5.10
   0  12   6  102.69    5.00
   0  12  -6  104.29    5.30
   0  12   6  104.29    5.20
   0  12  -6   99.49    4.60
   1 -12   6   21.30    2.40
  -1 -12  -6   23.60    2.40
  -1 -12  -6   26.50    2.10
  -1  12  -6   25.10    2.00
   1  12   6   26.30    2.00
  -1  12  -6   24.30    2.40
   1  12   6   25.70    2.10
   2 -12   6    9.30    1.80
  -2 -12  -6   11.00    1.50
  -2 -12  -6    9.00    1.50
  -2  12  -6    6.10    1.50
  -2  12  -6    8.90    1.30
   2  12   6    7.70    1.50
   2  12   6    7.80    1.40
  -3 -12  -6    4.80    1.30
   3 -12   6    7.10    1.90
   3  12   6    1.60    0.70
  -3  12  -6    2.20    1.20
  -3  12  -6    1.80    1.20
   3  12   6    2.30    1.20
   4 -12   6   31.30    3.30
  -4 -12  -6   26.80    2.80
   4  12   6   35.00    3.30
   4  12   6   30.40    2.70
  -4  12  -6   38.10    3.10
  -4  12  -6   30.90    2.90
   5 -12   6   24.50    3.30
  -5 -12  -6   23.10    2.80
   5  12   6   26.50    3.30
  -5  12  -6   28.40    3.10
  -7 -13   6   11.70    3.20
   7 -13  -6   17.00    3.00
  -7  13   6   16.90    3.00
   7  13  -6    9.90    2.40
   6 -13  -6   30.90    3.50
  -6 -13   6   26.50    3.70
   6  13  -6   30.60    3.40
  -6  13   6   33.30    3.60
  -5 -13   6   64.59    5.20
   5 -13  -6   63.09    4.60
   5  13  -6   73.49    4.70
  -5  13   6   68.39    4.50
   4 -13  -6   16.70    1.90
  -4 -13   6   28.90    3.30
   4 -13  -6   25.30    2.50
  -4  13   6   30.90    2.80
   4  13  -6   30.70    2.70
   4  13  -6   21.60    2.00
  -3 -13   6   71.99    5.00
   3 -13  -6   75.79    4.60
   3  13  -6   79.69    4.40
   3  13  -6   79.29    4.50
  -3  13   6   76.19    4.50
  -3  13   6   75.39    4.30
  -2 -13   6    4.20    1.60
   2 -13  -6    6.40    1.40
  -2  13   6    6.90    1.40
   2  13  -6    3.80    1.00
  -2  13   6    5.10    1.30
   2  13  -6    3.90    1.20
  -1 -13   6   86.09    4.20
   1 -13  -6   86.09    4.60
  -1 -13   6   83.39    5.00
  -1  13   6   77.19    4.60
   1  13  -6   83.69    4.30
   1  13  -6   83.69    4.80
  -1  13   6   80.89    4.60
   0 -13   6  159.98    7.90
   0 -13   6  151.68    7.10
   0 -13  -6  156.18    7.50
   0 -13   6  156.98    7.00
   0  13  -6  148.59    7.10
   0  13   6  149.69    7.50
   0  13  -6  147.39    7.60
   0  13   6  145.69    7.40
  -1 -13  -6   89.89    4.80
   1 -13   6   85.89    5.30
  -1 -13  -6   84.09    5.00
  -1  13  -6   95.19    4.60
   1  13   6   94.39    5.00
  -1  13  -6   88.69    5.00
   1  13   6   91.69    4.80
  -2 -13  -6   12.40    2.00
   2 -13   6   12.90    2.20
  -2 -13  -6   14.80    1.80
   2  13   6   21.10    2.00
   2  13   6   19.20    1.90
  -2  13  -6   21.30    1.90
  -2  13  -6   21.60    2.30
  -3 -13  -6   32.80    2.90
   3 -13   6   33.50    3.40
  -3  13  -6   40.20    2.90
   3  13   6   38.00    2.90
  -3  13  -6   38.60    3.10
   4 -13   6    4.10    1.90
  -4 -13  -6    5.20    1.50
  -4  13  -6    6.70    1.70
   4  13   6    6.20    1.80
  -4  13  -6    7.20    1.70
   4  13   6    9.60    1.80
  -5 -13  -6    2.40    1.50
   5 -13   6    2.40    1.90
   5  13   6    1.00    1.80
  -5  13  -6    1.40    1.40
  -7 -14   6   -1.10    2.50
   7 -14  -6    0.70    1.90
   7  14  -6    0.20    1.70
  -7  14   6    1.50    2.00
   6 -14  -6   13.60    2.40
  -6 -14   6   12.20    3.00
  -6  14   6   12.70    2.40
   6  14  -6   12.20    2.50
   5 -14  -6   50.69    3.90
  -5 -14   6   47.90    4.50
   5  14  -6   49.50    3.90
  -5  14   6   46.30    3.90
  -4 -14   6   52.29    4.30
   4 -14  -6   51.39    3.70
   4  14  -6   44.00    3.40
  -4  14   6   40.10    2.90
  -4  14   6   39.80    3.30
  -3 -14   6   42.00    3.70
   3 -14  -6   41.70    3.30
   3  14  -6   46.80    3.20
  -3  14   6   46.20    3.20
   3  14  -6   49.90    3.20
  -3  14   6   48.70    3.30
  -2 -14   6  226.58   11.10
   2 -14  -6  214.08   10.50
  -2  14   6  215.68   10.40
  -2  14   6  217.68   10.40
   2  14  -6  228.38   10.60
   2  14  -6  223.28   10.40
   1 -14  -6   82.09    4.30
  -1 -14   6   74.59    4.70
   1  14  -6   68.19    4.20
  -1  14   6   73.29    4.10
  -1  14   6   69.29    4.20
   1  14  -6   65.59    3.90
   0 -14   6    5.50    1.70
   0 -14  -6    3.10    1.10
   0 -14   6    4.00    0.90
   0  14   6    3.40    1.00
   0  14   6    3.40    1.30
   0  14  -6    3.80    1.20
   0  14  -6    5.20    0.90
   1 -14   6    7.70    1.80
  -1 -14  -6   11.10    1.60
  -1  14  -6    8.70    1.20
   1  14   6    6.60    1.30
   1  14   6    7.40    1.50
  -1  14  -6    7.70    1.50
   2 -14   6   11.50    2.10
  -2 -14  -6    9.00    1.50
  -2 -14  -6   10.20    1.80
   2  14   6    8.00    1.50
  -2  14  -6    7.60    1.70
  -3 -14  -6    8.50    1.70
   3 -14   6    9.10    2.10
   3  14   6    4.10    1.50
  -3  14  -6    3.50    1.30
   3  14   6    5.60    1.40
  -3  14  -6    4.00    1.50
  -4 -14  -6   30.20    2.90
   4 -14   6   30.60    3.30
  -4  14  -6   28.20    2.80
   4  14   6   28.20    2.80
  -4  14  -6   29.40    2.90
   4  14   6   29.80    3.10
   5 -14   6   13.10    2.60
  -5 -14  -6   16.30    2.40
  -5  14  -6   17.50    2.60
   5  14   6   15.70    2.80
  -6 -15   6   48.60    5.20
   6 -15  -6   62.29    4.80
  -6  15   6   57.79    4.70
   6  15  -6   68.99    4.80
  -5 -15   6   57.29    5.10
   5 -15  -6   74.19    4.80
   5  15  -6   62.79    4.50
  -5  15   6   57.49    4.50
   4 -15  -6   14.60    2.30
  -4 -15   6   13.00    2.60
  -4  15   6   16.20    1.90
   4  15  -6   16.80    2.30
  -4  15   6   15.30    2.30
  -3 -15   6   31.90    3.50
   3 -15  -6   28.40    2.70
  -3  15   6   32.20    2.70
  -3  15   6   35.80    2.90
   3  15  -6   32.00    2.70
   3  15  -6   31.70    2.60
   2 -15  -6   15.00    2.00
  -2 -15   6   16.60    2.60
  -2  15   6   19.20    2.20
   2  15  -6   22.50    2.30
   2  15  -6   22.10    2.10
  -2  15   6   19.10    2.20
   1 -15  -6   38.70    2.90
  -1 -15   6   39.00    3.50
  -1  15   6   42.70    3.00
  -1  15   6   40.10    3.00
   1  15  -6   45.90    2.80
   1  15  -6   45.60    3.10
   0 -15   6  126.29    7.40
   0 -15   6  152.28    7.70
   0 -15  -6  131.69    7.00
   0  15   6  151.08    7.00
   0  15   6  133.29    7.10
   0  15  -6  148.79    7.30
   1 -15   6  221.68   11.70
  -1 -15  -6  241.78   11.40
  -1  15  -6  244.48   11.00
   1  15   6  257.87   11.60
  -1  15  -6  240.28   11.60
   1  15   6  245.68   11.30
  -2 -15  -6   15.80    1.90
   2 -15   6   14.40    2.30
  -2 -15  -6   15.20    2.10
  -2  15  -6   16.20    1.80
  -2  15  -6   18.40    2.30
   2  15   6   17.90    2.00
   3 -15   6   17.10    2.60
  -3 -15  -6   12.50    2.00
  -3  15  -6   16.30    2.30
   3  15   6   14.60    1.90
  -3  15  -6   16.30    2.00
   4 -15   6    4.10    2.00
  -4 -15  -6    4.70    1.60
  -4  15  -6    6.50    1.70
  -4  15  -6    6.50    1.60
   4  15   6    7.20    1.70
   4  15   6    5.80    1.90
   5 -15   6    1.00    1.90
  -5 -15  -6    1.60    1.50
  -5  15  -6    1.70    1.70
   5  15   6   -0.10    1.80
   6 -16  -6   23.60    3.20
  -6 -16   6   20.30    3.50
   6  16  -6   21.40    2.90
  -6  16   6   21.50    3.00
   5 -16  -6   47.60    4.00
  -5 -16   6   41.00    4.50
  -5  16   6   44.10    3.80
   5  16  -6   42.90    3.80
  -4 -16   6   56.89    4.70
   4 -16  -6   69.19    4.50
   4  16  -6   59.09    3.80
  -4  16   6   60.09    3.80
  -4  16   6   58.59    4.00
   4  16  -6   59.89    4.20
  -3 -16   6   72.39    5.20
   3 -16  -6   82.59    4.90
  -3  16   6   76.99    4.60
   3  16  -6   77.59    4.70
  -3  16   6   81.29    4.60
   3  16  -6   77.59    4.60
  -2 -16   6  126.59    6.60
   2 -16  -6  123.39    6.10
  -2  16   6  100.89    5.80
  -2  16   6  102.29    5.80
   2  16  -6  105.29    5.90
   2  16  -6  104.29    5.70
   1 -16  -6    1.10    1.00
  -1 -16   6    1.20    1.50
   1  16  -6    0.10    0.90
   1  16  -6    0.50    1.00
  -1  16   6    1.90    1.20
  -1  16   6    1.30    1.10
   0 -16  -6   35.30    2.90
   0 -16   6   38.20    3.30
   0  16   6   44.20    2.90
   0  16   6   47.20    3.20
   0  16  -6   44.30    3.20
   1 -16   6    6.10    1.70
  -1 -16  -6    5.80    1.40
   1  16   6    4.20    1.20
  -1  16  -6    3.70    1.40
   1  16   6    3.70    1.40
  -2 -16  -6   17.30    2.00
  -2 -16  -6   14.90    2.10
   2 -16   6   14.40    2.40
   2  16   6   13.00    1.80
   2  16   6   11.30    1.80
  -2  16  -6   12.40    1.60
  -2  16  -6   12.50    1.90
   3 -16   6   16.30    2.60
  -3 -16  -6   20.00    2.30
   3  16   6   14.00    1.90
  -3  16  -6   10.40    2.00
  -3  16  -6   13.50    1.90
  -4 -16  -6   43.50    3.40
   4 -16   6   44.60    4.10
  -4  16  -6   38.50    3.40
  -4  16  -6   33.90    3.30
   4  16   6   35.60    3.20
  -5 -16  -6   12.00    2.20
   5 -16   6   10.60    2.70
   5  16   6    8.50    2.50
  -5  16  -6   11.80    2.30
   6 -17  -6   39.90    4.10
  -6 -17   6   33.30    4.40
   6  17  -6   41.50    4.00
  -6  17   6   41.90    4.10
  -5 -17   6   31.40    4.00
   5 -17  -6   43.50    3.70
   5  17  -6   33.60    3.30
  -5  17   6   38.20    3.40
  -4 -17   6    6.80    2.30
   4 -17  -6    7.80    1.80
  -4  17   6    9.90    1.70
   4  17  -6    9.10    1.70
  -4  17   6   13.00    2.20
   4  17  -6    9.20    2.00
  -3 -17   6   29.80    3.50
   3 -17  -6   30.00    3.00
  -3  17   6   27.80    2.50
  -3  17   6   28.20    2.70
   3  17  -6   28.10    2.60
   3  17  -6   27.90    2.70
   2 -17  -6   85.29    5.00
  -2 -17   6   74.39    5.20
  -2  17   6   85.49    4.80
   2  17  -6   82.89    4.90
   2  17  -6   87.59    4.80
  -2  17   6   83.79    4.90
  -1 -17   6   68.09    4.60
   1 -17  -6   71.99    4.30
   1  17  -6   64.99    4.30
  -1  17   6   67.69    4.10
   1  17  -6   65.59    3.90
  -1  17   6   66.29    4.20
   0 -17   6  149.19    7.80
   0 -17  -6  139.19    7.30
   0  17  -6  140.09    7.50
   0  17   6  140.89    7.40
   0  17   6  149.79    7.20
  -1 -17  -6  190.78    9.30
   1 -17   6  182.88    9.70
  -1  17  -6  194.98    9.60
   1  17   6  188.98    9.40
   1  17   6  191.38    9.10
  -2 -17  -6   35.30    2.90
   2 -17   6   35.10    3.40
   2  17   6   32.70    2.70
  -2  17  -6   31.70    3.00
   2  17   6   30.50    2.90
  -3 -17  -6   24.20    2.70
   3 -17   6   22.90    3.10
  -3  17  -6   23.10    2.70
   3  17   6   19.00    2.30
  -4 -17  -6    1.80    1.50
   4 -17   6    3.80    2.00
  -4  17  -6    5.40    1.80
   4  17   6    5.30    1.60
  -4  17  -6    3.70    1.60
  -5 -17  -6    0.10    1.50
   5 -17   6    0.80    2.00
  -5  17  -6   -1.00    1.60
  -6 -18   6    9.90    3.20
   6 -18  -6   10.50    2.60
   6  18  -6    8.10    2.30
  -6  18   6    8.60    2.40
   5 -18  -6   14.70    2.50
  -5 -18   6   18.30    3.40
  -5  18   6   22.90    2.90
   5  18  -6   20.40    2.90
  -4 -18   6   50.19    4.70
   4 -18  -6   53.89    4.10
   4  18  -6   48.40    3.80
  -4  18   6   47.80    3.60
   4  18  -6   51.59    3.60
  -4  18   6   49.99    3.50
   3 -18  -6   58.99    4.10
  -3 -18   6   50.59    4.30
   3  18  -6   58.39    3.90
   3  18  -6   57.09    3.80
  -3  18   6   55.49    3.70
  -3  18   6   54.49    3.70
   2 -18  -6   53.99    3.70
  -2 -18   6   48.20    4.10
  -2  18   6   46.60    3.40
   2  18  -6   46.20    3.50
  -2  18   6   44.90    3.30
   2  18  -6   46.30    3.30
  -1 -18   6   35.50    3.50
   1 -18  -6   30.00    2.90
   1  18  -6   42.90    2.90
   1  18  -6   45.70    3.30
  -1  18   6   40.90    3.20
  -1  18   6   40.10    2.90
   0 -18   6   36.50    3.40
   0 -18  -6   35.40    2.90
   0  18   6   37.70    3.10
   0  18   6   40.10    2.80
   0  18  -6   34.60    3.20
   1 -18   6    3.20    1.50
  -1 -18  -6    3.60    1.30
   1  18   6    3.10    1.40
   1  18   6    4.60    1.20
  -1  18  -6    1.90    1.30
   2 -18   6   14.00    2.40
  -2 -18  -6   17.30    2.20
  -2  18  -6    9.40    2.00
   2  18   6   12.80    2.10
   2  18   6   13.30    1.90
  -3 -18  -6   33.10    3.10
   3 -18   6   31.50    3.50
  -3  18  -6   29.70    3.10
   3  18   6   26.40    2.70
   4 -18   6   38.80    3.90
  -4 -18  -6   34.40    3.20
  -4  18  -6   32.40    3.20
  -4  18  -6   37.40    3.60
   4  18   6   32.90    3.20
   6 -19  -6   29.60    3.80
  -6 -19   6   31.60    4.40
   6  19  -6   32.40    3.80
  -6  19   6   25.90    3.30
  -5 -19   6   33.20    4.30
   5 -19  -6   38.30    3.90
  -5  19   6   37.20    3.60
   5  19  -6   40.20    3.70
  -4 -19   6    9.70    2.70
   4 -19  -6   11.00    2.30
  -4  19   6   12.00    1.90
  -4  19   6    9.90    1.90
   4  19  -6   11.40    1.90
   4  19  -6   12.70    2.10
  -3 -19   6   10.70    2.60
   3 -19  -6    9.40    1.90
  -3  19   6   11.20    1.90
  -3  19   6   12.20    1.90
   3  19  -6   13.90    2.10
   3  19  -6   10.40    1.80
   2 -19  -6   20.70    2.50
  -2 -19   6   27.40    3.30
   2  19  -6   18.60    2.30
  -2  19   6   18.40    2.20
  -2  19   6   18.90    2.30
   2  19  -6   18.00    2.30
  -1 -19   6   20.90    2.90
   1 -19  -6   20.90    2.30
   1  19  -6   11.70    2.00
  -1  19   6   14.90    1.90
  -1  19   6   11.40    2.00
   1  19  -6   15.10    1.90
   0 -19   6   52.99    4.00
   0 -19  -6   53.79    3.80
   0  19   6   55.39    3.80
   0  19   6   55.59    3.50
   0  19  -6   52.89    3.90
  -1 -19  -6  176.28    8.60
   1 -19   6  153.38    8.80
  -1  19  -6  171.38    8.80
   1  19   6  175.98    8.40
   1  19   6  167.98    8.70
   2 -19   6   72.29    5.00
  -2 -19  -6   77.99    4.70
  -2  19  -6   73.39    4.90
   2  19   6   73.49    4.80
   2  19   6   77.29    4.50
  -3 -19  -6   31.50    3.50
   3 -19   6   30.20    3.20
  -3 -19  -6   28.20    2.90
   3  19   6   23.70    2.60
  -3  19  -6   22.20    2.80
   4 -19   6    4.50    2.00
  -4 -19  -6    3.90    1.70
   4  19   6    5.20    1.70
  -4  19  -6    4.70    1.80
  -6 -20   6   -1.00    2.60
   6 -20  -6    1.70    2.00
   6  20  -6    0.90    1.90
  -6  20   6    2.60    2.00
   5 -20  -6   13.90    2.70
  -5 -20   6   16.30    3.40
  -5  20   6   18.00    2.80
   5  20  -6   16.20    2.60
   4 -20  -6   37.00    3.50
  -4 -20   6   37.00    4.20
   4  20  -6   28.90    2.80
  -4  20   6   29.70    3.10
   4  20  -6   28.90    3.20
  -4  20   6   31.50    2.90
  -3 -20   6   48.10    4.60
   3 -20  -6   53.99    4.10
   3  20  -6   49.90    3.70
  -3  20   6   51.79    3.70
   3  20  -6   51.89    3.90
  -3  20   6   54.79    3.80
   2 -20  -6   22.70    2.60
  -2 -20   6   24.20    3.10
  -2  20   6   19.60    2.50
  -2  20   6   19.90    2.30
   2  20  -6   18.90    2.30
   2  20  -6   20.50    2.40
  -1 -20   6   34.20    3.60
   1 -20  -6   35.80    3.20
  -1  20   6   37.20    3.20
   1  20  -6   39.90    2.90
  -1  20   6   41.70    3.00
   1  20  -6   36.20    3.30
   0 -20  -6   62.49    4.20
   0 -20   6   59.69    4.60
   0  20   6   61.79    4.10
   0  20   6   63.29    3.80
   0  20  -6   55.99    4.10
   1 -20   6    5.20    1.70
  -1 -20  -6    3.70    1.50
   1  20   6    5.10    1.30
  -1  20  -6    6.40    1.80
   1  20   6    5.30    1.50
   2 -20   6    6.10    2.00
  -2 -20  -6    6.30    1.70
  -2  20  -6    3.70    1.70
   2  20   6    4.10    1.60
   2  20   6    3.00    1.40
  -3 -20  -6   18.70    2.70
  -3 -20  -6   16.80    2.40
   3 -20   6   17.70    2.90
   3  20   6   13.20    2.00
   3  20   6   13.80    2.30
  -3  20  -6   14.90    2.40
  -4 -20  -6   22.50    2.80
   4 -20   6   22.10    3.30
  -4  20  -6   23.80    2.90
   4  20   6   26.50    3.40
  -5 -21   6   17.80    3.70
   5 -21  -6   25.60    3.30
   5  21  -6   24.10    3.20
  -5  21   6   26.90    3.20
   4 -21  -6   17.70    2.70
  -4 -21   6   14.40    3.10
   4  21  -6   17.40    2.60
  -4  21   6   15.00    2.20
  -4  21   6   14.60    2.30
   4  21  -6   14.40    2.20
   3 -21  -6    3.20    1.70
  -3 -21   6    4.80    2.30
   3  21  -6    2.60    1.50
   3  21  -6   -0.20    1.30
  -3  21   6    4.30    1.60
  -3  21   6    3.90    1.50
   2 -21  -6   21.20    2.60
  -2 -21   6   22.10    3.10
  -2  21   6   19.00    2.50
   2  21  -6   17.20    2.30
   2  21  -6   19.60    2.40
  -2  21   6   17.10    2.10
   1 -21  -6   41.80    3.20
  -1 -21   6   43.60    3.80
   1  21  -6   28.30    2.70
   1  21  -6   31.40    3.00
  -1  21   6   33.90    3.00
  -1  21   6   36.00    2.80
   0 -21   6   28.10    3.10
   0 -21  -6   34.40    3.00
   0  21   6   29.90    2.60
   0  21  -6   28.40    3.10
   0  21   6   30.50    3.00
   1 -21   6  130.49    7.80
  -1 -21  -6  143.19    7.60
   1  21   6  140.29    7.60
   1  21   6  149.99    7.30
  -1  21  -6  139.79    7.80
   2 -21   6   39.00    3.80
  -2 -21  -6   38.40    3.30
  -2  21  -6   34.70    3.50
   2  21   6   38.90    3.00
   2  21   6   42.90    3.50
   3 -21   6   17.30    2.80
  -3 -21  -6   20.00    2.60
   3  21   6   18.70    2.30
   3  21   6   16.60    2.40
  -3  21  -6   15.60    2.50
   4 -21   6    5.30    2.10
  -4 -21  -6    6.90    1.90
  -4  21  -6   10.10    2.20
   5 -22  -6    7.10    2.30
  -5 -22   6    7.10    3.00
   5  22  -6    9.60    2.40
  -5  22   6   12.20    2.50
  -4 -22   6   14.80    3.20
   4 -22  -6   17.20    2.80
  -4  22   6   12.40    2.20
  -4  22   6   11.10    2.00
   4  22  -6   12.00    2.30
   4  22  -6   10.20    2.10
   3 -22  -6   70.89    4.90
  -3 -22   6   68.69    5.30
  -3  22   6   63.69    4.40
   3  22  -6   67.89    4.60
   3  22  -6   63.59    4.50
  -3  22   6   73.69    4.60
   2 -22  -6   60.39    4.30
  -2 -22   6   61.49    4.90
   2  22  -6   55.39    4.00
  -2  22   6   56.09    4.10
  -2  22   6   56.29    3.90
   2  22  -6   58.39    4.20
  -1 -22   6   37.50    3.80
   1 -22  -6   35.10    3.20
  -1  22   6   32.90    2.80
   1  22  -6   35.20    3.20
  -1  22   6   33.50    3.10
   0 -22   6   30.20    3.40
   0 -22  -6   29.30    3.00
   0  22   6   27.40    3.00
   0  22  -6   27.00    3.10
   0  22   6   29.50    2.60
  -1 -22  -6    1.20    1.40
   1 -22   6    2.00    1.70
   1  22   6   -0.60    1.30
  -1  22  -6    0.30    1.50
   1  22   6    0.70    1.10
  -2 -22  -6    5.90    1.80
   2 -22   6    7.60    2.10
   2  22   6    4.70    1.50
   2  22   6    4.70    1.70
  -2  22  -6    3.00    1.50
  -3 -22  -6   14.90    2.40
   3 -22   6   10.90    2.30
  -3  22  -6   13.60    2.50
   3  22   6   12.50    2.30
   5 -23  -6   15.80    3.00
  -5 -23   6   14.00    3.20
   5  23  -6   12.50    2.60
  -5  23   6   15.10    2.70
   4 -23  -6   28.60    3.50
  -4 -23   6   27.30    4.00
   4  23  -6   27.40    3.20
   4  23  -6   25.90    2.90
  -4  23   6   20.30    2.60
  -4  23   6   25.70    2.90
   3 -23  -6    9.20    2.20
  -3 -23   6    9.60    2.50
  -3  23   6    7.90    1.80
   3  23  -6    6.60    1.80
  -3  23   6    7.80    1.90
   3  23  -6    7.00    1.90
   2 -23  -6   17.80    2.60
  -2 -23   6   22.70    3.30
  -2  23   6   19.70    2.30
  -2  23   6   20.60    2.60
   2  23  -6   23.20    2.70
   2  23  -6   20.30    2.70
   1 -23  -6   45.50    3.60
  -1 -23   6   41.30    4.00
  -1  23   6   31.80    3.20
   1  23  -6   36.70    3.50
  -1  23   6   36.60    3.00
   0 -23  -6   64.09    4.40
   0 -23   6   61.39    4.70
   0  23   6   54.59    4.30
   0  23  -6   56.69    4.30
   0  23   6   60.39    3.80
   1 -23   6   50.89    4.30
  -1 -23  -6   57.89    4.20
   1  23   6   61.19    3.90
   1  23   6   57.19    4.30
  -1  23  -6   63.59    4.50
   2 -23   6   36.40    3.70
  -2 -23  -6   30.50    3.10
  -2  23  -6   30.60    3.40
   2  23   6   28.20    3.20
   3 -23   6   18.10    2.80
  -3 -23  -6   15.00    2.40
   3  23   6   15.40    2.50
  -3  23  -6   13.50    2.50
  -4 -24   6   10.10    3.00
   4 -24  -6   10.60    2.60
  -4  24   6   10.50    2.10
  -4  24   6   13.10    2.30
   4  24  -6   11.30    2.40
   4  24  -6   10.60    2.20
   3 -24  -6  106.29    6.70
  -3 -24   6  110.89    7.30
  -3  24   6  116.29    6.40
   3  24  -6  113.89    6.60
   3  24  -6  108.99    6.50
  -3  24   6  112.19    6.50
  -2 -24   6  106.79    6.70
   2 -24  -6  105.59    6.30
  -2  24   6   99.99    6.10
   2  24  -6   97.89    6.20
   2  24  -6  104.79    6.10
  -2  24   6  102.39    5.80
  -1 -24   6   42.00    3.90
   1 -24  -6   42.50    3.70
  -1 -24   6   41.40    3.60
   1  24  -6   40.20    3.70
  -1  24   6   37.10    3.50
  -1  24   6   40.20    3.10
   0 -24  -6   14.50    2.40
   0 -24   6   15.70    2.70
   0  24   6   12.50    1.90
   0  24   6   12.80    2.20
   0  24  -6   10.50    2.20
   1 -24   6    1.00    1.80
  -1 -24  -6    0.40    1.50
   1  24   6   -1.00    1.40
  -1  24  -6    1.00    1.60
  -2 -24  -6    6.40    1.90
   2 -24   6    6.70    2.00
   2  24   6    7.30    2.00
  -2  24  -6    7.10    2.10
   3 -24   6   13.40    2.60
  -3 -24  -6   15.20    2.60
  -3  24  -6   17.00    2.70
   3  24   6   14.90    2.40
  -4 -25   6   16.20    3.30
   4 -25  -6   18.20    3.10
   4  25  -6   14.00    2.50
   4  25  -6   15.90    2.80
  -4  25   6   14.20    2.50
  -4  25   6   18.50    2.70
  -3 -25   6    8.60    2.70
   3 -25  -6   10.40    2.40
  -3  25   6    9.10    2.00
   3  25  -6    7.40    2.00
   3  25  -6    6.90    2.00
  -3  25   6    7.30    2.00
  -2 -25   6   13.10    2.90
   2 -25  -6   13.80    2.40
   2  25  -6   13.90    2.30
   2  25  -6   10.10    2.20
  -2  25   6   12.90    2.00
  -2  25   6    8.10    1.90
  -1 -25   6   21.20    3.20
   1 -25  -6   21.30    2.90
  -1  25   6   17.50    2.20
  -1  25   6   20.80    2.70
   1  25  -6   18.70    2.70
   0 -25   6   38.50    3.90
   0 -25  -6   37.30    3.50
   0  25  -6   31.10    3.60
   0  25   6   35.80    3.50
  -1 -25  -6   31.70    3.30
   1 -25   6   30.10    3.60
  -1  25  -6   24.50    3.10
   1  25   6   27.10    3.20
   2 -25   6   30.90    3.70
  -2 -25  -6   30.40    3.30
   2  25   6   29.10    3.30
  -2  25  -6   32.30    3.60
   3 -26  -6  114.49    6.70
  -3 -26   6  113.09    7.40
  -3  26   6  103.19    6.20
  -3  26   6  101.29    6.40
   3  26  -6  108.59    6.60
   3  26  -6  102.89    6.50
   2 -26  -6   55.19    4.40
  -2 -26   6   54.99    5.00
   2  26  -6   51.79    4.10
  -2  26   6   53.09    3.80
  -2  26   6   53.79    4.20
   2  26  -6   50.69    4.30
   1 -26  -6   34.00    3.50
  -1 -26   6   32.30    3.90
   1  26  -6   31.70    3.60
  -1  26   6   34.80    3.50
   0 -26   6   18.00    2.90
   0 -26  -6   18.40    2.70
   0  26   6   14.30    2.50
   0  26  -6   13.60    2.40
   1 -26   6    0.10    1.70
  -1 -26  -6    1.40    1.70
   1  26   6    1.30    1.50
  -1  26  -6    2.20    1.90
  -2 -26  -6    5.30    1.90
   2 -26   6    4.50    2.00
  -2  26  -6    4.40    2.10
   2  26   6    5.40    1.90
  -3 -27   6   10.30    3.00
   3 -27  -6   12.20    2.60
  -3  27   6   14.30    2.30
   3  27  -6    9.00    2.40
  -3  27   6   10.00    2.20
   3  27  -6    9.20    2.30
   2 -27  -6    2.90    1.80
  -2 -27   6    0.00    2.10
  -2 -27   6    2.40    1.80
  -2  27   6    2.90    1.80
   2  27  -6    4.10    1.90
  -1 -27   6   12.30    2.70
   1 -27  -6    8.60    2.20
   1  27  -6    9.70    2.30
  -1  27   6   10.20    2.20
   0 -27  -6   49.30    4.30
   0 -27   6   48.30    4.50
   0  27  -6   56.59    4.60
   0  27   6   53.39    4.40
   1 -27   6   54.69    4.50
  -1 -27  -6   51.59    4.30
  -1  27  -6   45.00    4.40
   1  27   6   45.70    4.20
  -2 -28   6   20.00    2.90
  -2 -28   6   19.50    3.30
   2 -28  -6   19.10    3.00
   2  28  -6   21.00    2.90
  -2  28   6   19.20    2.70
  -1 -28   6   29.80    3.70
   1 -28  -6   27.90    3.40
   1  28  -6   29.10    3.60
  -1  28   6   28.10    3.30
   0 -28  -6   19.30    2.80
   0 -28   6   19.20    3.00
   0  28   6   20.60    3.00
   0  28  -6   15.50    2.70
  -1 -28  -6    3.10    1.90
   1 -28   6    4.70    2.10
   1  28   6    3.00    1.90
  -1  28  -6    0.90    1.90
  -7   0   7    3.70    1.80
   7   0  -7    5.80    2.00
   6   0  -7   29.50    3.20
  -6   0   7   29.30    2.90
  -5   0   7  103.89    5.80
   5   0  -7  108.79    6.00
  -5   0   7  105.49    5.90
  -4   0   7  153.08    7.70
   4   0  -7  152.68    7.50
  -4   0   7  159.88    7.80
   4   0  -7  160.38    7.90
  -3   0   7  124.49    6.20
   3   0  -7  116.29    6.10
   3   0  -7  121.09    6.00
  -3   0   7  117.09    6.00
  -2   0   7  180.78    8.90
  -2   0   7  194.98    9.00
   2   0  -7  191.78    9.10
   2   0  -7  196.28    8.90
   1   0  -7    2.70    0.80
  -1   0   7    3.00    0.90
  -1   0   7    3.70    1.00
   1   0  -7    2.90    1.20
   0   0  -7   33.30    2.50
   0   0   7   32.30    2.30
   0   0   7   35.70    2.40
   1   0   7   40.10    2.80
   1   0   7   38.10    2.60
  -1   0  -7   37.00    2.80
  -2   0  -7   78.89    4.70
   2   0   7   84.79    4.80
   2   0   7   83.19    4.60
   3   0   7   12.30    2.00
  -3   0  -7   11.80    1.70
   3   0   7    9.10    1.50
  -4   0  -7  120.49    6.70
  -4   0  -7  115.69    6.50
   4   0   7  127.59    7.10
  -5   0  -7   44.70    3.80
   5   0   7   51.19    4.40
  -7  -1   7   29.50    3.30
   7  -1  -7   31.40    3.60
   7   1  -7   30.40    3.30
  -7   1   7   27.40    3.30
   6  -1  -7   16.30    2.40
  -6  -1   7   15.00    2.50
  -6  -1   7   17.10    2.40
   6   1  -7   21.30    2.80
  -6   1   7   18.40    2.50
  -5  -1   7   10.60    1.80
   5  -1  -7    9.20    1.80
  -5  -1   7    5.30    1.60
  -5   1   7   11.60    1.90
   5   1  -7   10.40    1.90
  -5   1   7   11.30    2.00
   4  -1  -7  112.49    5.80
  -4  -1   7  118.09    6.00
   4  -1  -7  114.89    6.20
   4   1  -7  110.09    6.10
   4   1  -7  118.49    5.80
  -4   1   7  115.39    6.00
  -4   1   7  119.09    6.10
   3  -1  -7   74.49    4.00
   3  -1  -7   67.89    4.00
  -3  -1   7   68.49    4.00
  -3  -1   7   65.29    4.10
   3   1  -7   75.69    4.00
   3   1  -7   72.59    4.00
  -3   1   7   73.59    4.10
  -3   1   7   73.89    4.10
   2  -1  -7  122.29    6.70
  -2  -1   7  126.19    6.70
   2  -1  -7  130.79    6.90
   2   1  -7  159.98    6.80
  -2   1   7  142.49    6.90
  -2   1   7  149.39    6.80
   2   1  -7  154.88    7.00
  -1  -1   7  839.22   41.40
  -1  -1   7  953.70   41.40
   1  -1  -7  978.60   41.20
   1  -1  -7 1020.50   41.70
   1   1  -7  944.61   41.60
   1   1  -7  970.10   41.10
  -1   1   7  986.60   41.40
  -1   1   7  990.30   41.50
   0  -1   7  134.99    6.50
   0  -1   7  125.59    6.30
   0  -1  -7  133.39    6.60
   0   1   7  129.99    6.40
   0   1  -7  129.09    6.60
   1   1   7   17.80    1.90
  -1   1  -7   18.20    1.90
   1   1   7   17.90    1.70
  -2  -1  -7   18.90    2.10
   2  -1   7   21.80    1.90
   2  -1   7   19.40    2.20
   2   1   7   17.70    2.10
   2   1   7   15.20    1.80
  -2   1  -7   19.60    2.20
   3  -1   7   -1.00    1.10
   3  -1   7    0.00    0.90
  -3  -1  -7    0.00    1.00
   3   1   7   -0.90    1.10
  -3   1  -7    0.20    0.90
   3   1   7    0.30    0.90
  -4  -1  -7    4.40    1.50
  -4  -1  -7    1.00    1.20
   4  -1   7    3.00    1.60
   4   1   7    2.50    1.50
  -4   1  -7    1.90    1.40
  -4   1  -7    1.30    1.20
   5  -1   7   26.10    3.40
  -5  -1  -7   32.20    3.20
  -5   1  -7   28.80    2.90
   5   1   7   32.20    3.70
  -7  -2   7    6.50    2.00
  -7  -2   7    6.30    2.50
   7  -2  -7    5.90    2.00
   7   2  -7   11.10    2.40
  -7   2   7    9.10    2.30
   6  -2  -7   17.80    2.50
  -6  -2   7   21.30    2.60
  -6  -2   7   23.10    3.00
   6   2  -7   17.80    2.50
  -6   2   7   23.70    2.80
  -5  -2   7   84.29    5.10
   5  -2  -7   88.69    5.10
  -5  -2   7   86.09    4.70
   5   2  -7   77.89    4.90
  -5   2   7   68.29    4.70
  -5   2   7   73.29    4.80
  -4  -2   7   72.69    4.00
  -4  -2   7   67.59    4.30
   4  -2  -7   69.59    3.80
   4  -2  -7   68.99    4.10
   4   2  -7   63.09    4.10
  -4   2   7   61.49    4.00
  -4   2   7   59.59    3.90
   4   2  -7   67.19    3.80
  -3  -2   7   14.50    1.90
  -3  -2   7   16.10    1.70
   3  -2  -7   15.60    1.80
   3  -2  -7   16.90    1.80
  -3   2   7   16.30    1.90
   3   2  -7   18.00    1.80
   3   2  -7   17.80    1.80
  -3   2   7   16.40    1.90
   2  -2  -7   83.39    4.40
  -2  -2   7   77.69    4.20
  -2  -2   7   79.99    4.40
   2  -2  -7   78.49    4.10
   2   2  -7   72.99    4.10
  -2   2   7   77.39    4.30
   2   2  -7   77.09    4.30
  -2   2   7   78.49    4.10
  -1  -2   7  128.39    6.50
   1  -2  -7  143.39    6.90
   1  -2  -7  136.09    6.40
  -1  -2   7  140.99    6.70
   1   2  -7  134.99    6.30
  -1   2   7  134.29    6.70
  -1   2   7  135.19    6.50
   1   2  -7  131.19    6.80
   0  -2   7   49.99    3.00
   0  -2  -7   49.99    2.70
   0  -2   7   48.70    3.20
   0  -2  -7   51.59    3.30
   0   2   7   55.79    3.10
   0   2  -7   58.29    3.40
   0   2   7   55.89    3.20
   1  -2   7   44.10    3.10
   1  -2   7   43.10    2.90
  -1  -2  -7   44.30    3.20
   1   2   7   53.89    3.10
   1   2   7   53.99    3.10
  -1   2  -7   49.20    3.20
   2  -2   7   92.49    5.00
   2  -2   7   95.59    5.30
  -2  -2  -7  100.19    5.30
  -2   2  -7   93.19    5.20
   2   2   7   87.89    5.00
   2   2   7   91.99    5.20
   3  -2   7   22.20    2.40
   3  -2   7   22.40    2.40
  -3  -2  -7   19.70    2.20
   3   2   7   20.80    2.10
  -3   2  -7   19.30    2.20
   3   2   7   22.20    2.50
   4  -2   7  127.79    7.10
  -4  -2  -7  121.69    6.80
  -4  -2  -7  118.19    6.50
  -4   2  -7  123.69    6.60
   4   2   7  124.19    7.10
  -4   2  -7  127.59    6.80
   5  -2   7   48.30    4.30
  -5  -2  -7   43.40    3.60
   5   2   7   45.10    4.20
  -5   2  -7   42.00    3.60
  -7  -3   7   19.00    2.70
   7  -3  -7   17.90    2.90
  -7  -3   7   15.80    3.10
   7   3  -7   24.40    3.20
  -7   3   7   24.10    3.10
   6  -3  -7   19.60    2.60
  -6  -3   7   17.30    2.70
  -6  -3   7   16.80    2.30
  -6   3   7   21.50    2.70
   6   3  -7   23.20    2.90
  -5  -3   7    5.40    1.80
  -5  -3   7    7.40    1.60
   5  -3  -7    6.80    1.60
   5   3  -7    5.80    1.60
  -5   3   7    8.00    1.80
  -4  -3   7  169.38    8.10
   4  -3  -7  171.68    8.00
  -4  -3   7  164.68    8.40
   4  -3  -7  167.28    8.30
  -4   3   7  161.48    8.00
   4   3  -7  168.38    7.90
   4   3  -7  160.58    8.30
  -4   3   7  162.68    8.20
  -3  -3   7  148.49    7.20
   3  -3  -7  148.09    7.40
  -3  -3   7  152.88    7.60
   3  -3  -7  151.18    7.30
  -3   3   7  150.68    7.40
   3   3  -7  151.68    7.40
   3   3  -7  149.49    7.30
  -3   3   7  144.29    7.10
  -2  -3   7   67.49    3.90
   2  -3  -7   66.29    4.10
   2  -3  -7   64.49    3.90
  -2  -3   7   69.09    4.20
  -2   3   7   86.39    4.20
  -2   3   7   90.99    4.00
  -1  -3   7  493.65   22.20
  -1  -3   7  521.85   22.50
   1  -3  -7  512.85   22.10
   1  -3  -7  512.55   22.50
  -1   3   7  517.85   22.40
  -1   3   7  509.75   22.20
   1   3  -7  508.55   22.00
   1   3  -7  484.85   22.50
   0  -3   7  167.78    8.20
   0  -3  -7  166.78    8.30
   0  -3  -7  161.78    7.60
   0  -3   7  163.58    8.00
   0   3   7  172.88    8.10
   0   3   7  170.78    8.00
   0   3  -7  179.88    8.30
   1   3   7   26.30    2.10
   1   3   7   21.30    1.90
  -1   3  -7   22.20    2.10
  -2  -3  -7   22.90    2.20
   2   3   7   15.10    1.80
   2   3   7   17.40    2.10
  -2   3  -7   16.00    2.00
   3  -3   7    2.70    1.20
   3  -3   7    1.80    1.50
  -3  -3  -7    2.60    1.20
   3   3   7    4.40    1.50
  -3   3  -7    2.70    1.20
   3   3   7    2.10    1.10
  -4  -3  -7    2.80    1.30
  -4  -3  -7    0.00    1.10
   4  -3   7    1.90    1.50
   4   3   7    1.90    1.20
   4   3   7    1.10    1.50
  -4   3  -7    0.30    1.10
  -4   3  -7    0.40    1.10
   5  -3   7   23.80    3.40
  -5  -3  -7   22.70    2.80
  -5   3  -7   23.80    2.80
   5   3   7   22.90    3.00
  -7  -4   7    5.70    2.00
   7  -4  -7    6.90    2.20
  -7  -4   7    4.20    2.30
   7   4  -7   11.50    2.50
  -7   4   7    7.00    2.20
   6  -4  -7    4.50    1.70
  -6  -4   7    4.40    1.60
  -6  -4   7    2.50    2.00
   6   4  -7    4.10    1.50
  -6   4   7    5.20    1.90
  -5  -4   7   21.20    2.20
   5  -4  -7   23.30    2.70
  -5  -4   7   21.10    2.70
  -5   4   7   16.00    2.20
   5   4  -7   18.40    2.40
   4  -4  -7   51.49    3.20
   4  -4  -7   49.50    3.40
  -4  -4   7   48.60    3.70
  -4  -4   7   51.59    3.30
   4   4  -7   53.89    3.50
  -4   4   7   49.99    3.50
   4   4  -7   51.59    3.20
   3  -4  -7   19.90    2.00
   3  -4  -7   18.70    2.00
  -3  -4   7   20.50    2.40
  -3  -4   7   17.90    1.80
  -3   4   7   19.70    1.80
  -3   4   7   19.70    2.10
   3   4  -7   19.20    2.00
   3   4  -7   19.40    1.90
   2  -4  -7   78.09    3.90
  -2  -4   7   79.19    4.20
   2  -4  -7   73.09    4.00
  -2  -4   7   74.79    3.80
  -2   4   7   63.49    3.60
   2   4  -7   61.79    3.80
   2   4  -7   66.79    3.70
  -2   4   7   58.29    3.80
   1  -4  -7   43.60    2.70
  -1  -4   7   47.80    3.10
   1  -4  -7   48.90    3.10
  -1  -4   7   48.90    2.80
  -1   4   7   42.70    2.60
   1   4  -7   45.20    3.10
   1   4  -7   43.50    2.50
  -1   4   7   44.30    2.90
   0  -4  -7   37.50    2.80
   0  -4   7   38.10    2.50
   0  -4   7   39.30    2.90
   0  -4  -7   41.70    2.30
   0   4   7   44.20    2.60
   0   4   7   47.60    2.80
   0   4  -7   46.20    3.00
   1  -4   7   35.40    2.90
  -1  -4  -7   33.00    2.70
   1  -4   7   39.70    2.60
   1   4   7   45.20    2.80
  -1   4  -7   41.70    2.80
   2  -4   7  111.19    5.50
  -2  -4  -7  103.49    5.60
   2  -4   7  108.19    5.80
  -2   4  -7   96.29    5.50
   2   4   7  104.59    5.60
   2   4   7   92.59    5.40
   3  -4   7   57.49    4.10
  -3  -4  -7   52.59    3.70
   3  -4   7   52.89    3.50
   3   4   7   52.89    3.60
   3   4   7   57.19    3.90
  -3   4  -7   54.69    3.60
  -3   4  -7   58.49    3.70
  -4  -4  -7  107.19    5.90
  -4  -4  -7  115.79    6.30
   4  -4   7  111.79    6.50
   4   4   7  109.29    6.40
  -4   4  -7   99.09    5.90
   4   4   7  106.39    6.10
  -4   4  -7  102.89    6.10
  -5  -4  -7   36.30    3.40
   5  -4   7   33.10    3.60
  -5   4  -7   30.50    3.10
   5   4   7   36.60    3.80
  -7  -5   7   28.20    3.80
   7  -5  -7   34.30    3.70
  -7  -5   7   32.40    3.80
   7   5  -7   39.80    3.90
  -7   5   7   34.50    3.50
  -6  -5   7   20.70    2.40
  -6  -5   7   17.60    2.90
   6  -5  -7   19.00    2.70
   6   5  -7   21.40    2.80
  -6   5   7   18.40    2.70
  -5  -5   7   43.90    3.00
   5  -5  -7   36.60    3.20
  -5  -5   7   40.80    3.60
  -5   5   7   33.50    3.20
   5   5  -7   34.30    3.10
  -4  -5   7   56.99    3.50
  -4  -5   7   63.29    4.20
   4  -5  -7   56.49    3.40
   4  -5  -7   49.90    3.60
   4   5  -7   60.89    3.50
  -4   5   7   61.49    3.90
   4   5  -7   61.79    3.80
   3  -5  -7   78.69    4.40
  -3  -5   7   83.99    4.80
  -3  -5   7   86.09    4.20
   3  -5  -7   77.99    4.40
  -3   5   7   71.19    4.40
   3   5  -7   74.39    4.30
   3   5  -7   73.79    4.30
   2  -5  -7  144.59    7.20
  -2  -5   7  135.99    7.00
   2  -5  -7  145.79    7.40
  -2  -5   7  140.49    7.50
   2   5  -7  157.08    7.20
   2   5  -7  168.38    7.50
  -2   5   7  156.98    6.90
  -1  -5   7  336.97   15.40
   1  -5  -7  335.27   15.00
   1  -5  -7  330.27   15.40
  -1  -5   7  330.97   15.10
   1   5  -7  349.17   14.90
   1   5  -7  355.26   15.50
  -1   5   7  334.97   15.30
  -1   5   7  342.77   15.00
   0  -5   7   93.29    5.20
   0  -5  -7   89.39    4.60
   0  -5  -7   91.89    5.20
   0  -5   7   95.89    4.90
   0   5   7  100.99    5.00
   0   5   7  101.09    4.80
   0   5  -7  101.19    5.20
   1  -5   7  126.69    6.30
  -1  -5  -7  137.69    6.40
   1  -5   7  125.89    6.00
   1   5   7  106.79    6.00
  -1   5  -7  111.79    6.20
   1   5   7  112.19    6.00
   2  -5   7   86.39    5.00
  -2  -5  -7   86.59    4.80
   2  -5   7   90.09    4.60
  -2   5  -7   74.29    4.60
   2   5   7   74.69    4.60
   2   5   7   75.19    4.60
   3  -5   7    1.00    1.40
  -3  -5  -7    1.90    1.10
  -3   5  -7    2.50    1.20
   3   5   7    1.80    1.10
   3   5   7    2.40    1.40
  -3   5  -7    2.60    1.10
   4  -5   7    2.10    1.60
  -4  -5  -7    1.70    1.20
  -4   5  -7    2.30    1.30
  -4   5  -7    2.00    1.20
   4   5   7    3.10    1.60
   4   5   7    2.70    1.40
   5  -5   7   15.90    2.90
  -5  -5  -7   12.30    2.20
  -5   5  -7   19.60    2.70
   5   5   7   17.20    2.80
   7  -6  -7   16.50    2.70
  -7  -6   7   11.40    2.90
   7   6  -7   15.40    2.80
  -7   6   7   18.80    3.00
  -6  -6   7   13.30    2.70
   6  -6  -7   16.80    2.60
  -6  -6   7   15.30    2.10
  -6   6   7   13.80    2.40
   6   6  -7   12.80    2.20
  -5  -6   7   27.90    2.40
   5  -6  -7   25.30    2.80
  -5  -6   7   27.80    3.20
  -5   6   7   26.00    2.90
   5   6  -7   26.90    2.80
  -4  -6   7   48.50    3.00
  -4  -6   7   55.89    3.80
   4  -6  -7   49.20    3.00
   4  -6  -7   52.99    3.40
  -4   6   7   40.30    3.30
   4   6  -7   39.60    2.90
   4   6  -7   36.50    3.10
  -3  -6   7   21.30    2.40
   3  -6  -7   15.50    1.90
   3  -6  -7   14.50    1.70
  -3  -6   7   20.40    1.80
   3   6  -7   15.60    1.80
   3   6  -7   15.50    1.80
  -3   6   7   14.00    1.80
   2  -6  -7   63.59    3.70
  -2  -6   7   61.89    3.90
   2  -6  -7   61.79    3.40
  -2  -6   7   59.69    3.20
  -2   6   7   52.69    3.50
   2   6  -7   51.79    3.50
   2   6  -7   53.99    3.30
   1  -6  -7    8.70    1.20
  -1  -6   7    7.20    1.10
  -1  -6   7    7.90    1.50
   1  -6  -7    8.80    1.50
  -1   6   7    9.40    1.10
   1   6  -7    6.20    0.90
   1   6  -7    5.40    1.30
  -1   6   7    7.70    1.30
   0  -6  -7   19.20    2.10
   0  -6   7   21.80    1.80
   0  -6   7   20.70    2.20
   0  -6  -7   18.30    1.50
   0   6  -7   23.00    2.10
   0   6   7   22.70    1.80
   0   6   7   22.20    1.90
   1  -6   7   15.10    1.70
   1  -6   7   13.10    2.00
  -1  -6  -7   14.90    2.00
  -1   6  -7   21.30    2.10
   1   6   7   23.30    2.00
   2  -6   7  128.19    6.50
   2  -6   7  130.89    7.00
  -2  -6  -7  133.29    6.80
   2   6   7  127.89    6.60
   2   6   7  121.99    6.50
  -2   6  -7  130.29    6.70
  -3  -6  -7  108.29    6.00
   3  -6   7  104.09    6.40
   3   6   7  108.09    6.00
  -3   6  -7  114.99    6.00
  -3   6  -7  110.69    6.00
   3   6   7  114.99    6.20
  -4  -6  -7   77.19    4.50
   4  -6   7   79.39    5.20
  -4   6  -7   68.49    4.60
   4   6   7   70.49    4.80
   4   6   7   68.89    4.50
  -4   6  -7   69.39    4.50
  -5  -6  -7   23.50    2.80
   5  -6   7   27.60    3.50
   5   6   7   28.20    3.40
  -5   6  -7   28.40    3.20
  -7  -7   7   37.60    4.50
   7  -7  -7   39.40    3.90
   7   7  -7   49.50    4.30
  -7   7   7   41.80    3.90
   6  -7  -7   23.50    2.90
  -6  -7   7   21.30    3.20
   6   7  -7   25.50    3.10
  -6   7   7   25.10    3.10
   5  -7  -7   93.19    5.50
  -5  -7   7   95.19    5.00
  -5  -7   7   92.39    5.80
  -5   7   7   80.39    5.20
   5   7  -7   88.19    5.40
  -4  -7   7   60.29    3.60
   4  -7  -7   63.69    4.00
  -4  -7   7   62.19    4.40
   4   7  -7   59.79    3.60
  -4   7   7   61.59    4.00
   4   7  -7   66.09    4.00
   3  -7  -7   89.29    4.70
   3  -7  -7   91.39    4.90
  -3  -7   7   92.39    5.20
  -3  -7   7   90.69    4.40
  -3   7   7   74.09    4.60
   3   7  -7   77.99    4.60
   3   7  -7   80.99    4.60
   2  -7  -7  169.48    8.70
  -2  -7   7  178.58    8.40
  -2  -7   7  176.88    9.00
   2  -7  -7  170.78    8.60
  -2   7   7  179.58    8.70
   2   7  -7  204.58    8.90
   2   7  -7  189.08    8.50
   1  -7  -7  187.18    8.90
   1  -7  -7  183.58    8.50
  -1  -7   7  177.28    8.40
  -1  -7   7  183.08    8.90
   1   7  -7  182.48    8.30
   1   7  -7  180.58    8.80
  -1   7   7  178.58    8.70
   0  -7   7  132.89    6.50
   0  -7   7  131.89    6.90
   0  -7  -7  133.19    6.30
   0  -7  -7  136.09    6.90
   0   7   7  129.09    6.70
   0   7   7  140.19    6.40
   0   7  -7  135.19    6.80
   1  -7   7  194.48    8.70
  -1  -7  -7  192.98    9.10
   1  -7   7  197.08    9.20
   1   7   7  175.78    8.70
   1   7   7  170.18    8.80
  -1   7  -7  178.48    9.00
   2  -7   7   88.49    4.80
   2  -7   7   91.89    5.20
  -2  -7  -7   96.59    5.10
  -2   7  -7   79.29    4.90
   2   7   7   80.49    4.80
  -3  -7  -7    2.20    1.20
   3  -7   7    1.90    1.30
   3   7   7    1.10    1.20
  -3   7  -7    2.50    1.20
   3   7   7    1.70    1.10
  -3   7  -7    1.80    1.20
   4  -7   7    7.60    2.00
  -4  -7  -7    7.00    1.60
  -4   7  -7    8.60    1.80
   4   7   7    9.10    2.10
  -4   7  -7    7.40    1.60
   4   7   7    8.60    1.70
   5  -7   7   13.80    2.60
  -5  -7  -7    7.70    1.80
  -5   7  -7   12.00    2.10
   5   7   7   11.60    2.50
  -7  -8   7   14.40    3.10
   7  -8  -7   14.40    2.60
   7   8  -7   17.20    2.90
  -7   8   7   13.30    2.80
  -6  -8   7   20.20    3.30
   6  -8  -7   21.00    2.90
   6   8  -7   30.60    3.00
  -6   8   7   26.60    3.00
  -5  -8   7   36.30    3.80
  -5  -8   7   42.50    4.20
   5  -8  -7   43.10    3.50
   5   8  -7   45.10    3.50
  -5   8   7   43.90    3.60
   4  -8  -7   70.89    4.40
  -4  -8   7   73.09    4.80
  -4  -8   7   70.29    3.90
   4   8  -7   67.49    4.00
  -4   8   7   67.19    4.30
   4   8  -7   68.89    4.30
   3  -8  -7   28.40    2.30
  -3  -8   7   26.70    2.90
  -3  -8   7   26.10    1.90
   3  -8  -7   29.10    2.40
   3   8  -7   23.20    2.20
   3   8  -7   22.00    2.10
  -3   8   7   19.90    2.20
  -2  -8   7   44.70    3.10
   2  -8  -7   38.10    2.70
  -2  -8   7   39.00    2.40
   2  -8  -7   39.90    2.80
   2   8  -7   33.10    2.70
  -2   8   7   31.10    2.60
   2   8  -7   33.50    2.40
   1  -8  -7   34.80    2.60
  -1  -8   7   32.10    2.70
  -1  -8   7   34.90    2.20
   1  -8  -7   32.60    2.30
   1   8  -7   29.50    2.00
   1   8  -7   30.30    2.60
  -1   8   7   33.40    2.50
   0  -8  -7    0.90    0.90
   0  -8   7    2.20    1.30
   0  -8   7    1.40    0.80
   0  -8  -7    0.50    0.70
   0   8  -7    0.80    1.00
   0   8   7    2.40    0.70
   0   8   7    1.10    0.90
   1  -8   7   24.30    2.10
  -1  -8  -7   23.00    2.50
   1  -8   7   24.10    2.60
   1   8   7   30.10    2.20
   1   8   7   34.70    2.40
  -1   8  -7   33.50    2.50
   2  -8   7   95.59    5.20
  -2  -8  -7   97.79    5.60
   2  -8   7  103.19    5.80
   2   8   7   94.89    5.40
   2   8   7  102.99    5.40
  -2   8  -7  102.09    5.60
  -3  -8  -7  117.19    6.50
   3  -8   7  114.69    6.80
   3   8   7  130.59    6.60
  -3   8  -7  117.19    6.40
  -3   8  -7  122.09    6.50
   3   8   7  119.99    6.40
  -4  -8  -7   53.19    3.70
   4  -8   7   55.49    4.20
  -4   8  -7   49.30    3.80
   4   8   7   52.29    4.00
  -4   8  -7   45.00    3.50
   4   8   7   50.29    3.60
  -5  -8  -7   32.10    3.30
   5  -8   7   32.10    3.70
  -5   8  -7   30.20    3.40
   5   8   7   35.00    3.80
  -7  -9   7   40.20    4.80
   7  -9  -7   43.40    4.30
   7   9  -7   46.70    4.30
  -7   9   7   53.59    4.50
  -6  -9   7   10.50    2.70
   6  -9  -7   13.70    2.50
   6   9  -7   16.80    2.60
  -6   9   7   11.40    2.40
   5  -9  -7   52.19    3.80
  -5  -9   7   48.90    4.00
   5   9  -7   40.90    3.40
  -5   9   7   45.90    3.60
  -4  -9   7   45.40    3.80
   4  -9  -7   40.30    3.20
  -4  -9   7   39.50    2.90
  -4   9   7   42.10    3.30
   4   9  -7   35.10    2.70
   4   9  -7   44.90    3.20
   3  -9  -7   64.89    4.00
   3  -9  -7   65.89    4.10
  -3  -9   7   65.09    3.60
  -3  -9   7   65.49    4.40
   3   9  -7   68.39    4.00
  -3   9   7   68.39    4.10
   3   9  -7   67.09    4.00
   2  -9  -7  202.48   10.00
  -2  -9   7  210.78   10.40
   2  -9  -7  207.48   10.00
  -2  -9   7  206.18    9.60
   2   9  -7  213.28    9.80
   2   9  -7  222.48   10.10
  -2   9   7  218.78   10.10
   1  -9  -7  165.68    7.50
  -1  -9   7  149.39    7.90
   1  -9  -7  165.48    7.90
  -1  -9   7  158.98    7.30
   1   9  -7  151.68    7.70
  -1   9   7  146.39    7.60
   1   9  -7  149.79    7.20
   0  -9   7  149.29    6.90
   0  -9  -7  144.19    6.90
   0  -9  -7  141.39    7.40
   0  -9   7  137.89    7.40
   0   9   7  144.99    7.10
   0   9  -7  145.89    7.40
   1  -9   7  206.78    9.20
   1  -9   7  213.68    9.90
  -1  -9  -7  210.68    9.70
   1   9   7  180.48    9.30
   1   9   7  184.58    9.10
  -1   9  -7  186.28    9.60
  -2  -9  -7   87.29    4.90
   2  -9   7   87.79    5.10
  -2   9  -7   78.89    4.60
   2   9   7   83.29    4.70
   2   9   7   78.89    4.60
  -2   9  -7   68.59    4.70
  -3  -9  -7    1.60    1.20
   3  -9   7    3.10    1.60
   3   9   7    2.20    1.20
  -3   9  -7    2.50    1.30
  -3   9  -7    2.80    1.20
   3   9   7    2.10    1.30
   4  -9   7    9.20    2.10
  -4  -9  -7   11.30    1.90
  -4   9  -7   11.50    2.00
   4   9   7   13.80    2.30
   4   9   7    8.60    1.70
  -4   9  -7   11.60    2.00
   5  -9   7    3.90    1.90
  -5  -9  -7    3.50    1.70
   5   9   7    8.70    2.30
  -5   9  -7    5.60    1.90
   7 -10  -7   12.80    2.50
  -7 -10   7    8.00    2.90
   7  10  -7   13.70    2.70
  -7  10   7   13.90    2.60
  -6 -10   7   11.00    2.70
   6 -10  -7   10.80    2.40
   6  10  -7   16.20    2.50
  -6  10   7   18.30    2.80
  -5 -10   7   32.60    3.70
   5 -10  -7   32.40    3.20
  -5  10   7   33.70    3.30
   5  10  -7   40.10    3.10
  -4 -10   7   78.19    5.30
   4 -10  -7   65.19    4.30
   4 -10  -7   81.69    5.00
  -4  10   7   90.29    4.90
   4  10  -7   86.59    4.80
  -3 -10   7  124.39    6.00
  -3 -10   7  127.09    7.00
   3 -10  -7  124.39    6.50
   3 -10  -7  123.19    6.40
   3  10  -7  118.69    6.30
   3  10  -7  125.89    6.40
  -3  10   7  125.59    6.50
   2 -10  -7  115.59    6.10
  -2 -10   7  114.29    5.40
   2 -10  -7  119.79    6.00
  -2 -10   7  120.49    6.50
   2  10  -7  109.79    6.00
  -2  10   7  104.49    5.90
   2  10  -7  111.39    5.70
  -1 -10   7   42.90    2.50
   1 -10  -7   44.20    2.80
  -1 -10   7   40.30    3.30
   1 -10  -7   41.10    3.10
   1  10  -7   41.00    2.50
   1  10  -7   39.70    2.90
  -1  10   7   42.70    3.00
   0 -10  -7    2.30    0.90
   0 -10   7    1.20    0.70
   0 -10  -7    1.70    1.20
   0 -10   7    0.40    1.20
   0  10  -7    1.00    1.10
   0  10   7    1.70    1.10
  -1 -10  -7   21.80    2.50
  -1 -10  -7   22.60    1.90
   1 -10   7   22.80    2.00
   1 -10   7   22.70    2.60
   1  10   7   34.40    2.50
  -1  10  -7   30.80    2.50
  -2 -10  -7   65.79    4.10
   2 -10   7   63.69    4.40
   2  10   7   69.79    4.00
   2  10   7   59.59    3.80
  -2  10  -7   58.19    4.10
  -2  10  -7   63.99    3.90
  -3 -10  -7  131.49    7.20
   3 -10   7  128.89    7.60
   3  10   7  140.59    7.30
   3  10   7  139.79    7.20
  -3  10  -7  134.39    7.20
  -3  10  -7  140.39    7.10
   4 -10   7   50.79    4.20
  -4 -10  -7   53.99    3.80
  -4  10  -7   47.30    3.80
  -4  10  -7   48.70    3.80
   4  10   7   48.20    3.70
   4  10   7   53.69    4.20
   5 -10   7   48.80    4.50
  -5 -10  -7   42.70    3.70
   5  10   7   35.00    4.10
  -5  10  -7   37.50    3.50
   7 -11  -7   18.70    3.10
  -7 -11   7   19.00    3.70
  -7  11   7   17.30    2.90
   7  11  -7   21.90    3.20
  -6 -11   7    4.80    2.50
   6 -11  -7    3.20    1.90
  -6  11   7   11.40    2.40
   6  11  -7    6.70    2.00
   5 -11  -7   17.60    2.50
  -5 -11   7   19.60    3.10
  -5  11   7   20.10    2.70
   5  11  -7   18.00    2.40
   4 -11  -7   24.00    2.40
  -4 -11   7   26.40    3.20
   4 -11  -7   21.90    2.50
   4  11  -7   29.00    2.60
  -4  11   7   23.80    2.60
  -3 -11   7   16.90    2.60
   3 -11  -7   18.90    2.20
   3 -11  -7   16.70    2.20
  -3  11   7   21.60    2.20
   3  11  -7   22.80    2.30
   3  11  -7   20.40    2.10
  -2 -11   7  271.97   13.00
   2 -11  -7  261.07   12.50
   2 -11  -7  270.87   12.60
  -2 -11   7  263.77   12.00
   2  11  -7  272.67   12.60
  -2  11   7  270.07   12.50
   2  11  -7  271.87   12.30
  -1 -11   7  100.39    5.00
   1 -11  -7  106.99    5.70
   1 -11  -7  104.59    5.40
  -1 -11   7  104.59    5.90
  -1  11   7   97.49    5.50
   1  11  -7   97.49    5.00
   1  11  -7  108.99    5.70
   0 -11  -7   46.20    2.90
   0 -11  -7   46.50    3.40
   0 -11   7   48.10    3.60
   0 -11   7   42.90    2.70
   0  11   7   46.50    3.00
   0  11  -7   50.29    3.40
   1 -11   7  193.18    9.50
   1 -11   7  194.18    8.90
  -1 -11  -7  194.68    9.40
  -1 -11  -7  198.98    8.90
  -1  11  -7  176.78    9.30
   1  11   7  173.38    9.00
   2 -11   7   94.29    5.50
  -2 -11  -7   94.09    5.20
   2  11   7   85.59    4.80
  -2  11  -7   79.49    5.10
   2  11   7   83.49    4.80
  -2  11  -7   83.79    4.80
   3 -11   7    2.70    1.70
  -3 -11  -7    1.70    1.30
   3  11   7    1.80    1.30
  -3  11  -7    2.60    1.40
  -3  11  -7    2.40    1.30
   4 -11   7   13.70    2.60
  -4 -11  -7   14.30    2.20
   4  11   7   14.60    2.40
   4  11   7   14.40    2.20
  -4  11  -7   17.20    2.30
  -4  11  -7   18.80    2.40
   5 -11   7    2.00    2.00
  -5 -11  -7    0.30    1.50
   5  11   7    1.70    1.90
  -5  11  -7    2.10    1.60
  -7 -12   7   11.50    3.20
   7 -12  -7   13.10    2.80
  -7  12   7   13.40    2.70
   7  12  -7   12.20    2.70
   6 -12  -7    4.10    2.00
  -6 -12   7    4.20    2.40
  -6  12   7    9.10    2.30
   6  12  -7    6.60    2.00
   5 -12  -7   14.70    2.30
  -5 -12   7   13.50    2.60
  -5  12   7   16.70    2.50
   5  12  -7   17.50    2.40
   4 -12  -7  101.19    5.70
  -4 -12   7   92.59    5.90
   4 -12  -7  103.09    5.30
   4  12  -7   87.19    5.40
  -4  12   7   89.89    5.50
  -3 -12   7  205.18   10.30
   3 -12  -7  207.08    9.80
   3 -12  -7  198.38    9.90
   3  12  -7  195.98    9.70
  -3  12   7  196.08    9.80
   3  12  -7  204.88    9.70
  -2 -12   7  162.68    8.30
   2 -12  -7  170.38    8.00
   2 -12  -7  158.58    8.00
   2  12  -7  152.28    7.90
  -2  12   7  156.98    7.90
   2  12  -7  151.28    7.60
   1 -12  -7   17.10    1.80
  -1 -12   7   15.50    1.40
  -1 -12   7   14.10    2.20
   1 -12  -7   17.70    2.20
   1  12  -7   12.80    1.50
  -1  12   7   18.00    2.00
   1  12  -7   11.90    1.80
   0 -12  -7   18.20    1.80
   0 -12  -7   18.60    2.20
   0 -12   7   21.60    2.60
   0 -12   7   18.10    1.50
   0  12  -7   15.60    2.00
   0  12   7   18.40    1.90
   1 -12   7    8.40    1.70
  -1 -12  -7    7.50    1.50
   1 -12   7   10.10    1.40
  -1 -12  -7    7.00    1.30
  -1  12  -7   15.70    1.70
  -1  12  -7   16.90    2.20
   2 -12   7   31.00    3.00
  -2 -12  -7   33.60    2.90
  -2  12  -7   27.10    2.90
  -2  12  -7   31.30    2.50
   2  12   7   35.10    2.80
   3 -12   7  123.89    7.20
  -3 -12  -7  122.79    6.80
  -3  12  -7  130.49    6.70
  -3  12  -7  129.19    6.80
   3  12   7  125.59    6.70
   3  12   7  116.09    6.70
  -4 -12  -7   49.70    3.70
   4 -12   7   44.10    4.10
   4  12   7   37.10    3.70
  -4  12  -7   42.80    3.50
   4  12   7   35.20    3.30
  -4  12  -7   38.90    3.40
  -5 -12  -7   44.30    3.70
   5 -12   7   44.50    4.20
  -5  12  -7   39.40    3.70
   5  12   7   40.30    4.10
   6 -13  -7    9.50    2.20
  -6 -13   7   11.50    2.90
  -6  13   7   12.60    2.50
   6  13  -7    8.90    2.20
   5 -13  -7   23.10    2.90
  -5 -13   7   22.10    3.40
   5  13  -7   23.00    2.80
  -5  13   7   22.90    2.90
   4 -13  -7   17.20    2.40
  -4 -13   7   13.80    2.60
   4 -13  -7   17.70    2.10
  -4  13   7   17.10    2.40
   4  13  -7   13.00    1.90
   4  13  -7   14.20    2.10
   3 -13  -7   36.90    3.10
  -3 -13   7   35.20    3.80
   3 -13  -7   33.90    3.00
  -3  13   7   39.40    3.10
   3  13  -7   37.90    2.90
   3  13  -7   42.80    3.00
   2 -13  -7  295.57   13.80
   2 -13  -7  291.07   13.80
  -2 -13   7  289.67   14.20
   2  13  -7  306.87   13.80
   2  13  -7  299.27   13.50
  -2  13   7  292.77   13.70
  -1 -13   7   43.90    3.30
   1 -13  -7   42.90    2.80
   1 -13  -7   45.80    3.20
  -1  13   7   33.90    2.70
   1  13  -7   33.40    2.60
   1  13  -7   32.80    3.00
   0 -13  -7   55.39    3.40
   0 -13   7   59.49    4.00
   0 -13   7   54.79    3.10
   0 -13  -7   55.69    3.70
   0  13  -7   48.80    3.70
   0  13   7   49.60    3.30
  -1 -13  -7  125.59    6.70
   1 -13   7  127.89    7.00
  -1 -13  -7  125.79    6.20
   1  13   7  119.69    6.40
  -1  13  -7  119.29    6.10
  -1  13  -7  121.79    6.70
  -2 -13  -7   50.49    3.60
   2 -13   7   52.99    4.00
  -2  13  -7   48.70    3.20
   2  13   7   46.60    3.30
  -2  13  -7   42.50    3.50
  -3 -13  -7    1.70    1.30
   3 -13   7    1.70    1.60
   3  13   7   -0.30    1.10
  -3  13  -7   -0.20    1.10
  -3  13  -7    1.40    1.30
   4 -13   7    4.70    2.00
  -4 -13  -7    6.00    1.70
  -4  13  -7    4.80    1.70
   4  13   7    5.90    1.60
   4  13   7    5.70    1.90
  -4  13  -7    7.00    1.80
   5 -13   7    0.60    2.00
  -5 -13  -7    1.40    1.60
   5  13   7    0.30    1.90
  -5  13  -7    1.40    1.50
   6 -14  -7    9.40    2.30
  -6 -14   7   11.60    3.10
   6  14  -7    8.10    2.20
  -6  14   7    7.40    2.30
  -5 -14   7   20.10    3.10
   5 -14  -7   25.10    3.10
  -5  14   7   20.40    2.80
   5  14  -7   16.80    2.60
   4 -14  -7   61.29    4.20
  -4 -14   7   60.39    4.80
   4 -14  -7   62.99    4.00
   4  14  -7   57.29    3.80
   4  14  -7   56.89    4.00
  -4  14   7   56.69    4.10
   3 -14  -7  113.19    6.30
  -3 -14   7  112.69    6.80
   3 -14  -7  114.49    6.20
   3  14  -7  112.49    6.10
   3  14  -7  114.49    6.10
  -3  14   7  108.69    6.10
   2 -14  -7   87.29    5.00
   2 -14  -7   85.19    4.90
  -2 -14   7   87.69    5.30
  -2  14   7   81.29    4.80
   2  14  -7   77.69    4.70
   2  14  -7   75.29    4.50
   1 -14  -7   35.00    2.90
  -1 -14   7   29.30    2.90
   1 -14  -7   32.80    2.60
   1  14  -7   26.90    2.80
  -1  14   7   28.50    2.60
   0 -14  -7    2.20    1.10
   0 -14  -7    2.20    1.20
   0 -14   7    3.90    1.60
   0  14   7    2.80    1.10
   0  14  -7    2.50    1.30
  -1 -14  -7   30.70    2.50
   1 -14   7   27.70    3.10
  -1 -14  -7   28.90    2.90
  -1  14  -7   34.40    2.40
   1  14   7   35.70    2.70
  -1  14  -7   32.80    3.00
  -2 -14  -7   33.40    3.00
   2 -14   7   27.20    3.20
  -2  14  -7   26.20    2.80
   2  14   7   30.30    2.50
  -3 -14  -7   96.39    5.70
   3 -14   7   92.69    6.10
  -3  14  -7   97.29    5.70
  -3  14  -7   96.19    5.50
   3  14   7   93.89    5.50
   4 -14   7   31.20    3.60
  -4 -14  -7   38.20    3.30
  -4  14  -7   34.70    3.20
   4  14   7   36.00    3.30
  -4  14  -7   35.50    3.40
  -6 -15   7    4.20    2.60
   6 -15  -7    8.00    2.20
   6  15  -7    8.80    2.20
  -6  15   7   10.30    2.40
   5 -15  -7   15.50    2.50
  -5 -15   7   14.90    3.10
  -5  15   7   21.20    2.80
   5  15  -7   15.90    2.50
  -4 -15   7    1.20    1.80
   4 -15  -7   -0.10    1.10
   4 -15  -7    0.60    1.40
  -4  15   7    0.90    1.50
   4  15  -7    0.40    1.30
   4  15  -7    0.50    1.10
   3 -15  -7   53.99    3.90
   3 -15  -7   58.39    4.00
  -3 -15   7   59.09    4.60
  -3  15   7   63.19    4.10
   3  15  -7   64.59    4.00
   3  15  -7   64.49    4.10
   2 -15  -7  121.69    6.70
   2 -15  -7  123.29    6.60
  -2 -15   7  126.39    7.20
  -2  15   7  120.39    6.50
   2  15  -7  122.69    6.60
   2  15  -7  125.79    6.40
  -2  15   7  124.49    6.50
   1 -15  -7   13.80    2.10
   1 -15  -7   12.60    1.90
  -1 -15   7   11.10    2.10
  -1  15   7   18.00    2.20
   1  15  -7   17.80    2.20
  -1  15   7   18.00    2.10
   0 -15  -7  124.09    6.90
   0 -15   7  119.09    7.00
   0 -15  -7  131.09    6.70
   0  15  -7  134.89    7.00
   0  15   7  135.49    6.70
  -1 -15  -7  140.39    7.20
   1 -15   7  134.49    7.40
  -1 -15  -7  140.19    6.90
   1  15   7  128.69    6.90
  -1  15  -7  125.99    7.20
   2 -15   7   44.50    3.90
  -2 -15  -7   50.49    3.60
  -2  15  -7   42.30    3.50
   2  15   7   44.50    3.20
  -2  15  -7   39.20    3.00
  -3 -15  -7    0.30    1.30
   3 -15   7    2.20    1.70
  -3  15  -7   -0.10    1.40
  -3  15  -7    0.90    1.20
   3  15   7    0.70    1.30
  -4 -15  -7    4.60    1.60
   4 -15   7    4.80    2.20
   4  15   7    5.10    1.70
  -4  15  -7    3.80    1.70
  -4  15  -7    6.00    1.70
  -6 -16   7   15.10    3.20
   6 -16  -7   11.10    2.40
   6  16  -7   11.90    2.50
  -6  16   7   14.50    2.50
   5 -16  -7   23.80    3.10
  -5 -16   7   24.80    3.70
   5  16  -7   25.10    3.10
  -5  16   7   21.30    2.80
   4 -16  -7   36.60    3.30
   4 -16  -7   35.60    3.00
  -4 -16   7   35.90    4.10
   4  16  -7   37.50    3.10
  -4  16   7   36.10    3.30
   4  16  -7   36.90    3.20
   3 -16  -7   89.69    5.30
  -3 -16   7   79.89    5.60
   3  16  -7   84.49    5.00
  -3  16   7   81.99    5.00
  -3  16   7   89.89    5.00
   3  16  -7   83.09    5.00
   2 -16  -7   25.80    2.50
  -2 -16   7   27.90    3.00
   2  16  -7   18.70    2.40
   2  16  -7   18.80    2.20
  -2  16   7   19.30    2.20
  -2  16   7   19.70    2.30
   1 -16  -7    9.30    1.70
  -1 -16   7    8.20    2.00
  -1  16   7    7.80    1.60
   1  16  -7    7.30    1.60
  -1  16   7    7.50    1.60
   0 -16   7    0.50    1.50
   0 -16  -7   -1.00    1.10
   0 -16  -7    0.80    1.10
   0  16  -7    0.00    1.30
   0  16   7    0.10    1.10
   0  16   7    1.00    1.10
  -1 -16  -7   24.60    2.80
  -1 -16  -7   26.10    2.50
   1 -16   7   27.70    3.20
   1  16   7   32.10    2.70
  -1  16  -7   26.30    2.70
   2 -16   7   39.50    3.70
  -2 -16  -7   41.40    3.40
   2  16   7   38.50    3.00
  -2  16  -7   37.20    3.40
   3 -16   7   90.69    5.90
  -3 -16  -7   87.59    5.40
  -3  16  -7   78.69    5.00
  -3  16  -7   90.79    5.50
   3  16   7   81.69    5.10
  -4 -16  -7   34.70    3.30
   4 -16   7   34.10    4.00
  -4  16  -7   35.90    3.30
   4  16   7   36.00    3.30
  -4  16  -7   37.20    3.40
  -6 -17   7   11.50    3.30
   6 -17  -7    8.40    2.40
  -6  17   7   10.50    2.50
   6  17  -7   11.90    2.50
  -5 -17   7    9.20    2.70
   5 -17  -7   14.70    2.60
   5  17  -7   10.50    2.20
  -5  17   7   14.90    2.50
   4 -17  -7    0.40    1.40
  -4 -17   7    1.10    2.00
   4 -17  -7    1.10    1.20
   4  17  -7   -0.10    1.20
  -4  17   7    0.50    1.30
   4  17  -7    0.30    1.30
  -3 -17   7   44.00    4.40
   3 -17  -7   47.50    3.80
  -3  17   7   47.20    3.50
   3  17  -7   48.60    3.60
   3  17  -7   48.40    3.60
  -3  17   7   49.40    3.60
  -2 -17   7  123.79    7.50
   2 -17  -7  135.29    7.20
  -2  17   7  133.59    7.10
  -2  17   7  133.59    6.90
   2  17  -7  136.89    6.90
   2  17  -7  133.69    7.20
  -1 -17   7   76.69    5.40
   1 -17  -7   78.79    4.90
   1  17  -7   84.99    5.10
  -1  17   7   85.29    5.00
  -1  17   7   89.59    4.90
   0 -17  -7  138.59    7.10
   0 -17   7  135.29    7.60
   0  17   7  136.79    7.20
   0  17   7  134.79    7.00
   0  17  -7  128.09    7.30
   1 -17   7  137.89    7.80
  -1 -17  -7  144.89    7.30
  -1 -17  -7  138.19    7.50
   1  17   7  145.29    7.30
  -1  17  -7  136.99    7.60
   2 -17   7   35.50    3.40
  -2 -17  -7   36.10    3.30
   2  17   7   30.90    2.90
  -2  17  -7   38.00    3.40
  -3 -17  -7   -0.60    1.30
   3 -17   7    1.90    1.80
  -3  17  -7    1.50    1.50
   3  17   7    2.50    1.40
   4 -17   7    4.60    2.20
  -4 -17  -7    2.90    1.60
   4  17   7    5.30    1.70
  -4  17  -7    5.50    3.00
  -4  17  -7    4.90    1.80
   6 -18  -7   15.20    2.70
  -6 -18   7   14.30    3.50
  -6  18   7   16.00    2.70
   6  18  -7   16.50    2.90
   5 -18  -7   46.00    4.20
  -5 -18   7   40.10    4.80
   5  18  -7   44.90    4.00
  -5  18   7   40.70    3.70
  -4 -18   7   35.20    4.30
   4 -18  -7   36.80    3.60
  -4  18   7   37.20    3.40
   4  18  -7   37.70    3.30
  -4  18   7   38.00    3.10
   4  18  -7   37.80    3.20
   3 -18  -7   82.09    5.40
  -3 -18   7   82.59    6.00
  -3  18   7   83.89    5.00
   3  18  -7   83.29    5.20
  -3  18   7   88.59    5.10
   3  18  -7   91.09    5.30
   2 -18  -7   45.70    3.50
  -2 -18   7   43.40    3.90
  -2  18   7   45.70    3.50
  -2  18   7   47.30    3.40
   2  18  -7   41.00    3.20
   2  18  -7   42.40    3.50
  -1 -18   7   24.20    3.10
   1 -18  -7   22.50    2.60
   1  18  -7   21.40    2.60
  -1  18   7   25.60    2.50
  -1  18   7   21.90    2.50
   0 -18   7    8.10    2.10
   0 -18  -7    4.20    1.40
   0  18   7    6.30    1.40
   0  18   7    5.80    1.70
   0  18  -7    4.90    1.60
   1 -18   7   36.70    3.70
  -1 -18  -7   37.60    3.00
  -1 -18  -7   36.00    3.10
   1  18   7   36.30    3.00
  -1  18  -7   32.80    3.30
   1  18   7   29.90    3.00
   2 -18   7   42.40    4.00
  -2 -18  -7   43.40    3.60
  -2  18  -7   40.30    3.60
   2  18   7   43.80    3.30
  -3 -18  -7   61.99    4.50
   3 -18   7   62.19    4.90
   3  18   7   57.69    4.00
  -3  18  -7   62.19    4.50
   4 -18   7   37.00    3.90
  -4 -18  -7   29.50    3.40
   4  18   7   39.70    3.50
  -4  18  -7   42.00    3.70
   5 -19  -7    3.20    1.90
  -5 -19   7    0.30    2.40
  -5  19   7    2.00    1.90
   5  19  -7    1.30    1.60
  -4 -19   7    2.20    2.10
   4 -19  -7    4.70    1.80
  -4  19   7    2.10    1.50
  -4  19   7    4.30    1.50
   4  19  -7    2.90    1.60
   4  19  -7    2.70    1.50
  -3 -19   7   23.60    3.40
   3 -19  -7   18.50    2.70
  -3  19   7   21.10    2.50
   3  19  -7   24.50    2.70
  -3  19   7   27.00    2.80
   3  19  -7   25.00    2.60
   2 -19  -7   51.39    3.90
  -2 -19   7   44.40    4.20
   2  19  -7   52.89    3.60
   2  19  -7   57.49    4.00
  -2  19   7   54.89    3.90
  -2  19   7   58.19    3.80
   1 -19  -7   54.09    3.90
  -1 -19   7   56.29    4.40
  -1  19   7   61.79    3.90
   1  19  -7   60.49    4.30
  -1  19   7   54.39    3.90
   0 -19   7  175.38    9.50
   0 -19  -7  193.48    9.10
   0  19  -7  173.78    9.30
   0  19   7  178.08    9.20
   0  19   7  175.78    8.80
   1 -19   7  101.19    6.40
  -1 -19  -7  106.89    5.80
   1  19   7  100.89    6.00
  -1  19  -7   97.29    6.10
   1  19   7  102.89    5.70
   2 -19   7   30.30    3.30
  -2 -19  -7   28.10    3.20
  -2  19  -7   24.00    2.90
   2  19   7   28.30    2.70
   3 -19   7    4.90    1.90
  -3 -19  -7    4.40    1.70
   3  19   7    4.50    1.60
  -3  19  -7    2.70    1.70
  -4 -19  -7    4.80    1.80
   4 -19   7    4.90    2.20
   4  19   7    7.70    2.00
  -4  19  -7    5.10    2.10
  -5 -20   7   37.60    4.70
   5 -20  -7   41.10    4.10
   5  20  -7   35.40    3.70
  -5  20   7   36.20    3.80
  -4 -20   7   23.50    3.70
   4 -20  -7   23.70    3.20
   4  20  -7   19.60    2.70
  -4  20   7   19.50    2.50
   4  20  -7   18.00    2.50
  -4  20   7   23.70    2.80
   3 -20  -7   26.20    3.10
  -3 -20   7   23.20    3.40
   3  20  -7   22.40    2.70
   3  20  -7   22.70    2.70
  -3  20   7   25.90    2.80
  -3  20   7   25.90    2.60
   2 -20  -7   24.70    2.80
  -2 -20   7   23.20    3.20
  -2  20   7   27.70    2.50
   2  20  -7   23.50    2.80
   2  20  -7   23.20    2.60
  -2  20   7   25.20    2.90
   1 -20  -7   32.20    3.00
  -1 -20   7   28.90    3.50
  -1  20   7   27.20    3.00
   1  20  -7   28.40    3.10
  -1  20   7   30.00    2.80
   0 -20  -7    8.30    1.80
   0 -20   7    9.00    2.30
   0  20   7    6.30    1.70
   0  20  -7    6.00    1.90
   0  20   7    6.40    1.50
   1 -20   7   46.10    4.10
  -1 -20  -7   44.50    3.40
   1  20   7   36.60    3.50
  -1  20  -7   41.70    3.80
   1  20   7   40.60    3.20
   2 -20   7   29.80    3.30
  -2 -20  -7   23.40    3.00
   2  20   7   27.00    2.70
  -2  20  -7   29.90    3.30
   3 -20   7   38.00    4.10
  -3 -20  -7   37.60    3.70
  -3  20  -7   39.30    3.80
   3  20   7   41.70    3.40
   5 -21  -7    0.20    1.90
  -5 -21   7    0.20    2.50
   5  21  -7    0.50    1.70
  -5  21   7    0.00    1.50
  -4 -21   7    2.50    2.50
   4 -21  -7    1.20    1.60
  -4  21   7    2.10    1.70
  -4  21   7    1.30    1.40
   4  21  -7    1.90    1.50
   4  21  -7    1.30    1.50
   3 -21  -7   24.90    3.10
  -3 -21   7   30.50    3.90
  -3  21   7   32.20    3.00
   3  21  -7   28.90    3.00
   3  21  -7   28.60    3.10
  -3  21   7   32.80    3.10
  -2 -21   7   33.70    3.90
   2 -21  -7   31.70    3.00
  -2  21   7   32.50    3.20
  -2  21   7   34.40    3.00
   2  21  -7   28.30    2.90
   2  21  -7   28.90    3.20
  -1 -21   7   55.29    4.50
   1 -21  -7   49.99    3.90
  -1  21   7   45.70    3.70
  -1  21   7   52.19    3.60
   1  21  -7   44.90    3.90
   0 -21   7  105.29    6.60
   0 -21  -7  108.19    6.10
   0  21  -7   98.59    6.30
   0  21   7  104.19    5.80
   0  21   7  107.29    6.30
  -1 -21  -7   34.40    3.20
   1 -21   7   39.00    4.00
   1  21   7   38.50    3.40
  -1  21  -7   39.30    3.70
   1  21   7   43.20    3.20
  -2 -21  -7   12.30    2.30
   2 -21   7   15.50    2.80
   2  21   7   15.60    2.20
  -2  21  -7   17.90    2.60
   3 -21   7    7.70    2.40
  -3 -21  -7    4.90    1.90
  -3  21  -7    7.30    2.20
   3  21   7    7.70    1.80
   4 -22  -7   26.90    3.40
  -4 -22   7   25.20    3.70
   4  22  -7   29.40    3.30
   4  22  -7   27.60    3.10
  -4  22   7   27.20    3.00
  -4  22   7   28.40    3.10
   3 -22  -7   38.80    3.60
  -3 -22   7   40.40    4.40
  -3  22   7   38.20    3.50
  -3  22   7   36.90    3.40
   3  22  -7   31.90    3.50
   3  22  -7   38.80    3.40
   2 -22  -7   16.90    2.50
  -2 -22   7   15.50    2.90
  -2  22   7   15.20    2.10
   2  22  -7   16.60    2.40
  -2  22   7   17.30    2.40
   2  22  -7   16.40    2.60
  -1 -22   7   15.40    2.70
   1 -22  -7   14.50    2.40
  -1  22   7   17.10    2.60
  -1  22   7   16.10    2.20
   1  22  -7   13.30    2.40
   0 -22  -7   10.70    2.10
   0 -22   7   13.20    2.60
   0  22  -7    9.00    2.20
   0  22   7   10.40    2.20
   0  22   7    9.90    1.80
  -1 -22  -7   24.00    2.70
   1 -22   7   22.30    3.10
   1  22   7   21.90    2.90
  -1  22  -7   23.90    3.10
   1  22   7   20.20    2.50
  -2 -22  -7   15.50    2.60
   2 -22   7   17.70    3.00
   2  22   7   14.60    2.40
   2  22   7   20.70    2.50
  -2  22  -7   18.70    2.70
  -3 -22  -7   20.60    2.90
   3 -22   7   23.00    3.30
  -3  22  -7   22.70    3.10
  -4 -23   7    0.00    2.10
   4 -23  -7    0.80    1.80
  -4  23   7    0.80    1.50
  -4  23   7    0.20    1.50
   4  23  -7    0.10    1.60
   4  23  -7    1.00    1.70
  -3 -23   7   40.30    4.60
   3 -23  -7   34.30    3.70
  -3  23   7   36.70    3.60
  -3  23   7   39.90    3.50
   3  23  -7   42.10    3.70
   3  23  -7   43.20    3.60
   2 -23  -7   66.39    4.70
  -2 -23   7   59.69    5.10
  -2  23   7   60.19    4.20
  -2  23   7   60.59    4.50
   2  23  -7   59.99    4.60
  -1 -23   7   62.19    5.00
   1 -23  -7   62.19    4.40
  -1  23   7   58.89    4.50
   1  23  -7   58.49    4.60
  -1  23   7   62.29    4.10
   0 -23  -7   52.99    4.10
   0 -23   7   48.20    4.30
   0  23  -7   51.59    4.20
   0  23   7   44.40    3.50
   0  23   7   51.19    4.00
  -1 -23  -7   18.80    2.60
   1 -23   7   22.00    3.20
   1  23   7   20.10    2.40
   1  23   7   21.10    2.90
  -1  23  -7   19.60    2.80
   2 -23   7    2.40    2.00
   2  23   7    5.00    1.70
  -2  23  -7    3.40    1.80
   2  23   7    3.70    1.80
   4 -24  -7   35.80    3.90
  -4 -24   7   35.10    4.60
  -4  24   7   31.40    3.50
   4  24  -7   35.80    3.70
  -4  24   7   34.70    3.50
   4  24  -7   29.80    3.40
   3 -24  -7   56.39    4.60
  -3 -24   7   54.39    5.20
  -3  24   7   50.09    3.90
   3  24  -7   52.69    4.30
   3  24  -7   54.89    4.30
  -3  24   7   54.19    4.30
   2 -24  -7   17.80    2.70
  -2 -24   7   14.70    2.80
  -2  24   7   19.90    2.50
   2  24  -7   14.80    2.50
  -2  24   7   14.50    2.30
   1 -24  -7    1.80    1.60
  -1 -24   7    3.00    2.00
  -1  24   7    1.60    1.70
   1  24  -7    1.40    1.70
  -1  24   7    3.00    1.50
   0 -24  -7    6.50    1.90
   0 -24   7    6.70    2.30
   0  24  -7    4.50    2.00
   0  24   7    5.10    1.90
   0  24   7    4.70    1.50
   1 -24   7   31.90    3.80
  -1 -24  -7   30.90    3.20
  -1  24  -7   23.30    3.00
   1  24   7   24.20    3.10
   1  24   7   24.80    2.70
   2 -24   7   15.00    2.80
  -2  24  -7   23.80    3.20
   2  24   7   18.30    2.80
   3 -25  -7   32.90    3.90
  -3 -25   7   34.00    4.20
  -3  25   7   34.90    3.50
  -3  25   7   31.50    3.30
   3  25  -7   32.60    3.50
   3  25  -7   30.50    3.50
   2 -25  -7   29.00    3.50
  -2 -25   7   26.80    3.80
  -2  25   7   33.50    3.10
   2  25  -7   29.10    3.50
  -2  25   7   30.90    3.40
   1 -25  -7   47.80    4.10
  -1 -25   7   49.99    4.60
  -1  25   7   48.80    3.60
  -1  25   7   46.70    4.00
   1  25  -7   41.00    4.10
   0 -25  -7   39.10    3.70
   0 -25   7   46.80    4.40
   0  25  -7   36.90    3.70
   0  25   7   40.20    3.90
   0  25   7   37.00    3.20
   1 -25   7   10.70    2.70
  -1 -25  -7    9.20    2.20
   1  25   7   12.00    2.50
  -1  25  -7   11.50    2.50
   3  26  -7   27.00    3.30
  -3  26   7   26.50    3.20
   2 -26  -7    8.80    2.30
  -2 -26   7   13.80    2.80
  -2  26   7   12.00    2.40
   2  26  -7    8.80    2.30
  -2  26   7   10.70    2.10
   1 -26  -7    3.80    1.90
  -1 -26   7    3.40    2.20
   1  26  -7    0.90    1.70
  -1  26   7    0.00    1.60
  -1  26   7    0.50    1.40
   0 -26   7   25.00    3.60
   0 -26  -7   25.40    3.20
   0  26  -7   21.90    3.20
   0  26   7   21.60    3.00
  -1 -26  -7   28.50    3.40
   1 -26   7   36.70    4.10
   1  26   7   27.80    3.40
  -1  26  -7   33.90    3.90
   1 -27  -7   57.59    4.70
  -1 -27   7   49.99    4.70
  -1  27   7   60.39    4.70
   1  27  -7   64.19    5.00
   0 -27  -7   54.79    4.60
   0 -27   7   53.29    4.90
   0  27  -7   52.89    4.70
   0  27   7   50.29    4.50
   7   0  -8   40.60    4.10
  -7   0   8   42.70    3.90
  -6   0   8   20.80    2.60
   6   0  -8   23.40    3.00
  -5   0   8  163.38    8.50
   5   0  -8  174.78    8.80
   4   0  -8  386.86   17.40
  -4   0   8  382.76   17.30
  -4   0   8  373.26   17.30
  -3   0   8  106.69    5.60
   3   0  -8  105.79    5.50
   3   0  -8  104.69    5.60
  -3   0   8  105.19    5.60
   2   0  -8    1.30    0.90
  -2   0   8    1.20    1.00
  -2   0   8    2.10    1.00
   2   0  -8    1.70    1.10
  -1   0   8  193.88    9.00
   1   0  -8  185.58    9.20
  -1   0   8  184.88    8.90
   0   0  -8   93.99    5.30
   0   0   8   90.89    5.00
   0   0   8   97.49    5.10
   1   0   8  188.68    9.20
   1   0   8  201.98    9.40
  -1   0  -8  184.38    9.40
   2   0   8  305.87   14.10
   2   0   8  309.77   14.40
  -2   0  -8  298.87   14.30
  -3   0  -8  108.29    5.90
   3   0   8  100.29    5.70
   3   0   8  100.49    6.00
   4   0   8   25.20    3.20
  -4   0  -8   22.90    2.60
  -4   0  -8   17.50    2.50
  -5   0  -8    5.40    2.00
   5   0   8    2.00    1.90
   7  -1  -8   11.00    2.40
  -7  -1   8    8.10    2.20
  -7   1   8   10.30    2.20
   7   1  -8    8.80    2.40
   6  -1  -8    3.00    1.70
  -6  -1   8    2.90    1.50
   6   1  -8    1.20    1.60
  -6   1   8    3.30    1.60
  -5  -1   8   52.89    3.60
  -5  -1   8   46.60    3.80
   5  -1  -8   44.50    3.60
  -5   1   8   47.30    3.60
   5   1  -8   41.90    3.60
  -4  -1   8  197.88    9.50
  -4  -1   8  198.98    9.70
   4  -1  -8  191.78    9.70
   4   1  -8  199.58    9.70
  -4   1   8  199.68    9.80
  -4   1   8  198.08    9.60
   3  -1  -8  157.48    7.90
  -3  -1   8  154.48    7.90
   3  -1  -8  151.48    7.90
  -3  -1   8  160.88    8.00
  -3   1   8  164.58    7.90
   3   1  -8  167.68    8.00
   3   1  -8  167.08    7.90
  -3   1   8  165.98    7.90
  -2  -1   8  245.88   11.70
   2  -1  -8  258.67   11.60
   2  -1  -8  255.97   11.90
  -2  -1   8  251.77   11.70
   2   1  -8  249.28   11.80
  -2   1   8  251.27   11.70
   2   1  -8  254.87   11.50
  -2   1   8  255.47   11.60
   1  -1  -8  140.79    7.00
  -1  -1   8  136.39    6.60
  -1   1   8  131.49    6.60
   1   1  -8  130.79    6.90
  -1   1   8  133.09    6.70
   0  -1  -8   46.90    3.30
   0  -1   8   47.70    3.10
   0  -1   8   48.50    3.20
   0   1   8   51.29    3.10
   0   1  -8   44.70    3.20
  -1  -1  -8   18.30    2.30
   1  -1   8   20.80    1.90
   1  -1   8   20.70    2.20
  -1   1  -8   16.70    2.10
   1   1   8   19.40    2.10
   1   1   8   22.30    2.10
   2  -1   8   41.30    3.30
  -2  -1  -8   43.60    3.20
   2  -1   8   40.70    3.00
   2   1   8   39.70    3.10
   2   1   8   43.00    3.30
  -2   1  -8   43.80    3.30
   3  -1   8    5.30    1.80
  -3  -1  -8    4.10    1.50
   3  -1   8    5.10    1.50
  -3   1  -8    4.20    1.40
   3   1   8    3.20    1.30
   3   1   8    3.20    1.50
  -4  -1  -8   28.10    3.00
  -4  -1  -8   27.50    2.90
   4  -1   8   29.60    3.40
  -4   1  -8   25.00    2.90
   4   1   8   23.90    3.00
  -4   1  -8   23.50    2.70
   5  -1   8   31.80    3.90
  -5  -1  -8   33.70    3.30
  -5   1  -8   36.40    3.50
   5   1   8   31.40    3.80
   7  -2  -8   34.30    3.90
  -7  -2   8   31.70    3.40
   7   2  -8   26.70    3.40
  -7   2   8   31.00    3.40
  -6  -2   8   24.80    3.70
  -6  -2   8   28.00    3.00
   6  -2  -8   32.20    3.30
  -6   2   8   28.20    3.00
   6   2  -8   26.30    2.90
  -5  -2   8  136.99    7.10
   5  -2  -8  134.89    7.40
  -5   2   8  137.79    7.30
   5   2  -8  135.49    7.40
  -4  -2   8  130.49    6.60
   4  -2  -8  130.29    6.80
   4   2  -8  127.69    6.90
  -4   2   8  128.59    6.80
  -3  -2   8   39.20    2.80
   3  -2  -8   39.10    2.80
   3  -2  -8   44.10    3.00
   3   2  -8   35.90    2.80
   3   2  -8   39.30    2.90
  -3   2   8   39.30    2.80
  -3   2   8   36.30    2.70
  -2  -2   8   87.49    4.80
   2  -2  -8   92.39    4.80
   2  -2  -8   98.49    5.20
  -2   2   8   96.19    5.10
  -2   2   8   90.49    4.80
   2   2  -8   92.09    5.10
   2   2  -8   92.49    4.80
  -1  -2   8  144.49    7.40
   1  -2  -8  156.38    7.60
  -1  -2   8  146.69    7.20
   1  -2  -8  146.99    7.10
  -1   2   8  153.58    7.20
  -1   2   8  148.29    7.30
   1   2  -8  148.29    7.50
   0  -2  -8   92.29    5.10
   0  -2   8   87.09    4.80
   0  -2   8   86.09    4.90
   0   2  -8   87.99    5.00
   0   2   8   92.29    4.80
   0   2   8   82.69    4.70
   1  -2   8  215.08   10.20
   1  -2   8  204.88   10.00
  -1  -2  -8  205.88   10.20
   1   2   8  218.28   10.10
   1   2   8  214.98   10.10
  -1   2  -8  205.58   10.20
   2  -2   8  328.17   15.30
   2  -2   8  330.17   15.10
  -2  -2  -8  323.27   15.20
   2   2   8  316.37   15.10
  -2   2  -8  321.77   15.20
   2   2   8  342.07   15.30
  -3  -2  -8  107.59    5.90
   3  -2   8  105.59    5.90
   3  -2   8   99.79    6.00
   3   2   8  104.79    6.10
  -3   2  -8  103.19    5.90
   3   2   8  101.79    5.80
   4  -2   8   24.20    3.20
  -4  -2  -8   21.90    2.80
  -4  -2  -8   21.50    2.60
   4   2   8   22.30    3.00
  -4   2  -8   19.20    2.60
  -4   2  -8   20.60    2.50
   5  -2   8    2.40    2.10
  -5  -2  -8    3.10    1.70
  -5   2  -8    2.20    1.50
   5   2   8    3.10    2.10
  -7  -3   8    9.10    2.10
   7  -3  -8    8.30    2.20
  -7   3   8    6.70    2.20
   7   3  -8    6.70    2.20
  -6  -3   8    1.30    1.90
  -6  -3   8    5.70    1.60
   6  -3  -8    4.30    1.80
  -6   3   8    2.30    1.50
   6   3  -8    5.20    1.80
   5  -3  -8   38.50    3.40
  -5  -3   8   37.80    3.00
  -5  -3   8   43.60    3.60
   5   3  -8   33.20    3.20
  -5   3   8   36.80    3.20
  -4  -3   8  174.78    8.40
   4  -3  -8  169.58    8.60
  -4  -3   8  174.78    8.80
   4   3  -8  165.08    8.60
  -4   3   8  177.18    8.60
  -3  -3   8   64.99    3.90
   3  -3  -8   64.69    4.10
   3  -3  -8   64.49    4.00
  -3  -3   8   69.39    4.30
  -3   3   8   71.09    4.10
   3   3  -8   72.69    4.10
   3   3  -8   73.89    4.10
   2  -3  -8  218.88    9.80
  -2  -3   8  213.88    9.50
  -2  -3   8  218.78    9.80
   2  -3  -8  209.98    9.50
  -2   3   8  196.68    9.60
   2   3  -8  196.68    9.70
   2   3  -8  191.08    9.30
  -2   3   8  176.98    9.30
   1  -3  -8  183.88    8.10
  -1  -3   8  177.48    8.30
   1  -3  -8  179.48    8.70
  -1  -3   8  180.88    8.60
  -1   3   8  176.18    8.30
  -1   3   8  164.48    8.40
   1   3  -8  164.68    8.60
   0  -3  -8   76.99    4.60
   0  -3   8   76.29    4.50
   0  -3   8   77.29    4.30
   0   3   8   81.89    4.30
   0   3   8   79.19    4.40
   0   3  -8   75.59    4.60
  -1  -3  -8   28.50    2.70
   1  -3   8   29.80    2.40
   1  -3   8   28.60    2.60
   1   3   8   34.20    2.60
  -1   3  -8   24.70    2.60
   2  -3   8   22.50    2.60
  -2  -3  -8   24.90    2.60
   2  -3   8   22.60    2.30
   2   3   8   22.00    2.20
  -2   3  -8   20.80    2.30
   2   3   8   23.40    2.50
  -3  -3  -8   11.70    1.90
   3  -3   8    9.90    1.70
   3  -3   8   10.70    2.10
  -3   3  -8   10.20    1.90
   3   3   8   10.40    1.90
   3   3   8    8.30    1.90
   4  -3   8   37.30    3.70
  -4  -3  -8   35.80    3.20
  -4  -3  -8   42.60    3.30
   4   3   8   31.80    3.50
  -4   3  -8   30.20    3.00
  -4   3  -8   33.00    3.10
   4   3   8   29.00    2.90
  -5  -3  -8   33.80    3.30
   5  -3   8   31.50    3.90
  -5   3  -8   32.50    3.30
   5   3   8   36.10    4.10
   7  -4  -8   19.40    3.00
  -7  -4   8   10.40    4.50
  -7   4   8   15.30    2.80
   7   4  -8   20.20    3.00
  -6  -4   8   27.50    3.40
  -6  -4   8   29.40    2.80
   6  -4  -8   28.40    3.30
  -6   4   8   22.70    2.80
   6   4  -8   27.90    3.10
  -5  -4   8  111.49    5.80
  -5  -4   8  106.19    6.40
   5  -4  -8  106.09    6.00
  -5   4   8  103.69    5.90
   5   4  -8  101.39    6.10
   4  -4  -8   59.29    4.00
  -4  -4   8   57.09    4.20
  -4  -4   8   61.99    3.70
   4   4  -8   60.19    4.00
  -4   4   8   65.89    4.10
   3  -4  -8    9.40    1.60
  -3  -4   8   11.10    1.50
  -3  -4   8   11.70    1.90
   3  -4  -8    9.50    1.60
   3   4  -8   10.10    1.50
  -3   4   8    8.40    1.50
   3   4  -8   10.30    1.60
  -2  -4   8   58.79    3.80
  -2  -4   8   58.59    3.40
   2  -4  -8   53.69    3.40
   2  -4  -8   57.99    3.80
  -2   4   8   63.19    3.70
   2   4  -8   60.79    3.80
   2   4  -8   56.19    3.30
  -1  -4   8   99.39    5.10
   1  -4  -8   99.39    5.40
  -1  -4   8   99.09    5.40
   1  -4  -8   98.69    4.90
  -1   4   8   93.49    5.00
  -1   4   8   99.19    5.30
   1   4  -8  102.29    5.50
   0  -4   8   99.79    5.20
   0  -4   8   97.89    5.40
   0  -4  -8  101.69    5.60
   0   4   8  101.09    5.20
   0   4  -8   99.69    5.60
   0   4   8   99.29    5.40
   1  -4   8  270.27   13.10
  -1  -4  -8  269.57   13.10
   1  -4   8  276.67   12.80
   1   4   8  286.47   12.90
   1   4   8  286.97   12.90
  -1   4  -8  278.27   13.10
   2  -4   8  327.77   15.70
   2  -4   8  352.86   16.20
  -2  -4  -8  337.47   16.00
   2   4   8  362.76   16.00
  -2   4  -8  339.67   16.00
   2   4   8  343.87   15.80
   3  -4   8   98.99    5.80
  -3  -4  -8   88.99    5.40
   3  -4   8   96.99    5.40
  -3   4  -8   88.19    5.40
   3   4   8   89.99    5.50
   3   4   8   87.79    5.20
   4  -4   8   20.20    3.00
  -4  -4  -8   21.00    2.50
   4   4   8   18.50    2.50
  -4   4  -8   20.80    2.50
  -4   4  -8   14.40    2.40
   4   4   8   20.80    2.80
  -5  -4  -8    1.90    1.70
   5  -4   8    0.80    1.90
  -5   4  -8    1.30    1.50
   5   4   8    1.20    1.90
  -7  -5   8    1.60    2.40
   7  -5  -8    3.20    2.00
   7   5  -8    4.10    2.00
  -7   5   8    3.70    2.10
  -6  -5   8    7.70    2.30
  -6  -5   8    9.50    1.80
   6  -5  -8    7.90    1.90
   6   5  -8    7.40    1.80
  -6   5   8    6.00    1.90
   5  -5  -8   26.90    3.00
  -5  -5   8   28.30    3.30
  -5  -5   8   33.10    2.70
   5   5  -8   28.20    2.90
  -5   5   8   26.10    2.70
  -4  -5   8  141.99    7.20
   4  -5  -8  138.19    7.20
  -4  -5   8  145.59    7.70
   4  -5  -8  147.39    7.50
  -4   5   8  146.69    7.40
   4   5  -8  148.29    7.50
   3  -5  -8  101.39    5.50
  -3  -5   8   96.59    5.70
   3  -5  -8  101.39    5.40
  -3  -5   8   97.39    5.20
   3   5  -8  102.79    5.40
   3   5  -8  103.79    5.50
  -3   5   8  101.39    5.50
   2  -5  -8  154.08    7.40
  -2  -5   8  152.28    7.00
  -2  -5   8  158.28    7.50
   2  -5  -8  150.68    7.10
   2   5  -8  134.09    6.90
   2   5  -8  131.69    7.30
  -2   5   8  129.79    7.10
   1  -5  -8  130.39    6.40
  -1  -5   8  139.49    7.00
  -1  -5   8  134.89    6.60
   1  -5  -8  136.69    7.00
   1   5  -8  129.29    6.90
  -1   5   8  132.09    6.80
   0  -5   8  121.09    6.40
   0  -5  -8  116.89    6.40
   0  -5   8  115.09    6.00
   0   5   8  122.99    6.20
   0   5   8  126.09    6.00
   0   5  -8  123.19    6.50
   1  -5   8   39.40    3.20
   1  -5   8   40.30    2.70
  -1  -5  -8   36.80    3.10
   1   5   8   38.00    2.80
   1   5   8   41.60    2.90
  -1   5  -8   39.20    3.10
   2  -5   8   19.10    2.00
  -2  -5  -8   25.80    2.60
   2  -5   8   22.60    2.70
   2   5   8   20.20    2.30
  -2   5  -8   17.80    2.30
   2   5   8   22.40    2.40
  -3  -5  -8   16.10    2.20
   3  -5   8   14.30    2.30
  -3   5  -8   16.60    2.30
   3   5   8   14.80    2.20
  -3   5  -8   14.00    2.20
   3   5   8   14.60    2.30
  -4  -5  -8   47.80    3.50
   4  -5   8   47.40    4.10
   4   5   8   36.80    3.70
  -4   5  -8   38.30    3.50
   4   5   8   36.70    3.40
  -4   5  -8   40.80    3.50
  -5  -5  -8   29.20    3.40
   5  -5   8   22.00    3.40
   5   5   8   27.40    3.60
  -5   5  -8   30.80    3.10
  -7  -6   8   24.40    3.70
   7  -6  -8   25.00    3.30
  -7   6   8   28.10    3.40
   7   6  -8   27.10    3.60
  -6  -6   8   43.30    4.40
   6  -6  -8   44.70    3.90
   6   6  -8   47.80    3.90
  -6   6   8   46.50    3.70
  -5  -6   8   75.99    4.50
   5  -6  -8   86.99    5.20
  -5  -6   8   83.69    5.40
   5   6  -8   75.49    5.00
  -5   6   8   73.79    4.80
   4  -6  -8   80.99    4.90
   4  -6  -8   75.09    4.50
  -4  -6   8   78.99    5.10
  -4  -6   8   77.89    4.50
  -4   6   8   84.79    4.80
   4   6  -8   86.29    4.90
  -3  -6   8   30.80    2.90
   3  -6  -8   31.50    2.60
  -3  -6   8   30.80    2.40
   3  -6  -8   30.00    2.60
   3   6  -8   32.00    2.60
   3   6  -8   36.00    2.70
  -3   6   8   29.80    2.60
   2  -6  -8   45.80    3.30
   2  -6  -8   45.40    2.90
  -2  -6   8   45.60    3.40
  -2  -6   8   46.20    2.90
   2   6  -8   44.60    3.20
   2   6  -8   46.30    2.90
  -2   6   8   44.90    3.10
   1  -6  -8   65.99    4.10
   1  -6  -8   67.79    3.50
  -1  -6   8   63.69    3.60
  -1  -6   8   66.49    4.10
  -1   6   8   52.29    3.60
   1   6  -8   58.79    3.90
   0  -6   8  145.59    6.70
   0  -6   8  134.29    7.00
   0  -6  -8  137.59    7.10
   0   6   8  126.89    6.80
   0   6   8  130.79    6.60
   0   6  -8  132.19    7.00
  -1  -6  -8  333.57   16.40
   1  -6   8  361.96   16.10
   1  -6   8  355.76   16.50
   1   6   8  364.66   16.10
  -1   6  -8  354.16   16.40
   1   6   8  362.56   16.20
  -2  -6  -8  283.07   13.90
   2  -6   8  312.17   14.30
   2  -6   8  293.97   13.70
  -2   6  -8  289.67   14.00
   2   6   8  303.87   13.90
   3  -6   8   85.49    5.50
  -3  -6  -8   83.29    5.00
  -3   6  -8   80.69    5.00
   3   6   8   78.69    5.10
   3   6   8   84.99    5.00
  -3   6  -8   77.09    4.90
  -4  -6  -8   18.90    2.40
   4  -6   8   23.80    3.10
   4   6   8   18.00    2.80
  -4   6  -8   13.30    2.30
   4   6   8   17.30    2.40
  -4   6  -8   17.30    2.40
   5  -6   8    1.10    2.10
  -5  -6  -8    1.50    1.60
   5   6   8    1.80    2.00
  -5   6  -8    4.60    1.90
  -7  -7   8    7.60    2.80
   7  -7  -8    9.10    2.30
   7   7  -8   11.10    2.60
  -7   7   8    8.20    2.20
   6  -7  -8    4.10    1.70
  -6  -7   8    4.00    2.30
   6   7  -8    4.80    1.80
  -6   7   8    3.30    1.80
   5  -7  -8   37.70    3.40
  -5  -7   8   32.60    3.60
  -5   7   8   35.40    3.10
   5   7  -8   35.70    3.30
   4  -7  -8  131.79    6.80
  -4  -7   8  131.69    6.50
  -4  -7   8  129.69    7.30
   4  -7  -8  129.99    7.00
   4   7  -8  140.49    7.10
  -4   7   8  136.69    7.00
   4   7  -8  118.19    6.60
  -3  -7   8  116.39    5.90
   3  -7  -8  114.09    6.20
   3  -7  -8  117.09    6.30
  -3  -7   8  115.69    6.50
   3   7  -8  119.69    6.10
   3   7  -8  124.69    6.30
  -3   7   8  118.89    6.30
  -2  -7   8  237.98   10.80
   2  -7  -8  245.38   10.70
  -2  -7   8  227.88   10.10
   2  -7  -8  237.48   10.30
   2   7  -8  183.28   10.00
   2   7  -8  206.58   10.40
  -2   7   8  196.08   10.30
  -1  -7   8  189.68    9.40
   1  -7  -8  188.68    8.90
  -1  -7   8  194.18    8.90
   1  -7  -8  196.58    9.40
   1   7  -8  182.58    9.30
  -1   7   8  190.38    9.20
   0  -7   8  121.29    6.00
   0  -7   8  115.59    6.50
   0  -7  -8  111.59    6.40
   0   7   8  120.59    6.20
   0   7  -8  128.09    6.50
  -1  -7  -8   21.10    2.50
   1  -7   8   22.50    2.60
   1  -7   8   22.90    2.10
   1   7   8   19.20    2.10
   1   7   8   23.30    2.30
  -1   7  -8   19.30    2.30
   2  -7   8   14.00    2.30
   2  -7   8   14.80    1.90
  -2  -7  -8   15.60    2.20
   2   7   8   10.20    1.80
  -2   7  -8   14.80    2.10
   2   7   8   15.30    2.00
  -3  -7  -8   21.80    2.50
   3  -7   8   16.20    2.50
  -3   7  -8   24.00    2.40
   3   7   8   23.70    2.80
  -3   7  -8   25.40    2.70
   3   7   8   23.30    2.60
  -4  -7  -8   39.50    3.30
   4  -7   8   40.90    4.00
   4   7   8   32.10    3.10
  -4   7  -8   33.00    3.10
  -4   7  -8   40.10    3.30
   4   7   8   34.80    3.60
   5  -7   8   26.90    3.80
  -5  -7  -8   30.20    3.40
   5   7   8   28.30    3.60
  -5   7  -8   28.60    3.40
  -7  -8   8   33.00    4.30
   7  -8  -8   34.40    3.70
  -7   8   8   34.70    3.90
   7   8  -8   35.40    3.90
  -6  -8   8   59.39    5.00
   6  -8  -8   60.99    4.70
  -6   8   8   59.19    4.50
   6   8  -8   57.49    4.50
  -5  -8   8   96.49    6.30
   5  -8  -8  101.89    6.00
  -5   8   8   98.49    5.90
   5   8  -8  100.89    5.90
  -4  -8   8   65.89    4.00
   4  -8  -8   69.69    4.40
  -4  -8   8   68.49    4.80
   4  -8  -8   63.59    4.20
  -4   8   8   66.39    4.30
   4   8  -8   71.69    4.20
   4   8  -8   71.09    4.40
   3  -8  -8   37.20    3.10
  -3  -8   8   39.70    2.70
   3  -8  -8   43.80    3.20
  -3  -8   8   45.60    3.60
  -3   8   8   46.90    3.30
   3   8  -8   44.50    3.20
   3   8  -8   43.30    3.00
   2  -8  -8   36.40    3.00
  -2  -8   8   38.90    2.60
  -2  -8   8   43.60    3.40
   2  -8  -8   36.80    2.80
   2   8  -8   40.20    2.60
  -2   8   8   39.90    2.90
   2   8  -8   39.40    3.10
   1  -8  -8  160.78    7.90
   1  -8  -8  152.68    7.30
  -1  -8   8  157.58    7.90
  -1  -8   8  158.58    7.30
   1   8  -8  135.09    7.60
  -1   8   8  141.69    7.50
   0  -8   8  201.58    9.20
   0  -8   8  200.98    9.80
   0  -8  -8  200.28    9.70
   0   8  -8  190.08    9.60
   0   8   8  186.68    9.40
   1  -8   8  292.67   13.90
   1  -8   8  280.27   13.30
  -1  -8  -8  286.27   13.80
  -1   8  -8  303.87   13.80
   1   8   8  290.57   13.50
   2  -8   8  187.98    9.20
  -2  -8  -8  191.58    9.60
   2  -8   8  184.18    9.70
   2   8   8  192.18    9.40
   2   8   8  195.58    9.30
  -2   8  -8  186.08    9.50
  -3  -8  -8   61.89    4.40
   3  -8   8   67.59    4.80
   3   8   8   68.09    4.50
  -3   8  -8   66.49    4.30
   3   8   8   63.69    4.30
  -3   8  -8   59.79    4.30
   4  -8   8   28.90    3.50
  -4  -8  -8   30.60    3.00
  -4   8  -8   25.80    3.00
   4   8   8   26.50    2.80
   4   8   8   26.20    3.20
  -4   8  -8   24.80    2.90
  -5  -8  -8   -0.80    1.40
   5  -8   8    0.50    2.10
  -5   8  -8    1.80    1.70
   5   8   8    0.20    1.90
  -6  -9   8    2.30    2.20
   6  -9  -8    4.80    2.10
  -6   9   8    5.50    1.90
   6   9  -8    6.20    2.00
  -5  -9   8   43.10    4.20
   5  -9  -8   43.30    3.80
  -5   9   8   47.50    3.80
   5   9  -8   51.89    3.80
  -4  -9   8  143.09    7.90
   4  -9  -8  135.09    7.40
   4  -9  -8  135.69    7.20
   4   9  -8  146.39    7.20
  -4   9   8  134.19    7.30
   4   9  -8  143.29    7.30
  -3  -9   8  188.88    9.60
   3  -9  -8  186.68    9.20
   3  -9  -8  194.18    9.30
  -3  -9   8  180.48    8.70
   3   9  -8  193.08    9.20
  -3   9   8  174.98    9.20
   3   9  -8  187.68    9.10
  -2  -9   8  308.47   14.00
   2  -9  -8  310.37   13.60
   2  -9  -8  314.37   13.80
  -2  -9   8  297.17   13.20
  -2   9   8  263.87   13.50
   2   9  -8  286.27   13.70
   2   9  -8  270.97   13.20
   1  -9  -8  196.28    9.40
   1  -9  -8  196.88    9.80
  -1  -9   8  199.38    9.90
  -1  -9   8  201.68    9.30
  -1   9   8  194.48    9.60
   1   9  -8  205.08    9.80
   0  -9   8   43.60    3.50
   0  -9  -8   45.50    3.50
   0  -9   8   48.80    3.10
   0   9   8   52.09    3.30
   0   9  -8   52.79    3.50
   1  -9   8    9.80    2.00
  -1  -9  -8    8.20    1.80
   1  -9   8   10.00    1.50
   1   9   8    7.10    1.50
  -1   9  -8    9.30    1.80
   2  -9   8    5.30    1.30
   2  -9   8    5.10    1.60
  -2  -9  -8    5.60    1.50
  -2   9  -8    5.50    1.50
   2   9   8    7.00    1.50
  -2   9  -8    6.00    1.40
  -3  -9  -8   26.10    2.90
   3  -9   8   28.90    3.30
  -3   9  -8   26.60    2.70
   3   9   8   26.50    2.80
   3   9   8   26.20    2.80
  -3   9  -8   30.80    3.00
  -4  -9  -8   40.50    3.30
   4  -9   8   37.70    3.90
  -4   9  -8   31.80    3.30
   4   9   8   30.20    3.20
  -4   9  -8   35.10    3.30
   4   9   8   31.70    3.40
  -6 -10   8   35.70    4.30
   6 -10  -8   39.30    3.90
  -6  10   8   44.30    3.90
   6  10  -8   44.20    3.80
  -5 -10   8   96.49    6.50
   5 -10  -8  104.39    6.10
  -5  10   8   94.59    5.90
   5  10  -8  106.19    6.00
  -4 -10   8   90.69    5.80
   4 -10  -8   99.99    5.60
   4 -10  -8   94.19    5.30
   4  10  -8   89.29    5.20
   4  10  -8   92.59    5.40
  -4  10   8   89.49    5.50
  -3 -10   8   54.39    4.20
   3 -10  -8   55.99    3.80
   3 -10  -8   54.69    3.80
   3  10  -8   52.59    3.60
   3  10  -8   51.99    3.50
  -3  10   8   56.09    3.80
  -2 -10   8   11.60    1.40
   2 -10  -8    9.30    1.80
  -2 -10   8   14.30    2.30
   2 -10  -8   11.20    1.70
   2  10  -8   13.20    1.90
   2  10  -8   12.70    1.70
  -2  10   8   12.60    1.90
   1 -10  -8   86.49    5.00
  -1 -10   8   80.99    5.10
   1 -10  -8   82.69    4.50
  -1 -10   8   85.89    4.30
   1  10  -8   80.19    4.90
  -1  10   8   72.39    4.60
   0 -10   8  155.78    8.00
   0 -10  -8  147.29    7.80
   0 -10   8  153.18    7.30
   0  10   8  143.39    7.60
   0  10  -8  159.08    8.00
   1 -10   8  213.58   10.80
   1 -10   8  221.88   10.20
  -1 -10  -8  211.78   10.60
   1  10   8  216.98   10.50
  -1  10  -8  218.88   10.70
   2 -10   8  126.19    7.20
  -2 -10  -8  128.39    7.10
   2  10   8  127.69    6.90
  -2  10  -8  136.39    6.90
  -2  10  -8  127.99    7.10
   3 -10   8   48.50    4.10
  -3 -10  -8   53.59    3.90
  -3  10  -8   58.09    4.00
   3  10   8   54.69    3.90
  -3  10  -8   47.00    3.60
  -4 -10  -8   37.30    3.50
   4 -10   8   38.00    4.00
  -4  10  -8   34.70    3.30
  -4  10  -8   32.60    3.50
   4  10   8   37.00    3.40
   4  10   8   35.40    3.60
  -6 -11   8    4.70    2.40
   6 -11  -8    7.10    2.20
   6  11  -8    6.50    2.10
  -6  11   8    9.80    2.30
   5 -11  -8   31.70    3.40
  -5 -11   8   32.00    3.90
  -5  11   8   37.30    3.50
   5  11  -8   42.00    3.50
   4 -11  -8   65.49    4.50
   4 -11  -8   66.89    4.30
  -4 -11   8   70.89    5.10
   4  11  -8   69.19    4.40
   4  11  -8   70.99    4.30
  -4  11   8   63.69    4.30
  -3 -11   8  213.58   10.90
   3 -11  -8  215.58   10.50
   3 -11  -8  214.08   10.50
  -3  11   8  210.58   10.40
   3  11  -8  209.58   10.20
   3  11  -8  222.28   10.40
  -2 -11   8  226.48   10.60
   2 -11  -8  217.68   10.00
   2 -11  -8  211.38   10.20
   2  11  -8  196.28   10.10
  -2  11   8  187.28   10.00
  -1 -11   8  114.99    5.80
  -1 -11   8  124.49    6.70
   1 -11  -8  125.99    6.10
   1 -11  -8  118.79    6.50
   1  11  -8  112.49    6.40
  -1  11   8  109.79    6.20
   0 -11   8   31.00    2.40
   0 -11   8   31.90    3.20
   0 -11  -8   33.70    3.10
   0  11  -8   36.60    3.10
   0  11   8   38.50    2.70
   1 -11   8   15.60    2.40
  -1 -11  -8   14.00    2.20
   1 -11   8   15.40    1.80
   1  11   8   13.00    2.00
  -1  11  -8   11.10    2.10
   2 -11   8    3.40    1.70
  -2 -11  -8    4.00    1.50
   2  11   8    5.00    1.40
  -2  11  -8    4.30    1.60
  -2  11  -8    5.00    1.40
  -3 -11  -8   26.50    2.90
   3 -11   8   27.40    3.30
  -3  11  -8   30.00    2.80
   3  11   8   26.50    2.60
  -3  11  -8   29.20    3.10
  -4 -11  -8   34.60    3.30
   4 -11   8   34.70    3.90
  -4  11  -8   34.50    3.30
   4  11   8   31.70    3.10
  -4  11  -8   32.10    3.30
  -6 -12   8   32.70    4.20
   6 -12  -8   43.80    4.10
  -6  12   8   36.30    3.60
   6  12  -8   42.30    3.90
   5 -12  -8   69.39    4.80
  -5 -12   8   72.29    5.40
   5  12  -8   61.79    4.50
  -5  12   8   58.99    4.60
   4 -12  -8   70.89    4.50
  -4 -12   8   69.79    5.20
   4 -12  -8   71.09    4.70
   4  12  -8   69.59    4.50
   4  12  -8   69.89    4.40
  -4  12   8   62.69    4.50
   3 -12  -8   56.89    4.00
  -3 -12   8   57.59    4.50
   3 -12  -8   61.69    4.10
  -3  12   8   59.29    4.00
   3  12  -8   55.39    3.70
   3  12  -8   57.09    3.90
  -2 -12   8   20.60    2.70
   2 -12  -8   14.00    2.10
   2 -12  -8   19.10    2.20
   2  12  -8   17.30    2.30
  -2  12   8   20.40    2.20
   1 -12  -8   33.30    2.60
  -1 -12   8   30.40    2.90
   1 -12  -8   30.90    2.90
  -1  12   8   25.10    2.60
   1  12  -8   24.70    2.80
   0 -12  -8  117.99    6.70
   0 -12   8  124.69    6.10
   0 -12   8  127.89    7.00
   0 -12  -8  121.99    7.00
   0  12  -8  121.89    6.80
   0  12   8  125.79    6.50
   1 -12   8  138.69    6.90
  -1 -12  -8  130.49    7.40
   1 -12   8  134.59    7.60
   1  12   8  142.69    7.20
  -1  12  -8  147.29    7.60
  -2 -12  -8   73.29    4.70
   2 -12   8   71.99    5.00
  -2  12  -8   67.29    4.30
  -2  12  -8   74.49    4.80
   2  12   8   69.19    4.50
   3 -12   8   45.00    4.20
  -3 -12  -8   46.90    3.80
  -3  12  -8   42.80    3.40
   3  12   8   46.90    3.60
  -3  12  -8   44.90    3.70
  -4 -12  -8   31.40    3.40
   4 -12   8   34.10    3.90
  -4  12  -8   31.00    3.30
  -4  12  -8   28.60    3.10
   4  12   8   32.40    3.30
   6 -13  -8    3.90    1.90
  -6 -13   8    3.40    2.60
   6  13  -8    4.20    1.90
  -6  13   8    3.90    1.90
  -5 -13   8   20.20    3.40
   5 -13  -8   19.10    2.80
   5  13  -8   21.00    2.70
  -5  13   8   24.50    2.90
  -4 -13   8   33.40    3.90
   4 -13  -8   36.70    3.30
   4 -13  -8   39.00    3.20
  -4  13   8   33.70    3.20
   4  13  -8   36.90    3.20
   4  13  -8   35.30    3.10
   3 -13  -8  159.28    8.50
  -3 -13   8  164.88    9.00
   3 -13  -8  169.98    8.60
   3  13  -8  164.98    8.40
   3  13  -8  170.18    8.30
  -3  13   8  165.18    8.40
   2 -13  -8  178.18    8.90
   2 -13  -8  181.08    8.70
  -2 -13   8  169.88    9.10
  -2  13   8  166.88    8.60
   2  13  -8  164.88    8.70
  -1 -13   8   87.29    5.40
   1 -13  -8   87.19    4.80
   1 -13  -8   89.79    5.30
  -1  13   8   80.29    4.90
   1  13  -8   79.99    5.20
   0 -13  -8    1.30    1.20
   0 -13  -8    1.90    1.10
   0 -13   8    4.40    1.70
   0  13   8    6.70    1.50
   0  13  -8    5.30    1.60
  -1 -13  -8   14.80    2.30
   1 -13   8   14.70    2.30
  -1  13  -8   14.50    1.80
   1  13   8   11.90    1.80
  -1  13  -8   14.80    2.20
  -2 -13  -8    1.10    1.40
   2 -13   8    0.40    1.50
  -2  13  -8    1.30    1.50
   2  13   8    2.30    1.20
  -2  13  -8    0.20    1.10
   3 -13   8   21.80    3.20
  -3 -13  -8   24.30    2.90
  -3  13  -8   25.80    2.90
   3  13   8   22.20    2.70
  -3  13  -8   23.70    2.70
  -4 -13  -8   33.80    3.40
   4 -13   8   32.20    3.90
   4  13   8   31.90    3.30
  -4  13  -8   30.70    3.30
  -4  13  -8   30.60    3.40
  -6 -14   8   50.39    5.30
   6 -14  -8   60.09    4.80
  -6  14   8   54.89    4.40
   6  14  -8   59.89    4.70
  -5 -14   8   61.29    5.20
   5 -14  -8   62.49    4.60
   5  14  -8   56.09    4.30
  -5  14   8   55.89    4.20
  -4 -14   8   22.80    3.30
   4 -14  -8   19.30    2.40
   4 -14  -8   21.90    2.80
   4  14  -8   22.90    2.60
   4  14  -8   22.60    2.50
  -4  14   8   23.20    2.60
  -3 -14   8   25.40    3.20
   3 -14  -8   21.30    2.60
   3 -14  -8   22.70    2.70
   3  14  -8   23.00    2.60
  -3  14   8   22.30    2.60
   3  14  -8   23.80    2.40
   2 -14  -8    8.20    1.80
   2 -14  -8    6.80    1.60
  -2 -14   8    9.40    2.30
  -2  14   8    9.80    1.80
   2  14  -8    9.40    1.90
  -1 -14   8   26.30    3.20
   1 -14  -8   28.80    2.60
   1 -14  -8   27.60    2.90
   1  14  -8   31.30    3.00
  -1  14   8   30.50    2.60
   0 -14   8  183.18    9.70
   0 -14  -8  179.88    9.50
   0 -14  -8  197.18    9.20
   0  14   8  184.88    9.30
   0  14  -8  198.78    9.60
  -1 -14  -8  110.59    6.30
   1 -14   8  104.19    6.40
   1  14   8  110.89    6.00
  -1  14  -8  109.19    6.30
  -2 -14  -8   53.29    3.90
   2 -14   8   49.80    4.20
   2  14   8   47.00    3.60
  -2  14  -8   49.40    3.90
  -2  14  -8   43.50    3.20
   3 -14   8   39.00    3.80
  -3 -14  -8   37.60    3.50
  -3  14  -8   38.70    3.30
  -3  14  -8   37.50    3.50
   3  14   8   42.30    3.30
  -4 -14  -8   25.20    3.00
   4 -14   8   22.80    3.40
   4  14   8   21.90    2.80
  -4  14  -8   19.60    2.70
  -4  14  -8   23.20    3.00
  -6 -15   8    4.50    2.80
   6 -15  -8    4.50    2.10
   6  15  -8    5.90    2.20
  -6  15   8    5.80    2.00
   5 -15  -8   37.60    3.80
  -5 -15   8   28.20    3.90
   5  15  -8   40.60    3.70
  -5  15   8   38.70    3.70
  -4 -15   8   43.10    4.50
   4 -15  -8   47.90    3.90
   4 -15  -8   39.00    3.40
   4  15  -8   44.60    3.40
  -4  15   8   43.60    3.50
   4  15  -8   45.70    3.60
   3 -15  -8  125.39    7.00
  -3 -15   8  121.09    7.40
   3 -15  -8  128.59    7.00
   3  15  -8  124.29    6.90
  -3  15   8  133.39    7.00
   3  15  -8  128.49    6.80
  -2 -15   8  118.39    7.10
   2 -15  -8  120.79    6.60
   2 -15  -8  117.09    6.70
  -2  15   8  122.29    6.60
   2  15  -8  123.59    6.70
   1 -15  -8   57.99    4.10
   1 -15  -8   56.89    3.80
  -1 -15   8   56.49    4.50
   1  15  -8   62.89    4.30
  -1  15   8   64.29    4.00
   0 -15  -8   12.10    1.80
   0 -15   8   14.10    2.50
   0 -15  -8   14.00    2.30
   0  15  -8    8.30    2.00
   0  15   8    8.90    1.60
   1 -15   8   13.60    2.40
  -1 -15  -8   12.70    2.30
   1  15   8    9.20    1.70
  -1  15  -8   12.40    2.10
   2 -15   8    1.60    1.70
  -2 -15  -8    1.40    1.30
  -2  15  -8    0.20    1.40
   2  15   8    3.00    1.50
   3 -15   8   34.20    3.80
  -3 -15  -8   33.70    3.30
   3  15   8   25.20    2.80
  -3  15  -8   34.20    3.40
  -3  15  -8   27.70    2.90
   4 -15   8   23.70    3.60
  -4 -15  -8   21.80    2.90
   4  15   8   24.10    2.90
  -4  15  -8   30.00    3.10
  -4  15  -8   25.40    3.10
   5 -16  -8   54.59    4.50
  -5 -16   8   47.20    5.00
  -5  16   8   53.99    4.30
   5  16  -8   51.09    4.30
   4 -16  -8   15.70    2.30
   4 -16  -8   20.10    2.80
  -4 -16   8   15.20    3.10
   4  16  -8   16.40    2.30
  -4  16   8   15.20    2.30
   4  16  -8   13.20    2.10
   3 -16  -8    5.00    1.70
  -3 -16   8    8.20    2.40
   3 -16  -8    5.30    1.80
  -3  16   8    6.80    1.70
   3  16  -8    9.40    1.90
   3  16  -8    5.90    1.60
  -2 -16   8    8.10    2.30
   2 -16  -8   11.30    2.10
   2 -16  -8   10.10    1.90
  -2  16   8   12.20    1.90
   2  16  -8   11.00    2.00
  -1 -16   8   59.49    4.50
   1 -16  -8   52.69    4.10
   1 -16  -8   50.09    3.80
   1  16  -8   62.99    4.30
  -1  16   8   64.09    3.90
   0 -16  -8  154.78    8.00
   0 -16   8  152.48    8.60
   0 -16  -8  154.78    8.30
   0  16  -8  159.18    8.30
   0  16   8  164.08    8.10
   1 -16   8  110.99    6.60
  -1 -16  -8  107.99    6.40
  -1  16  -8  105.79    6.30
   1  16   8  102.19    5.90
  -2 -16  -8   59.09    4.20
   2 -16   8   54.89    4.50
   2  16   8   48.20    3.70
  -2  16  -8   47.40    4.00
  -3 -16  -8   38.90    3.60
   3 -16   8   37.30    3.90
   3  16   8   36.70    3.20
  -3  16  -8   40.40    3.70
  -5 -17   8   31.80    4.30
   5 -17  -8   32.80    3.80
  -5  17   8   32.90    3.60
   5  17  -8   38.50    3.70
   4 -17  -8   25.10    2.90
   4 -17  -8   27.40    3.20
  -4 -17   8   27.20    3.90
   4  17  -8   27.80    3.10
   4  17  -8   31.90    3.10
  -4  17   8   27.80    2.90
  -3 -17   8  128.09    8.00
   3 -17  -8  136.29    7.50
   3 -17  -8  139.49    7.50
   3  17  -8  140.89    7.40
  -3  17   8  136.99    7.40
   3  17  -8  133.09    7.20
   2 -17  -8  116.09    6.50
   2 -17  -8  108.69    6.40
  -2 -17   8  111.29    7.00
  -2  17   8  112.99    6.30
   2  17  -8  123.29    6.60
   1 -17  -8   58.59    3.90
  -1 -17   8   51.79    4.40
   1 -17  -8   57.69    4.20
   1  17  -8   50.99    4.10
  -1  17   8   50.09    3.70
   0 -17   8   41.30    3.70
   0 -17  -8   43.00    3.70
   0 -17  -8   41.20    3.20
   0  17  -8   36.20    3.60
   0  17   8   40.00    3.20
  -1 -17  -8   11.10    2.10
   1 -17   8   10.30    2.20
  -1  17  -8   10.00    2.00
   1  17   8    9.80    1.90
  -2 -17  -8    1.10    1.50
   2 -17   8    1.80    1.70
  -2  17  -8    0.60    1.50
   2  17   8    0.70    1.20
  -3 -17  -8   21.00    2.80
   3 -17   8   18.90    3.00
   3  17   8   19.30    2.60
  -3  17  -8   23.70    3.00
   5 -18  -8   20.10    3.00
  -5 -18   8   17.70    3.50
  -5  18   8   18.90    2.80
   5  18  -8   19.20    2.90
  -4 -18   8    7.30    2.60
   4 -18  -8   12.90    2.20
   4 -18  -8   11.50    2.30
   4  18  -8   10.50    2.10
  -4  18   8   13.40    2.40
   4  18  -8   11.80    2.20
  -3 -18   8   11.10    2.70
   3 -18  -8   12.90    2.20
   3 -18  -8   11.80    2.20
   3  18  -8    8.50    1.90
  -3  18   8   11.90    2.10
   3  18  -8    6.80    1.70
   2 -18  -8   12.60    2.20
  -2 -18   8   13.90    2.70
   2 -18  -8   12.20    2.20
   2  18  -8   14.10    2.30
  -2  18   8   10.90    2.00
   1 -18  -8   28.30    3.20
   1 -18  -8   32.50    3.00
  -1 -18   8   30.20    3.60
  -1  18   8   37.00    3.00
   1  18  -8   34.00    3.40
   0 -18   8   89.19    5.90
   0 -18  -8   92.79    5.40
   0 -18  -8   92.19    5.80
   0  18  -8   90.99    5.70
   0  18   8   98.89    5.50
  -1 -18  -8   66.09    4.70
   1 -18   8   65.59    5.00
   1  18   8   65.19    4.30
  -1  18  -8   63.49    4.70
  -2 -18  -8   50.49    3.90
   2 -18   8   48.80    4.50
  -2  18  -8   46.50    4.10
   2  18   8   45.90    3.70
   3 -18   8   38.50    4.30
  -3 -18  -8   46.70    4.00
  -3  18  -8   35.70    3.80
   3  18   8   39.10    3.50
  -5 -19   8   22.10    3.80
   5 -19  -8   22.20    3.20
  -5  19   8   25.40    3.20
   5  19  -8   23.40    3.10
   4 -19  -8    7.30    2.20
  -4 -19   8    6.60    2.70
   4 -19  -8    6.20    1.90
   4  19  -8    7.00    1.90
  -4  19   8    7.80    2.00
   4  19  -8    7.30    2.00
   3 -19  -8   44.90    3.90
  -3 -19   8   42.00    4.50
   3 -19  -8   41.20    3.70
   3  19  -8   49.60    3.90
   3  19  -8   47.40    4.10
  -3  19   8   45.10    3.70
   2 -19  -8   62.89    4.60
  -2 -19   8   59.79    5.00
   2 -19  -8   63.79    4.50
  -2  19   8   66.39    4.30
   2  19  -8   64.39    4.60
  -1 -19   8   44.40    3.90
   1 -19  -8   45.30    3.60
   1 -19  -8   45.00    3.80
  -1  19   8   37.50    3.30
   1  19  -8   35.80    3.50
   0 -19  -8   33.30    3.40
   0 -19   8   31.10    3.40
   0 -19  -8   33.20    3.00
   0  19  -8   24.50    3.10
   0  19   8   24.90    2.50
   1 -19   8   10.20    2.40
  -1 -19  -8    7.90    1.90
   1  19   8    9.20    1.90
  -1  19  -8    6.80    2.00
  -2 -19  -8   -0.40    1.40
   2 -19   8    1.70    1.80
  -2  19  -8    1.80    1.70
   2  19   8    1.10    1.40
   3 -19   8   14.80    2.90
  -3 -19  -8   11.30    2.40
  -3  19  -8   16.70    2.70
   3  19   8   12.70    2.20
  -4 -20   8    5.70    2.80
   4 -20  -8    2.30    1.90
   4 -20  -8    4.20    1.70
   4  20  -8    3.00    1.70
  -4  20   8    2.30    1.60
   4  20  -8    1.20    1.60
   3 -20  -8    5.20    1.90
  -3 -20   8    6.80    2.40
   3 -20  -8    3.70    1.70
  -3  20   8    4.40    1.60
   3  20  -8    1.30    1.60
  -2 -20   8    4.10    2.00
   2 -20  -8    1.20    1.50
   2 -20  -8    0.70    1.50
  -2  20   8   -0.30    1.40
  -2  20   8    0.70    1.20
   2  20  -8    3.10    1.70
  -1 -20   8    5.00    2.10
   1 -20  -8    5.70    1.90
   1 -20  -8    4.50    1.60
  -1  20   8    5.70    1.80
   1  20  -8    5.10    1.90
  -1  20   8    6.70    1.70
   0 -20  -8   40.30    3.70
   0 -20   8   41.70    4.20
   0 -20  -8   48.90    3.70
   0  20  -8   45.30    4.00
   0  20   8   47.00    3.50
  -1 -20  -8   37.00    3.60
   1 -20   8   37.30    3.90
  -1  20  -8   35.90    3.70
   1  20   8   38.20    3.20
  -2 -20  -8   32.30    3.50
   2 -20   8   39.60    4.20
  -2  20  -8   34.50    3.80
   2  20   8   40.90    3.40
   4 -21  -8   12.40    2.60
   4 -21  -8   13.30    2.40
  -4 -21   8   11.90    2.90
  -4  21   8   15.90    2.60
   4  21  -8   18.60    2.70
   4  21  -8   14.90    2.40
   3 -21  -8   31.40    3.50
  -3 -21   8   28.00    3.70
   3 -21  -8   24.50    3.10
   3  21  -8   32.40    3.40
  -3  21   8   28.70    3.20
  -3  21   8   30.50    3.20
   2 -21  -8   33.60    3.40
  -2 -21   8   30.70    3.70
  -2  21   8   33.00    3.20
  -2  21   8   36.00    3.40
   2  21  -8   38.90    3.60
   1 -21  -8   13.30    2.30
  -1 -21   8   17.90    3.00
   1 -21  -8   19.30    2.70
  -1  21   8   14.50    2.30
   1  21  -8   16.90    2.60
  -1  21   8   15.30    2.30
   0 -21  -8   24.50    3.10
   0 -21  -8   18.50    2.50
   0 -21   8   19.20    3.10
   0  21  -8   14.60    2.60
   0  21   8   17.20    2.40
  -1 -21  -8    4.90    1.90
   1 -21   8    7.50    2.30
   1  21   8    6.50    1.70
  -1  21  -8    4.90    2.00
   2 -21   8    4.20    2.10
  -2 -21  -8    2.00    1.70
  -2  21  -8    0.00    1.80
   2  21   8    3.20    1.60
   4 -22  -8   12.60    2.60
  -4 -22   8    8.80    3.00
   4 -22  -8   11.70    2.40
   4  22  -8    8.30    2.10
  -4  22   8   12.60    2.40
   4  22  -8    8.30    2.20
  -3 -22   8    3.40    2.40
   3 -22  -8    2.30    1.80
  -3  22   8    2.50    1.60
   3  22  -8    3.70    1.90
  -3  22   8    1.90    1.70
  -2 -22   8    6.50    2.20
   2 -22  -8    8.60    2.10
  -2  22   8    8.50    2.00
  -2  22   8    6.30    1.90
   2  22  -8    6.20    2.00
  -1 -22   8    2.20    1.80
   1 -22  -8    2.80    1.60
  -1  22   8    2.60    1.50
   1  22  -8    2.00    1.70
  -1  22   8    3.30    1.70
   0 -22   8   14.20    2.70
   0 -22  -8   16.50    2.50
   0 -22  -8   14.60    2.50
   0  22  -8   15.40    2.70
   0  22   8   19.10    2.40
   0  22   8   13.10    2.40
  -1 -22  -8   21.00    3.00
   1 -22   8   19.40    3.10
  -1  22  -8   21.70    3.10
   1  22   8   25.30    2.80
  -2 -22  -8   16.30    2.70
   2 -22   8   16.70    3.10
  -2  22  -8   15.60    2.80
   2  22   8   16.40    2.40
  -3 -23   8   53.09    5.20
   3 -23  -8   49.40    4.40
  -3  23   8   46.60    4.00
   3  23  -8   48.10    4.20
  -3  23   8   50.59    4.10
   2 -23  -8   37.40    3.60
  -2 -23   8   35.90    3.90
   2  23  -8   23.20    3.10
  -2  23   8   25.00    3.10
  -2  23   8   34.30    3.20
   1 -23  -8   11.60    2.20
  -1 -23   8   14.30    2.90
  -1  23   8    7.70    1.80
   1  23  -8    8.70    2.10
  -1  23   8    8.40    2.20
   0 -23   8   19.40    3.20
   0 -23  -8   15.90    2.40
   0  23  -8   10.40    2.50
   0  23   8   10.40    2.10
   0  23   8   12.50    2.10
  -1 -23  -8   -0.90    1.30
   1 -23   8    2.50    1.80
  -1  23  -8    1.30    1.80
   1  23   8    0.20    1.40
   3 -24  -8    3.30    2.10
  -3  24   8    1.90    1.70
   3  24  -8    2.40    1.90
  -3  24   8    4.30    1.80
  -2 -24   8   -0.10    2.00
   2 -24  -8    0.10    1.60
  -2  24   8    1.30    1.60
   2  24  -8   -1.50    1.60
  -2  24   8    1.90    1.50
   1 -24  -8    2.90    1.80
  -1 -24   8    7.80    2.50
   1  24  -8    4.30    2.00
  -1  24   8    8.50    1.90
  -1  24   8    8.00    2.20
   0 -24  -8   12.50    2.30
   0 -24   8   13.70    2.80
   0  24   8   11.50    2.40
   0  24  -8   13.00    2.50
   0  24   8   15.80    2.40
   1  24   8   17.10    2.50
  -2  25   8   22.50    2.80
   2  25  -8   23.20    3.20
  -2  25   8   18.90    2.90
   1 -25  -8   15.10    2.60
  -1 -25   8   16.80    3.20
  -1  25   8    7.80    1.90
  -1  25   8    9.30    2.40
   1  25  -8   10.80    2.60
   6   0  -9   29.90    3.40
  -6   0   9   23.30    2.80
  -5   0   9   47.40    3.70
   5   0  -9   58.09    4.10
   4   0  -9   10.20    1.80
   4   0  -9   12.10    1.80
  -4   0   9   10.00    1.70
  -3   0   9    8.60    1.80
   3   0  -9    7.80    1.60
  -3   0   9    8.60    1.50
   3   0  -9    7.50    1.40
   2   0  -9  343.87   15.80
  -2   0   9  349.07   15.70
  -2   0   9  333.97   15.60
  -1   0   9  352.06   16.00
  -1   0   9  350.06   16.00
   1   0  -9  356.56   16.30
   0   0  -9  106.39    6.00
   0   0   9  106.39    5.80
   0   0   9  109.29    5.70
  -1   0  -9  114.29    6.60
   1   0   9  126.69    6.60
   1   0   9  121.89    6.40
   2   0   9   40.70    3.10
  -2   0  -9   40.40    3.40
   2   0   9   44.60    3.50
  -3   0  -9    7.60    1.90
   3   0   9    9.30    2.20
   3   0   9    6.90    1.80
  -4   0  -9   17.00    2.60
   4   0   9   16.30    2.80
  -4   0  -9   21.80    2.90
  -6  -1   9   19.60    2.50
   6  -1  -9   17.70    2.80
  -6   1   9   17.90    2.50
   6   1  -9   18.10    2.80
  -5  -1   9  106.19    6.00
   5  -1  -9  104.29    6.20
  -5   1   9  106.19    6.00
   5   1  -9  111.19    6.30
   4  -1  -9  268.47   13.00
  -4  -1   9  278.87   12.90
   4  -1  -9  275.27   12.80
   4   1  -9  278.57   12.90
  -4   1   9  273.97   12.90
   4   1  -9  268.17   13.00
  -3  -1   9  159.98    8.00
  -3  -1   9  156.78    8.10
   3  -1  -9  158.08    7.90
   3  -1  -9  162.88    8.20
  -3   1   9  162.18    8.10
   3   1  -9  170.28    8.20
   3   1  -9  161.08    8.00
  -2  -1   9  124.99    6.60
   2  -1  -9  132.69    6.90
  -2  -1   9  130.89    6.60
   2   1  -9  126.89    6.80
  -2   1   9  127.69    6.60
  -2   1   9  124.99    6.50
   1  -1  -9    3.50    1.30
  -1  -1   9    3.30    1.20
  -1   1   9    4.30    1.20
   1   1  -9    3.80    1.40
  -1   1   9    2.30    1.10
   0  -1   9    1.70    1.10
   0  -1  -9    1.50    1.20
   0  -1   9    2.30    1.20
   0   1  -9    1.20    1.20
   0   1   9    2.30    1.10
   1  -1   9   14.10    1.90
  -1  -1  -9   17.30    2.30
   1  -1   9   15.70    2.10
   1   1   9   16.10    2.10
  -1   1  -9   13.20    2.10
   1   1   9   16.50    2.10
   2  -1   9  120.59    6.60
  -2  -1  -9  120.09    6.60
   2  -1   9  108.69    6.20
   2   1   9  109.89    6.20
   2   1   9  116.99    6.50
  -2   1  -9  115.69    6.60
   3  -1   9  113.09    6.50
   3  -1   9  114.99    6.90
  -3  -1  -9  121.39    6.70
   3   1   9  116.59    6.90
   3   1   9  114.79    6.60
  -3   1  -9  125.59    6.80
  -4  -1  -9   45.80    3.80
  -4  -1  -9   48.10    3.90
   4  -1   9   42.80    4.20
   4   1   9   42.50    4.10
  -4   1  -9   49.90    4.00
  -4   1  -9   46.30    4.00
   6  -2  -9   42.80    3.90
  -6  -2   9   39.80    3.60
   6   2  -9   44.50    3.90
  -6   2   9   42.50    3.70
   5  -2  -9   32.10    3.10
  -5  -2   9   31.60    2.90
   5   2  -9   31.20    3.10
  -5   2   9   31.00    3.00
  -4  -2   9    3.20    1.30
   4  -2  -9    1.70    1.20
  -4  -2   9    2.80    1.50
   4  -2  -9    1.60    1.30
   4   2  -9    1.90    1.30
  -4   2   9    2.80    1.40
   4   2  -9    2.90    1.40
  -3  -2   9   13.90    2.00
   3  -2  -9   11.00    1.80
  -3  -2   9   15.80    2.00
   3  -2  -9   13.90    1.80
   3   2  -9   16.10    2.10
  -3   2   9   16.40    2.00
   3   2  -9   16.50    2.00
   2  -2  -9  317.97   14.70
  -2  -2   9  315.87   14.40
   2   2  -9  320.57   14.70
  -2   2   9  306.17   14.50
  -1  -2   9  345.17   15.70
  -1  -2   9  351.76   15.90
   1  -2  -9  332.67   16.00
  -1   2   9  338.97   15.60
   1   2  -9  354.86   16.10
  -1   2   9  347.17   15.70
   0  -2   9  128.19    6.80
   0  -2  -9  131.09    7.00
   0  -2   9  131.19    6.60
   0   2  -9  121.89    6.80
   0   2   9  131.79    6.60
   0   2   9  125.79    6.60
   1  -2   9  168.18    8.30
  -1  -2  -9  169.58    8.60
   1  -2   9  165.08    8.50
   1   2   9  163.18    8.40
   1   2   9  172.98    8.50
  -1   2  -9  161.38    8.60
  -2  -2  -9   41.90    3.60
   2  -2   9   46.60    3.70
   2  -2   9   42.60    3.30
  -2   2  -9   43.60    3.60
   2   2   9   47.50    3.50
   2   2   9   47.00    3.60
   3  -2   9    4.00    1.60
   3  -2   9    7.90    1.80
  -3  -2  -9    5.70    1.70
   3   2   9    7.20    1.70
  -3   2  -9    7.70    1.90
   3   2   9    7.30    2.00
  -4  -2  -9   17.20    2.70
   4  -2   9   18.20    3.00
  -4  -2  -9   18.50    2.60
  -4   2  -9   21.00    2.80
   4   2   9   15.90    2.80
  -4   2  -9   17.00    2.50
  -6  -3   9   23.60    2.80
   6  -3  -9   25.00    3.20
  -6   3   9   24.30    2.90
   6   3  -9   28.90    3.20
   5  -3  -9   92.29    5.50
  -5  -3   9   90.09    5.20
  -5   3   9   89.09    5.40
   5   3  -9   84.79    5.40
   4  -3  -9  162.38    8.10
   4  -3  -9  158.48    8.20
  -4  -3   9  167.78    8.00
   4   3  -9  159.98    8.00
   4   3  -9  151.18    8.10
  -4   3   9  152.08    8.10
   3  -3  -9  132.49    6.80
   3  -3  -9  126.09    6.60
  -3  -3   9  128.09    6.60
  -3  -3   9  109.69    6.60
   3   3  -9  135.09    6.80
   3   3  -9  136.59    6.60
  -3   3   9  124.69    6.60
  -2  -3   9  158.28    7.80
  -2  -3   9  154.58    7.60
   2  -3  -9  153.78    7.90
  -2   3   9  155.08    7.80
   2   3  -9  148.19    7.90
  -1  -3   9    3.00    1.20
  -1  -3   9    4.30    1.30
   1  -3  -9    4.30    1.50
  -1   3   9    4.20    1.30
   1   3  -9    2.70    1.40
   0  -3   9    3.60    1.30
   0  -3  -9    1.30    1.30
   0  -3   9    3.40    1.20
   0   3   9    2.40    1.20
   0   3  -9    3.40    1.40
   0   3   9    2.50    1.20
  -1  -3  -9   16.70    2.20
   1  -3   9   14.00    1.80
   1  -3   9   15.40    2.20
  -1   3  -9   15.70    2.20
   1   3   9   13.30    1.90
   2  -3   9  123.49    6.80
  -2  -3  -9  128.19    6.80
   2  -3   9  113.69    6.40
   2   3   9  111.49    6.50
  -2   3  -9  118.29    6.70
   2   3   9  125.29    6.70
   3  -3   9   99.39    5.80
  -3  -3  -9  103.69    6.00
   3  -3   9   96.39    6.20
   3   3   9   97.89    5.90
  -3   3  -9  101.79    6.00
   3   3   9  101.09    6.20
  -4  -3  -9   45.60    3.80
   4  -3   9   46.50    4.40
  -4  -3  -9   48.60    3.90
  -4   3  -9   49.40    3.90
  -4   3  -9   45.60    4.00
   4   3   9   50.09    4.30
   4   3   9   46.30    3.90
   6  -4  -9   52.19    4.20
  -6  -4   9   50.69    3.90
  -6   4   9   47.40    4.10
   6   4  -9   56.69    4.30
   5  -4  -9   24.30    2.80
  -5  -4   9   21.30    2.90
  -5  -4   9   20.20    2.30
  -5   4   9   19.00    2.50
   5   4  -9   19.00    2.50
   4  -4  -9    6.50    1.60
  -4  -4   9    5.90    1.80
  -4  -4   9    5.40    1.40
   4  -4  -9    7.00    1.50
  -4   4   9    5.60    1.60
   4   4  -9    4.50    1.40
   4   4  -9    4.10    1.40
   3  -4  -9   11.60    1.80
  -3  -4   9   16.40    1.90
  -3  -4   9   14.00    2.10
   3  -4  -9   12.00    1.80
   3   4  -9   13.00    2.00
  -3   4   9   12.00    1.80
   3   4  -9   12.10    1.70
  -2  -4   9  228.18   11.10
  -2  -4   9  229.18   10.80
   2  -4  -9  232.18   11.20
   2  -4  -9  226.98   11.00
  -2   4   9  235.78   11.10
   2   4  -9  236.68   11.20
  -1  -4   9  349.77   15.70
  -1  -4   9  339.07   15.40
   1  -4  -9  321.37   15.70
  -1   4   9  350.06   15.60
   1   4  -9  337.77   15.80
   0  -4   9  200.68    9.90
   0  -4   9  200.88    9.60
   0  -4  -9  202.98   10.00
   0   4  -9  205.88   10.00
   0   4   9  192.48    9.70
  -1  -4  -9  207.08   10.30
   1  -4   9  211.28   10.00
   1  -4   9  226.08   10.40
   1   4   9  195.88    9.90
  -1   4  -9  193.08   10.10
   1   4   9  201.78   10.00
  -2  -4  -9   47.40    3.70
   2  -4   9   48.10    3.90
   2  -4   9   50.19    3.60
   2   4   9   55.29    3.80
  -2   4  -9   52.89    3.90
   2   4   9   49.10    3.50
  -3  -4  -9    6.10    1.80
   3  -4   9    6.30    1.90
   3  -4   9    3.90    1.40
   3   4   9    9.00    2.00
   3   4   9    7.70    1.80
  -3   4  -9    9.60    2.00
   4  -4   9   13.80    2.70
  -4  -4  -9   13.10    2.30
   4   4   9   14.30    2.40
  -4   4  -9   14.40    2.40
   4   4   9   14.00    2.70
  -4   4  -9   12.50    2.40
  -6  -5   9   23.10    3.50
   6  -5  -9   26.80    3.30
  -6   5   9   25.90    3.10
   6   5  -9   26.00    3.20
  -5  -5   9   80.49    4.70
   5  -5  -9   81.69    5.10
  -5  -5   9   72.89    5.20
   5   5  -9   72.59    4.90
  -5   5   9   77.59    5.00
   4  -5  -9  103.09    5.70
  -4  -5   9  101.79    6.10
  -4  -5   9  105.39    5.60
   4  -5  -9  106.29    5.90
   4   5  -9  101.19    5.70
   4   5  -9   97.09    5.70
  -4   5   9  104.69    5.90
  -3  -5   9   82.39    5.10
   3  -5  -9   72.79    4.60
  -3  -5   9   75.79    4.40
   3  -5  -9   75.19    4.80
   3   5  -9   88.69    4.90
   3   5  -9   86.09    4.60
  -3   5   9   78.19    4.80
   2  -5  -9  105.69    5.50
   2  -5  -9  107.39    5.90
  -2  -5   9  105.09    5.90
  -2  -5   9  103.99    5.50
   2   5  -9  101.59    5.90
  -2   5   9  102.29    5.70
  -1  -5   9   15.90    2.10
  -1  -5   9   18.40    1.90
   1  -5  -9   14.50    2.10
   1   5  -9   22.10    2.50
  -1   5   9   23.00    2.10
   0  -5  -9    2.20    1.30
   0  -5   9    3.30    1.20
   0  -5   9    2.60    1.40
   0   5  -9    3.30    1.50
   0   5   9    4.80    1.40
   1  -5   9   29.20    2.50
  -1  -5  -9   27.60    2.90
   1  -5   9   29.00    2.90
   1   5   9   28.60    2.60
  -1   5  -9   26.90    2.90
   1   5   9   27.50    2.50
  -2  -5  -9  103.59    6.00
   2  -5   9  109.79    6.30
   2  -5   9  103.79    5.80
  -2   5  -9  106.89    6.10
   2   5   9   99.09    5.90
   2   5   9  103.49    5.90
  -3  -5  -9   76.99    5.00
   3  -5   9   71.29    5.30
   3  -5   9   74.99    4.90
   3   5   9   76.19    5.10
   3   5   9   82.39    5.00
  -3   5  -9   77.79    5.00
  -3   5  -9   82.89    5.10
   4  -5   9   41.20    4.30
  -4  -5  -9   48.90    4.00
   4   5   9   47.80    4.20
   4   5   9   46.00    3.90
  -4   5  -9   45.90    4.00
  -4   5  -9   40.80    3.80
  -6  -6   9   34.00    4.00
   6  -6  -9   33.00    3.60
   6   6  -9   38.00    3.70
  -6   6   9   38.80    3.70
  -5  -6   9   16.40    2.70
   5  -6  -9   19.60    2.60
   5   6  -9   17.80    2.50
  -5   6   9   19.40    2.60
  -4  -6   9   14.20    1.80
  -4  -6   9   12.10    2.30
   4  -6  -9   14.50    2.00
   4  -6  -9   12.60    2.10
   4   6  -9   11.20    1.90
   4   6  -9   14.10    2.00
  -4   6   9   14.30    2.20
   3  -6  -9   31.20    2.90
   3  -6  -9   34.20    2.80
  -3  -6   9   38.30    3.40
  -3  -6   9   32.30    2.50
  -3   6   9   35.40    2.80
   3   6  -9   34.70    2.90
   3   6  -9   33.30    2.70
  -2  -6   9  132.09    6.60
  -2  -6   9  135.29    7.10
   2  -6  -9  130.99    6.70
   2  -6  -9  137.19    7.10
  -2   6   9  133.09    7.00
   2   6  -9  128.59    7.00
  -1  -6   9  280.87   13.00
  -1  -6   9  282.77   13.40
   1  -6  -9  289.37   13.50
  -1   6   9  283.67   13.20
   1   6  -9  278.57   13.40
   0  -6   9  230.78   11.30
   0  -6   9  234.68   10.90
   0  -6  -9  222.68   11.30
   0   6   9  219.98   11.00
   0   6  -9  244.58   11.40
  -1  -6  -9  197.18    9.80
   1  -6   9  204.78    9.90
   1  -6   9  197.58    9.40
  -1   6  -9  182.38    9.70
   1   6   9  181.38    9.50
  -2  -6  -9   56.29    4.20
   2  -6   9   59.79    3.90
   2  -6   9   55.79    4.40
   2   6   9   58.49    4.00
  -2   6  -9   58.99    4.20
   3  -6   9    2.20    1.60
  -3  -6  -9    1.90    1.50
  -3   6  -9    3.50    1.60
  -3   6  -9    3.20    1.60
   3   6   9    6.30    1.70
   3   6   9    5.10    1.80
  -4  -6  -9   10.00    2.10
   4  -6   9   10.90    2.60
  -4   6  -9   12.70    2.30
   4   6   9   11.60    2.50
   4   6   9    8.00    2.00
  -4   6  -9   10.50    2.20
   6  -7  -9   27.10    3.40
  -6  -7   9   34.00    4.00
   6   7  -9   33.30    3.50
  -6   7   9   28.60    3.40
  -5  -7   9   84.79    5.80
   5  -7  -9   91.79    5.60
   5   7  -9   89.59    5.50
  -5   7   9   84.99    5.40
  -4  -7   9   98.79    6.10
   4  -7  -9   98.19    5.70
  -4  -7   9   97.39    5.60
   4  -7  -9   99.79    5.60
   4   7  -9   99.79    5.60
   4   7  -9   95.69    5.50
  -4   7   9   94.59    5.60
  -3  -7   9   74.09    4.20
   3  -7  -9   75.59    4.70
  -3  -7   9   73.69    4.90
   3  -7  -9   74.49    4.50
   3   7  -9   80.49    4.70
   3   7  -9   72.09    4.60
  -3   7   9   78.99    4.70
  -2  -7   9   64.19    3.70
   2  -7  -9   60.19    4.10
   2  -7  -9   66.59    3.80
  -2  -7   9   65.89    4.30
  -2   7   9   59.29    3.90
   2   7  -9   57.19    4.10
  -1  -7   9   40.20    3.30
   1  -7  -9   39.40    3.30
  -1  -7   9   33.90    2.70
  -1   7   9   43.50    3.00
   1   7  -9   42.50    3.30
   0  -7  -9    9.80    1.80
   0  -7   9    9.50    1.50
   0  -7   9    8.80    1.80
   0   7   9    9.20    1.70
   0   7  -9    9.60    1.80
   1  -7   9   33.00    2.70
  -1  -7  -9   33.60    3.20
   1  -7   9   36.70    3.10
  -1   7  -9   31.90    3.00
   1   7   9   30.70    2.90
   2  -7   9   82.09    5.40
  -2  -7  -9   87.29    5.40
   2  -7   9   83.49    5.00
   2   7   9   84.89    5.20
  -2   7  -9   86.99    5.30
   3  -7   9   59.29    4.70
  -3  -7  -9   57.29    4.30
   3   7   9   61.69    4.80
   3   7   9   60.49    4.30
  -3   7  -9   59.79    4.30
  -3   7  -9   57.99    4.40
   4  -7   9   40.90    4.30
  -4  -7  -9   45.50    3.90
   4   7   9   50.19    4.30
  -4   7  -9   51.49    4.00
  -4   7  -9   45.00    3.90
   4   7   9   41.90    3.70
   6  -8  -9   41.70    4.00
  -6  -8   9   38.90    4.40
  -6   8   9   38.20    3.80
   6   8  -9   43.40    3.90
   5  -8  -9   25.30    3.00
  -5  -8   9   22.90    3.20
   5   8  -9   20.60    2.70
  -5   8   9   24.20    2.90
   4  -8  -9   14.30    2.20
  -4  -8   9   16.00    2.60
   4  -8  -9   12.60    2.00
  -4   8   9   12.30    2.00
   4   8  -9   13.30    2.00
   4   8  -9   12.30    2.00
  -3  -8   9   59.09    4.40
   3  -8  -9   61.09    3.90
   3  -8  -9   60.09    4.00
  -3  -8   9   58.99    3.50
  -3   8   9   52.39    3.80
   3   8  -9   59.49    4.00
  -2  -8   9  121.49    6.20
   2  -8  -9  129.39    6.80
  -2  -8   9  125.69    6.90
   2  -8  -9  133.09    6.50
  -2   8   9  114.59    6.60
   2   8  -9  117.19    6.70
   1  -8  -9  223.98   10.90
  -1  -8   9  215.08   10.80
  -1  -8   9  217.88   10.20
  -1   8   9  214.98   10.50
   1   8  -9  221.38   10.80
   0  -8   9  206.88    9.50
   0  -8   9  193.18    9.90
   0  -8  -9  188.78    9.90
   0   8  -9  198.08    9.90
   0   8   9  195.68    9.70
  -1  -8  -9  133.29    7.20
   1  -8   9  136.99    6.80
   1  -8   9  139.99    7.40
   1   8   9  124.99    7.00
  -1   8  -9  123.99    7.20
   2  -8   9   42.90    3.80
  -2  -8  -9   36.70    3.50
   2  -8   9   38.80    3.20
  -2   8  -9   48.20    3.70
   2   8   9   44.20    3.40
  -3  -8  -9    1.90    1.50
   3  -8   9    2.10    1.80
  -3   8  -9    1.50    1.40
   3   8   9    0.30    1.40
  -3   8  -9    1.70    1.50
   4  -8   9    9.00    2.50
  -4  -8  -9    8.50    2.10
   4   8   9    9.20    2.20
  -4   8  -9    8.70    2.10
  -4   8  -9   10.80    2.30
   6  -9  -9   23.60    3.30
  -6  -9   9   26.20    3.80
   6   9  -9   26.80    3.20
  -6   9   9   30.50    3.20
  -5  -9   9  122.19    7.60
   5  -9  -9  131.59    7.30
  -5   9   9  123.89    7.00
   5   9  -9  123.69    7.00
  -4  -9   9  101.69    6.40
   4  -9  -9  106.19    6.00
   4  -9  -9  106.99    5.90
  -4   9   9   98.69    5.90
   4   9  -9  105.49    5.80
   4   9  -9   97.59    5.70
  -3  -9   9   84.99    5.50
   3  -9  -9   82.39    5.00
   3  -9  -9   80.69    5.10
  -3   9   9   90.99    5.10
   3   9  -9   86.89    5.10
   2  -9  -9   66.79    4.30
  -2  -9   9   65.29    4.40
   2  -9  -9   59.29    3.80
  -2  -9   9   65.89    3.60
  -2   9   9   50.89    3.80
   2   9  -9   51.29    4.00
   1  -9  -9   28.60    3.00
  -1  -9   9   31.40    2.50
  -1  -9   9   29.10    3.10
  -1   9   9   37.40    2.80
   1   9  -9   33.90    3.10
   0  -9  -9    8.60    1.90
   0  -9   9    9.80    2.00
   0  -9   9    8.50    1.40
   0   9  -9    4.60    1.50
   0   9   9    5.70    1.50
   1  -9   9   32.80    3.10
  -1  -9  -9   31.80    3.10
   1  -9   9   30.70    2.60
  -1   9  -9   30.00    3.10
   1   9   9   26.70    2.60
   2  -9   9   61.89    4.00
   2  -9   9   55.59    4.50
  -2  -9  -9   63.39    4.40
   2   9   9   59.39    4.20
  -2   9  -9   56.79    4.20
  -3  -9  -9   32.20    3.30
   3  -9   9   33.20    3.80
  -3   9  -9   37.70    3.30
  -3   9  -9   37.40    3.50
   3   9   9   36.80    3.30
  -4  -9  -9   47.80    4.10
   4  -9   9   50.59    4.70
  -4   9  -9   53.09    4.40
   4   9   9   54.39    4.30
  -4   9  -9   53.49    4.20
  -6 -10   9   47.50    4.90
   6 -10  -9   49.99    4.50
   6  10  -9   50.19    4.30
  -6  10   9   52.49    4.40
  -5 -10   9   35.80    4.10
   5 -10  -9   40.80    3.60
   5  10  -9   36.80    3.40
  -5  10   9   31.80    3.20
   4 -10  -9    7.70    1.70
  -4 -10   9    7.20    2.20
   4 -10  -9    7.70    1.80
   4  10  -9    4.20    1.50
  -4  10   9    4.60    1.70
   4  10  -9    4.90    1.60
  -3 -10   9   42.90    3.80
   3 -10  -9   43.20    3.40
   3 -10  -9   41.40    3.30
  -3  10   9   36.30    3.10
   3  10  -9   39.50    3.30
   2 -10  -9   55.99    3.70
   2 -10  -9   56.29    4.10
  -2 -10   9   56.89    4.30
   2  10  -9   57.29    4.00
  -2  10   9   54.59    3.80
  -1 -10   9  142.79    8.00
  -1 -10   9  151.58    7.40
   1 -10  -9  155.48    8.10
  -1  10   9  149.19    7.80
   1  10  -9  157.38    8.10
   0 -10   9  164.98    8.80
   0 -10   9  169.08    8.10
   0 -10  -9  166.78    8.80
   0  10  -9  174.18    8.80
   0  10   9  157.48    8.40
   1 -10   9   86.49    4.80
   1 -10   9   84.59    5.50
  -1 -10  -9   88.59    5.30
   1  10   9   76.79    4.90
  -1  10  -9   80.19    5.20
   2 -10   9   24.80    3.00
  -2 -10  -9   22.90    2.80
  -2  10  -9   28.30    3.10
  -2  10  -9   25.70    2.70
   2  10   9   29.60    2.70
   3 -10   9    1.60    1.80
  -3 -10  -9    0.00    1.40
  -3  10  -9    0.30    1.40
  -3  10  -9    3.00    1.70
   3  10   9   -0.10    1.40
   4 -10   9    4.10    2.30
   4  10   9    3.80    1.70
   6 -11  -9   19.40    3.10
  -6 -11   9   24.60    3.80
   6  11  -9   28.40    3.40
  -6  11   9   22.00    3.00
   5 -11  -9   90.89    5.70
  -5 -11   9   80.49    6.00
   5  11  -9   87.89    5.60
  -5  11   9   83.19    5.50
   4 -11  -9   79.49    5.10
   4 -11  -9   82.49    5.00
  -4 -11   9   78.09    5.60
  -4  11   9   78.89    5.10
   4  11  -9   76.59    4.90
   4  11  -9   75.89    4.80
   3 -11  -9   72.49    4.70
   3 -11  -9   70.49    4.60
  -3 -11   9   74.29    5.10
  -3  11   9   66.79    4.50
   3  11  -9   74.19    4.60
  -2 -11   9   49.70    4.00
   2 -11  -9   50.49    3.80
   2 -11  -9   50.29    3.40
   2  11  -9   40.20    3.50
  -2  11   9   45.90    3.50
   1 -11  -9   32.30    3.10
  -1 -11   9   39.90    3.50
   1  11  -9   35.80    3.40
  -1  11   9   42.10    3.00
   0 -11  -9    6.90    1.70
   0 -11   9    8.60    2.00
   0 -11   9    7.20    1.40
   0  11   9    7.70    1.70
   0  11  -9    6.40    1.80
   1 -11   9   29.60    3.20
  -1 -11  -9   27.10    3.10
   1 -11   9   26.20    2.40
   1  11   9   26.40    2.70
  -1  11  -9   30.30    3.20
   2 -11   9   33.20    3.60
  -2 -11  -9   39.90    3.50
  -2  11  -9   34.30    3.00
   2  11   9   36.20    3.20
  -2  11  -9   38.70    3.50
   3 -11   9   22.00    3.20
  -3 -11  -9   25.10    3.10
  -3  11  -9   28.60    3.20
   3  11   9   29.50    3.10
  -3  11  -9   26.80    2.90
   6 -12  -9   38.20    4.00
  -6 -12   9   32.90    4.40
   6  12  -9   38.00    3.90
  -6  12   9   39.70    3.90
  -5 -12   9   35.40    4.20
   5 -12  -9   38.90    3.70
  -5  12   9   33.30    3.30
   5  12  -9   33.30    3.40
   4 -12  -9    5.80    1.70
  -4 -12   9    8.00    2.50
   4 -12  -9    6.90    1.80
   4  12  -9    5.70    1.70
   4  12  -9    5.20    1.60
  -4  12   9    5.10    1.60
  -3 -12   9   37.90    3.80
   3 -12  -9   39.10    3.40
   3 -12  -9   36.20    3.30
   3  12  -9   36.00    3.40
  -3  12   9   40.90    3.40
  -2 -12   9   39.80    3.50
   2 -12  -9   36.50    3.10
   2 -12  -9   36.40    3.30
  -2  12   9   36.80    3.10
   2  12  -9   40.90    3.40
   1 -12  -9  102.39    6.20
  -1 -12   9  112.49    6.40
  -1  12   9   98.29    5.80
   1  12  -9  105.09    6.00
   0 -12  -9  122.79    7.10
   0 -12   9  122.29    7.20
   0  12   9  132.89    6.90
   0  12  -9  127.59    7.00
   1 -12   9   44.80    4.00
  -1 -12  -9   48.70    3.90
   1 -12   9   46.40    3.20
   1  12   9   44.40    3.40
  -1  12  -9   44.30    3.80
   2 -12   9   17.90    2.70
  -2 -12  -9   19.00    2.70
   2  12   9   23.80    2.70
  -2  12  -9   22.50    2.80
  -2  12  -9   19.50    2.40
  -3 -12  -9    0.80    1.60
   3 -12   9    1.50    1.90
   3  12   9    0.50    1.50
  -3  12  -9    0.20    1.40
  -3  12  -9    0.60    1.60
   5 -13  -9   72.39    5.10
  -5 -13   9   69.79    5.70
   5  13  -9   68.69    4.80
  -5  13   9   58.09    4.70
   4 -13  -9   56.49    4.20
  -4 -13   9   59.09    4.80
   4 -13  -9   55.59    4.10
   4  13  -9   53.69    4.00
   4  13  -9   47.50    3.80
  -4  13   9   53.89    4.10
   3 -13  -9   97.99    5.80
  -3 -13   9   91.09    6.10
   3 -13  -9   98.99    5.80
   3  13  -9   96.59    5.70
  -3  13   9   98.29    5.80
   2 -13  -9   41.90    3.20
  -2 -13   9   42.60    3.90
   2 -13  -9   38.90    3.50
  -2  13   9   36.70    3.10
   2  13  -9   36.80    3.20
   1 -13  -9   17.50    2.50
  -1 -13   9   21.20    2.80
  -1  13   9   16.50    2.20
   1  13  -9   20.50    2.60
   0 -13  -9   10.50    2.00
   0 -13   9   14.20    2.50
   0  13  -9   15.80    2.40
   0  13   9   10.90    2.00
   1 -13   9   34.10    3.50
  -1 -13  -9   29.60    3.10
   1  13   9   28.60    2.70
  -1  13  -9   30.50    3.30
   2 -13   9   23.70    3.20
  -2 -13  -9   24.40    3.00
  -2  13  -9   21.50    2.50
   2  13   9   25.80    2.90
  -2  13  -9   23.40    3.10
   3 -13   9   23.80    3.40
  -3 -13  -9   22.40    3.00
   3  13   9   27.10    3.10
  -3  13  -9   23.40    2.80
  -3  13  -9   25.40    3.20
   5 -14  -9   15.50    2.70
  -5 -14   9   20.70    3.60
  -5  14   9   16.40    2.70
   5  14  -9   12.00    2.40
   4 -14  -9    9.90    2.20
  -4 -14   9   10.30    2.70
   4 -14  -9    9.20    2.00
   4  14  -9    9.20    2.00
   4  14  -9    6.40    1.80
  -4  14   9   10.30    2.00
  -3 -14   9   41.10    4.20
   3 -14  -9   38.70    3.50
   3 -14  -9   40.80    3.50
   3  14  -9   46.70    3.60
  -3  14   9   41.40    3.40
   2 -14  -9   41.00    3.30
  -2 -14   9   37.90    3.90
   2 -14  -9   37.00    3.40
  -2  14   9   46.20    3.50
   2  14  -9   40.30    3.50
  -1 -14   9   84.59    5.60
   1 -14  -9   83.19    5.20
  -1  14   9   81.19    5.00
   1  14  -9   80.59    5.30
   0 -14  -9  112.69    6.90
   0 -14   9  120.09    7.10
   0  14  -9  121.29    6.80
   0  14   9  121.29    6.60
   1 -14   9   44.30    4.00
  -1 -14  -9   41.50    3.70
  -1  14  -9   38.00    3.50
   1  14   9   35.50    3.10
  -2 -14  -9   14.10    2.40
   2 -14   9   20.10    3.10
  -2  14  -9   18.30    2.70
   2  14   9   21.60    2.70
   3 -14   9    0.60    1.80
  -3 -14  -9    3.60    1.80
  -3  14  -9    3.30    1.80
   3  14   9    2.70    1.70
   5 -15  -9   66.69    4.90
  -5 -15   9   68.29    5.80
   5  15  -9   58.99    4.60
  -5  15   9   57.19    4.70
   4 -15  -9   38.40    3.60
   4 -15  -9   33.90    3.30
  -4 -15   9   34.60    4.20
   4  15  -9   30.50    3.20
  -4  15   9   29.90    3.10
   4  15  -9   33.90    3.30
   3 -15  -9   59.49    4.50
  -3 -15   9   67.49    5.20
   3 -15  -9   63.49    4.60
  -3  15   9   66.09    4.50
   3  15  -9   69.19    4.60
   2 -15  -9   31.60    2.90
  -2 -15   9   33.00    3.70
   2 -15  -9   29.30    3.20
  -2  15   9   26.60    2.90
   2  15  -9   22.60    2.80
   1 -15  -9   12.80    2.40
  -1 -15   9   13.60    2.40
  -1  15   9   11.30    2.00
   1  15  -9   14.50    2.40
   0 -15   9   18.30    2.80
   0 -15  -9   19.60    2.80
   0  15   9   18.30    2.40
   0  15  -9   22.20    2.80
  -1 -15  -9   30.80    3.40
   1 -15   9   29.30    3.60
  -1  15  -9   26.40    3.10
   1  15   9   28.90    2.80
  -2 -15  -9   20.40    2.90
   2 -15   9   24.50    3.30
  -2  15  -9   15.60    2.50
   2  15   9   16.80    2.50
   3 -15   9   14.50    2.80
  -3 -15  -9   20.40    2.90
   3  15   9   18.40    2.70
  -3  15  -9   22.80    3.10
   5 -16  -9    7.60    2.20
  -5 -16   9    4.00    2.70
  -5  16   9    5.70    2.10
   5  16  -9    5.30    2.00
   4 -16  -9    3.90    1.80
  -4 -16   9    4.80    2.40
   4 -16  -9    2.70    1.80
   4  16  -9    4.20    1.70
  -4  16   9    4.90    1.90
   3 -16  -9   25.90    3.10
  -3 -16   9   28.10    3.60
   3 -16  -9   29.20    3.10
   3  16  -9   25.40    3.00
  -3  16   9   30.10    3.10
  -2 -16   9   34.00    3.60
   2 -16  -9   31.90    3.40
   2 -16  -9   32.70    3.10
  -2  16   9   39.80    3.30
   2  16  -9   36.20    3.50
  -1 -16   9   70.99    4.90
   1 -16  -9   70.39    4.60
  -1  16   9   58.29    4.10
   1  16  -9   57.59    4.40
   0 -16   9  121.09    7.10
   0 -16  -9  107.69    6.70
   0  16  -9  115.39    6.80
   0  16   9  113.09    6.40
   1 -16   9   48.70    4.40
  -1 -16  -9   50.99    4.20
   1  16   9   51.09    3.70
  -1  16  -9   51.79    4.20
   2 -16   9   21.20    3.20
  -2 -16  -9   18.60    2.80
  -2  16  -9   15.30    2.60
   2  16   9   18.50    2.60
  -4 -17   9   27.30    3.90
   4 -17  -9   25.50    3.20
   4 -17  -9   28.10    3.20
   4  17  -9   23.70    2.90
  -4  17   9   31.80    3.40
   3 -17  -9   49.60    4.00
   3 -17  -9   49.80    4.10
  -3 -17   9   51.99    4.50
  -3  17   9   46.60    3.90
   3  17  -9   46.20    4.00
   2 -17  -9   21.10    3.00
  -2 -17   9   26.40    3.40
   2 -17  -9   25.30    2.80
   2  17  -9   16.30    2.60
  -2  17   9   18.30    2.50
  -1 -17   9   16.70    2.70
   1 -17  -9   17.50    3.40
   1 -17  -9   14.50    2.50
   1  17  -9   17.50    2.70
  -1  17   9   18.30    2.40
   0 -17  -9    7.30    1.90
   0 -17   9    8.30    2.30
   0  17   9    6.90    1.60
   0  17  -9    5.30    1.80
  -1 -17  -9   10.00    2.10
   1 -17   9   11.30    2.60
   1  17   9    6.80    1.80
  -1  17  -9    8.20    2.20
   2 -17   9   15.60    2.70
  -2 -17  -9   13.40    2.40
  -2  17  -9   15.00    2.60
   2  17   9   12.20    2.30
   4 -18  -9    6.10    2.10
   4 -18  -9    5.70    2.00
  -4 -18   9    4.70    2.50
   4  18  -9    3.20    1.80
  -4  18   9    4.50    1.90
   3 -18  -9   12.90    2.40
   3 -18  -9   12.00    2.30
  -3 -18   9   12.80    3.00
  -3  18   9   15.40    2.40
   3  18  -9   13.90    2.40
  -2 -18   9   23.40    3.40
   2 -18  -9   24.40    3.10
   2 -18  -9   24.10    2.90
  -2  18   9   29.40    3.00
   2  18  -9   26.40    3.10
  -1 -18   9   43.40    4.00
   1 -18  -9   43.60    3.90
   1 -18  -9   45.60    3.80
  -1  18   9   38.00    3.30
   1  18  -9   39.70    3.90
   0 -18  -9   88.39    5.60
   0 -18   9   88.09    6.00
   0  18   9   84.19    5.30
   0  18  -9   80.89    5.60
  -1 -18  -9   55.79    4.30
   1 -18   9   52.09    4.50
  -1  18  -9   53.79    4.50
   1  18   9   59.49    4.20
   2 -18   9   25.10    3.60
  -2 -18  -9   22.30    3.10
   2  18   9   26.30    3.00
  -2  18  -9   22.00    3.10
   4 -19  -9   17.60    2.90
   4 -19  -9   16.10    2.70
  -4 -19   9   17.30    3.40
  -4  19   9   20.60    2.80
   4  19  -9   19.00    2.80
   3 -19  -9   39.40    3.70
   3 -19  -9   35.40    3.60
  -3 -19   9   38.00    4.40
  -3  19   9   36.10    3.50
   3  19  -9   33.80    3.60
  -2 -19   9   15.80    2.90
   2 -19  -9   17.50    2.60
   2 -19  -9   17.20    2.70
  -2  19   9   15.80    2.40
   2  19  -9   14.80    2.50
   1 -19  -9   22.20    3.00
  -1 -19   9   28.90    3.60
   1 -19  -9   26.30    2.90
   1  19  -9   20.10    2.90
  -1  19   9   22.00    2.70
   0 -19   9    4.10    2.00
   0 -19  -9    2.70    1.80
   0  19   9    3.10    1.50
   0  19  -9    4.40    2.00
   1 -19   9    4.40    2.10
  -1 -19  -9    5.50    2.00
   1  19   9    7.00    1.80
  -1  19  -9    1.70    1.80
   2 -19   9    9.10    2.30
  -2 -19  -9   11.30    2.40
   2  19   9    8.00    2.10
  -2  19  -9    8.90    2.30
   3 -20  -9    5.00    1.90
   3 -20  -9    3.10    1.80
  -3 -20   9    6.90    2.60
  -3  20   9    4.70    1.80
   3  20  -9    4.10    1.80
   2 -20  -9   14.80    2.60
  -2 -20   9   11.50    2.60
   2 -20  -9   14.30    2.50
  -2  20   9   11.80    2.20
   2  20  -9   15.00    2.60
   1 -20  -9   27.90    3.30
   1 -20  -9   35.90    3.30
  -1 -20   9   33.90    4.00
   1  20  -9   21.90    3.10
  -1  20   9   27.20    3.00
   0 -20  -9   71.69    5.30
   0 -20   9   72.29    5.50
   0  20  -9   75.39    5.30
   0  20   9   67.79    4.60
   1 -20   9   57.09    4.90
  -1 -20  -9   48.70    4.40
   1  20   9   51.89    4.10
  -1  20  -9   55.89    4.70
   3 -21  -9   29.30    3.50
  -3 -21   9   33.30    4.20
   3 -21  -9   30.80    3.50
   3  21  -9   25.30    3.30
  -3  21   9   27.50    3.20
   2 -21  -9   22.20    3.00
  -2 -21   9   22.60    3.50
   2 -21  -9   16.70    2.80
   2  21  -9   24.80    3.20
  -2  21   9   20.30    2.60
   1 -21  -9   21.60    3.10
   1 -21  -9   19.20    2.70
  -1 -21   9   18.90    3.20
  -1  21   9   24.90    2.90
   1  21  -9   20.00    3.00
   0 -21   9    6.00    2.30
   0 -21  -9    3.50    1.90
   0  21  -9    4.80    2.10
   0  21   9    4.00    1.70
  -1 -21  -9    3.10    1.90
   1 -21   9    5.60    2.30
  -1  21  -9    2.50    2.00
   1  21   9    4.40    1.80
   2 -22  -9   24.40    3.30
  -2 -22   9   25.40    3.70
   2 -22  -9   26.40    3.20
   2  22  -9   20.20    3.00
  -2  22   9   16.60    2.50
  -1 -22   9   24.50    3.60
   1 -22  -9   16.20    2.80
   1 -22  -9   22.70    2.90
   1  22  -9   15.90    2.90
  -1  22   9   17.30    2.50
   0 -22   9   39.40    4.00
   0 -22  -9   34.30    4.00
   0  22   9   37.00    3.40
   0  22  -9   37.00    4.00
  -6   0  10   10.30    2.10
   6   0 -10   12.60    2.40
  -5   0  10    7.80    1.80
   5   0 -10    8.50    2.00
   4   0 -10   75.19    4.90
  -4   0  10   77.89    4.80
   4   0 -10   82.09    4.90
   3   0 -10   46.50    3.70
  -3   0  10   47.20    3.40
  -2   0  10  116.39    6.20
   2   0 -10  115.59    6.40
  -1   0  10   85.59    5.10
   1   0 -10   84.29    5.30
  -1   0  10   87.59    4.90
   0   0 -10   51.29    3.90
   0   0  10   49.90    3.50
  -1   0 -10    5.00    1.60
   1   0  10    3.00    1.30
   1   0  10    5.10    1.60
  -2   0 -10   -0.10    1.40
   2   0  10    0.70    1.20
   2   0  10    1.90    1.60
  -3   0 -10    0.30    1.40
   3   0  10    2.40    1.80
   3   0  10    1.20    1.50
   6  -1 -10   13.80    2.60
  -6  -1  10   12.50    2.20
  -6   1  10   14.60    2.30
   6   1 -10   15.30    2.60
  -5  -1  10  113.09    6.50
   5  -1 -10  117.29    6.80
  -5   1  10  114.19    6.50
   5   1 -10  118.79    6.80
   4  -1 -10   73.19    4.60
  -4  -1  10   68.69    4.50
   4  -1 -10   68.69    4.60
   4   1 -10   72.39    4.50
  -4   1  10   75.99    4.60
   4   1 -10   69.69    4.50
  -3  -1  10   45.90    3.30
   3  -1 -10   45.80    3.50
   3   1 -10   41.50    3.50
  -3   1  10   46.70    3.40
   2  -1 -10    4.50    1.60
  -2  -1  10    5.60    1.30
   2   1 -10    5.80    1.70
  -2   1  10    8.00    1.60
  -1  -1  10   16.30    2.00
   1  -1 -10   14.50    2.30
  -1   1  10   16.50    2.00
   1   1 -10   18.00    2.30
   0  -1 -10   16.30    2.40
   0  -1  10   22.40    2.40
   0  -1  10   20.30    2.40
   0   1  10   25.20    2.30
   0   1  10   19.20    2.20
   0   1 -10   24.30    2.80
   1  -1  10   96.39    5.30
  -1  -1 -10   92.79    5.70
   1  -1  10   89.99    5.50
   1   1  10   92.19    5.30
   1   1  10   94.59    5.50
  -1   1 -10   83.49    5.50
   2  -1  10   48.60    3.60
  -2  -1 -10   50.99    4.10
   2  -1  10   49.00    4.10
  -2   1 -10   58.09    4.20
   2   1  10   50.69    3.80
   2   1  10   49.90    4.00
  -3  -1 -10   37.60    3.60
   3  -1  10   39.00    3.50
   3  -1  10   40.10    3.90
  -3   1 -10   43.50    3.90
   3   1  10   40.50    3.90
   3   1  10   42.00    3.60
  -6  -2  10    8.10    2.00
   6  -2 -10    8.70    2.30
  -6   2  10    8.50    2.00
   6   2 -10    9.60    2.20
   5  -2 -10    9.10    2.00
  -5  -2  10    9.80    1.90
   5   2 -10    7.80    1.90
  -5   2  10    7.60    1.90
   4  -2 -10   75.69    4.70
  -4  -2  10   74.99    4.60
   4  -2 -10   69.19    4.60
   4   2 -10   75.09    4.70
   4   2 -10   76.19    4.70
  -4   2  10   70.29    4.50
   3  -2 -10   49.00    3.80
  -3  -2  10   48.50    3.60
   3   2 -10   60.89    4.00
  -3   2  10   62.59    4.00
  -2  -2  10  134.49    7.00
   2  -2 -10  122.49    7.20
  -2   2  10  139.59    7.10
   2   2 -10  141.59    7.40
  -1  -2  10   96.99    5.40
   1  -2 -10   92.79    5.70
  -1  -2  10  100.19    5.50
   1   2 -10   95.49    5.80
  -1   2  10  100.89    5.50
   0  -2 -10   57.69    4.20
   0  -2  10   63.49    4.10
   0  -2  10   65.89    4.10
   0   2  10   64.19    4.10
   0   2 -10   58.79    4.40
   1  -2  10    8.90    1.80
  -1  -2 -10    6.80    1.90
   1  -2  10    8.20    1.90
   1   2  10    6.80    1.60
  -1   2 -10    4.60    1.70
   1   2  10    4.90    1.40
   2  -2  10    0.70    1.30
  -2  -2 -10    1.80    1.50
   2  -2  10    1.20    1.60
   2   2  10    2.90    1.50
  -2   2 -10    0.40    1.40
   2   2  10    1.70    1.50
   3  -2  10    3.40    1.70
   3  -2  10    5.10    2.10
  -3  -2 -10    7.40    2.00
   3   2  10    2.10    1.40
  -3   2 -10    4.00    1.80
   3   2  10    0.30    1.60
  -6  -3  10   24.50    3.30
   6  -3 -10   24.50    3.20
  -6   3  10   22.30    3.00
   6   3 -10   23.50    3.10
   5  -3 -10   72.59    4.90
  -5  -3  10   72.69    4.60
  -5   3  10   67.59    4.70
   5   3 -10   67.99    4.70
   4  -3 -10   38.30    3.40
  -4  -3  10   38.20    3.20
   4  -3 -10   43.20    3.30
  -4   3  10   41.30    3.30
   4   3 -10   45.20    4.40
   4   3 -10   42.20    3.30
   3  -3 -10   44.70    3.50
  -3  -3  10   46.30    3.30
  -3   3  10   43.60    3.40
   3   3 -10   42.30    3.50
  -2  -3  10    2.00    1.20
   2  -3 -10    2.40    1.40
  -2  -3  10    2.10    1.20
   2   3 -10    2.60    1.40
  -2   3  10    2.30    1.30
  -1  -3  10   17.10    2.20
  -1  -3  10   16.90    2.00
   1  -3 -10   15.50    2.30
  -1   3  10   18.60    2.10
   1   3 -10   15.40    2.20
   0  -3 -10   21.50    2.70
   0  -3  10   21.80    2.60
   0  -3  10   22.10    2.20
   0   3  10   25.40    2.60
   0   3 -10   26.90    2.90
  -1  -3 -10   92.89    5.70
   1  -3  10   97.69    5.80
   1  -3  10   96.99    5.50
  -1   3 -10   96.59    5.80
   1   3  10   89.19    5.50
   2  -3  10   61.89    4.20
  -2  -3 -10   63.59    4.50
   2  -3  10   57.19    4.50
   2   3  10   59.69    4.10
   2   3  10   55.69    4.20
  -2   3 -10   59.59    4.50
   3  -3  10   41.30    3.60
   3  -3  10   38.90    4.00
  -3  -3 -10   39.50    3.80
  -3   3 -10   44.60    4.00
   3   3  10   40.20    4.00
   3   3  10   49.90    3.80
   6  -4 -10    5.60    2.00
  -6   4  10    3.80    1.70
   6   4 -10    8.30    2.20
   5  -4 -10    8.10    2.00
  -5  -4  10    8.80    1.80
  -5   4  10    9.60    2.10
   5   4 -10    6.60    1.90
   4  -4 -10   53.49    3.90
   4  -4 -10   56.29    4.00
  -4  -4  10   54.79    3.70
   4   4 -10   53.89    4.00
  -4   4  10   55.79    4.00
  -3  -4  10   46.80    3.30
   3  -4 -10   50.29    3.80
  -3  -4  10   43.90    3.70
  -3   4  10   51.49    3.70
   3   4 -10   51.39    3.70
   2  -4 -10  144.59    7.80
  -2  -4  10  147.29    7.70
  -2  -4  10  133.09    7.30
  -2   4  10  157.08    7.70
   2   4 -10  150.38    7.90
  -1  -4  10  122.59    6.50
   1  -4 -10  122.69    7.00
  -1  -4  10  120.79    6.80
   1   4 -10  128.49    7.00
  -1   4  10  130.29    6.70
   0  -4  10   77.99    4.60
   0  -4  10   76.59    4.90
   0  -4 -10   74.29    4.90
   0   4 -10   81.49    5.10
   0   4  10   76.39    4.80
  -1  -4 -10   13.20    2.20
   1  -4  10   19.80    2.30
   1  -4  10   16.60    2.40
   1   4  10   17.20    2.20
  -1   4 -10   16.50    2.50
   2  -4  10    3.00    1.30
  -2  -4 -10    3.90    1.70
   2  -4  10    5.00    1.90
   2   4  10    5.40    1.70
  -2   4 -10    1.50    1.40
   3  -4  10    7.60    1.90
   3  -4  10    7.10    2.10
  -3  -4 -10    9.20    2.10
   3   4  10    5.60    1.90
   3   4  10    5.60    2.10
  -3   4 -10    4.70    1.90
   6  -5 -10   16.90    2.80
  -6   5  10   19.30    2.80
   6   5 -10   16.80    2.80
   5  -5 -10   51.79    4.00
   5   5 -10   45.10    3.90
  -5   5  10   46.20    3.70
   4  -5 -10   33.80    3.10
   4  -5 -10   33.20    3.10
  -4  -5  10   37.80    3.00
  -4  -5  10   32.00    3.60
   4   5 -10   42.40    3.40
  -4   5  10   45.00    3.40
  -3  -5  10   25.60    2.90
   3  -5 -10   26.40    2.80
  -3  -5  10   24.40    2.40
   3   5 -10   28.80    2.80
  -3   5  10   26.70    2.80
  -2  -5  10    5.60    1.30
   2  -5 -10    6.30    1.70
  -2  -5  10    5.00    1.60
  -2   5  10    5.60    1.50
   2   5 -10    3.90    1.50
   1  -5 -10   14.40    2.20
  -1  -5  10   14.00    1.90
  -1  -5  10   12.20    2.10
  -1   5  10   18.10    2.20
   1   5 -10   11.70    2.00
   0  -5  10   28.10    2.50
   0  -5 -10   25.80    2.80
   0  -5  10   25.70    2.80
   0   5  10   25.80    2.50
   0   5 -10   25.60    2.80
  -1  -5 -10   85.19    5.30
   1  -5  10   81.49    5.20
   1  -5  10   80.69    4.80
  -1   5 -10   73.19    5.10
   1   5  10   73.89    4.80
  -2  -5 -10   70.59    4.90
   2  -5  10   66.99    4.50
   2  -5  10   65.49    4.80
  -2   5 -10   74.89    4.90
   2   5  10   67.59    4.60
   3  -5  10   38.30    3.40
  -3  -5 -10   46.10    3.90
   3  -5  10   40.30    4.10
  -3   5 -10   49.90    4.10
   3   5  10   39.60    3.50
  -3   5 -10   43.90    3.80
  -6   6  10    1.90    1.80
  -5  -6  10   14.80    2.90
   5  -6 -10   11.70    2.30
  -5   6  10   14.00    2.40
   5   6 -10   13.40    2.30
  -4  -6  10   46.60    4.10
   4  -6 -10   49.60    3.70
   4  -6 -10   51.09    3.70
   4   6 -10   40.60    3.60
  -4   6  10   42.40    3.50
   3  -6 -10   40.20    3.40
  -3  -6  10   45.70    3.80
  -3  -6  10   39.80    3.00
   3   6 -10   43.30    3.50
  -3   6  10   37.20    3.30
  -2  -6  10  117.79    6.70
   2  -6 -10  121.49    6.70
  -2  -6  10  118.29    6.20
  -2   6  10  120.59    6.60
   2   6 -10  116.09    6.70
  -1  -6  10  113.69    6.10
  -1  -6  10  112.99    6.50
   1  -6 -10  104.89    6.40
   1   6 -10  121.19    6.60
  -1   6  10  123.39    6.40
   0  -6  10   72.59    4.40
   0  -6 -10   70.29    4.90
   0  -6  10   71.69    4.80
   0   6 -10   74.19    4.90
   0   6  10   77.29    4.60
   1  -6  10   25.40    3.10
   1  -6  10   28.70    2.60
  -1  -6 -10   29.20    3.20
   1   6  10   26.30    2.80
  -1   6 -10   27.60    3.10
   2  -6  10    3.60    1.50
  -2  -6 -10    2.30    1.60
   2  -6  10    6.50    2.10
  -2   6 -10    4.60    1.80
   2   6  10    4.30    1.50
  -3  -6 -10    6.60    1.90
   3  -6  10    5.10    2.00
  -3   6 -10    2.40    1.70
  -3   6 -10    3.70    1.90
   3   6  10    3.30    1.60
  -5  -7  10   31.20    3.70
   5  -7 -10   32.80    3.40
  -5   7  10   30.60    3.30
   5   7 -10   28.40    3.10
   4  -7 -10   34.10    3.30
  -4  -7  10   35.10    3.60
   4  -7 -10   29.10    3.20
   4   7 -10   42.50    3.30
  -4   7  10   40.90    3.40
   3  -7 -10   15.30    2.30
  -3  -7  10   15.00    2.00
  -3  -7  10   16.90    2.60
   3   7 -10   18.90    2.40
  -3   7  10   20.10    2.50
   2  -7 -10   15.60    2.30
  -2  -7  10   17.10    2.00
  -2  -7  10   15.40    2.30
  -2   7  10   21.70    2.50
   2   7 -10   19.70    2.60
  -1  -7  10   13.90    2.20
   1  -7 -10   11.60    2.10
  -1  -7  10   12.00    1.70
   1   7 -10    9.70    1.90
  -1   7  10   12.00    1.90
   0  -7  10   22.70    2.40
   0  -7 -10   27.10    3.00
   0  -7  10   26.50    2.90
   0   7 -10   24.90    2.80
   0   7  10   24.00    2.50
  -1  -7 -10   57.19    4.20
   1  -7  10   54.59    3.60
   1  -7  10   50.09    4.10
  -1   7 -10   47.00    4.00
   1   7  10   50.29    3.80
   2  -7  10   62.19    4.30
  -2  -7 -10   64.79    4.80
   2  -7  10   60.89    4.90
   2   7  10   67.59    4.50
  -2   7 -10   72.79    4.90
  -3  -7 -10   42.20    3.80
   3  -7  10   29.10    3.80
  -3   7 -10   46.60    4.00
  -3   7 -10   42.90    3.80
   3   7  10   44.60    3.60
  -5  -8  10   24.10    3.40
   5  -8 -10   18.00    2.70
   5   8 -10   21.80    2.80
  -5   8  10   22.40    2.90
   4  -8 -10   43.80    3.50
   4  -8 -10   40.10    3.30
  -4  -8  10   38.10    3.90
   4   8 -10   31.00    3.10
  -4   8  10   33.10    3.30
   3  -8 -10   37.40    3.40
  -3  -8  10   43.90    3.90
   3  -8 -10   43.10    4.50
  -3   8  10   37.90    3.20
   3   8 -10   37.10    3.30
   2  -8 -10  114.09    6.40
  -2  -8  10  106.39    5.70
  -2  -8  10  109.79    6.40
  -2   8  10  101.79    6.00
   2   8 -10  114.89    6.40
  -1  -8  10   86.39    5.60
   1  -8 -10   88.69    5.70
  -1  -8  10   89.49    5.00
   1   8 -10   95.29    5.70
  -1   8  10   94.39    5.40
   0  -8  10   47.20    3.80
   0  -8 -10   43.00    3.80
   0  -8  10   43.90    3.20
   0   8  10   43.80    3.30
   0   8 -10   50.39    3.90
   1  -8  10   22.80    3.00
  -1  -8 -10   22.70    2.90
   1  -8  10   22.90    2.50
  -1   8 -10   22.90    2.80
   1   8  10   26.30    2.80
   2  -8  10    3.70    1.90
   2  -8  10    3.30    1.50
  -2  -8 -10    4.70    1.80
  -2   8 -10    5.10    1.80
   2   8  10    3.30    1.50
  -3  -8 -10    4.40    1.80
   3  -8  10    3.30    2.00
  -3   8 -10    1.90    1.70
  -3   8 -10    1.70    1.60
   3   8  10    2.50    1.60
   5  -9 -10   34.40    3.60
  -5  -9  10   30.30    3.70
   5   9 -10   30.80    3.40
  -5   9  10   34.70    3.50
   4  -9 -10   34.40    3.40
  -4  -9  10   34.90    3.80
   4  -9 -10   33.50    3.30
   4   9 -10   41.50    3.40
  -4   9  10   41.70    3.60
   3  -9 -10   19.40    2.60
  -3  -9  10   21.90    2.90
   3  -9 -10   18.10    2.50
  -3   9  10   23.50    2.80
   3   9 -10   25.20    2.80
  -2  -9  10   19.30    2.70
   2  -9 -10   17.10    2.50
  -2   9  10   20.60    2.50
   2   9 -10   18.90    2.60
  -1  -9  10   19.80    2.10
   1  -9 -10   20.40    2.60
  -1  -9  10   17.80    2.60
   1   9 -10   16.90    2.50
  -1   9  10   16.20    2.20
   0  -9  10   24.30    3.00
   0  -9  10   23.80    2.30
   0  -9 -10   19.20    2.60
   0   9  10   26.50    2.70
   0   9 -10   25.00    2.90
   1  -9  10   29.80    2.70
  -1  -9 -10   29.50    3.30
   1  -9  10   29.60    3.30
   1   9  10   27.90    2.80
  -1   9 -10   31.50    3.40
   2  -9  10   58.29    4.80
   2  -9  10   56.89    4.10
  -2  -9 -10   61.99    4.60
   2   9  10   68.29    4.60
  -2   9 -10   68.49    4.80
   3  -9  10   38.10    4.00
  -3  -9 -10   41.50    4.00
   3   9  10   45.60    3.80
  -3   9 -10   42.00    3.70
  -3   9 -10   41.90    3.90
  -5 -10  10   11.70    2.80
   5 -10 -10   16.10    2.70
   5  10 -10   13.00    2.40
  -5  10  10   12.60    2.40
  -4 -10  10   21.50    3.10
   4 -10 -10   20.40    2.70
   4 -10 -10   19.00    2.50
   4  10 -10   15.00    2.30
  -4  10  10   12.70    2.40
   3 -10 -10   46.50    3.70
   3 -10 -10   42.40    3.40
  -3 -10  10   45.00    4.00
   3  10 -10   42.30    3.60
  -3  10  10   37.70    3.50
   2 -10 -10  101.99    6.00
  -2 -10  10  102.79    6.10
   2  10 -10   94.39    5.90
  -2  10  10   91.49    5.70
  -1 -10  10   63.99    4.70
   1 -10 -10   65.39    4.60
  -1  10  10   73.09    4.50
   1  10 -10   69.59    4.80
   0 -10 -10   22.60    2.80
   0 -10  10   22.20    2.30
   0 -10  10   22.10    2.90
   0  10  10   23.60    2.50
   0  10 -10   28.10    3.10
   1 -10  10   19.30    2.90
  -1 -10 -10   26.30    3.20
   1 -10  10   19.40    2.30
  -1  10 -10   20.40    2.80
   1  10  10   21.60    2.60
  -2 -10 -10    2.40    1.70
   2 -10  10    6.50    2.20
  -2  10 -10    3.00    1.60
   2  10  10    6.70    1.90
  -2  10 -10    3.80    1.60
   3  10  10    3.00    1.80
   5 -11 -10   28.00    3.40
  -5 -11  10   30.30    3.90
   5  11 -10   24.30    4.60
  -5  11  10   24.70    3.10
   4 -11 -10   41.00    3.70
   4 -11 -10   36.80    3.50
  -4 -11  10   38.50    4.20
  -4  11  10   46.50    3.80
   4  11 -10   46.90    3.70
   3 -11 -10   17.10    2.60
  -3 -11  10   19.40    2.90
   3 -11 -10   17.60    2.40
  -3  11  10   20.70    2.70
   3  11 -10   19.30    2.50
  -2 -11  10    9.80    2.10
   2 -11 -10   10.40    2.10
   2  11 -10    8.10    1.90
  -2  11  10   12.10    2.00
   1 -11 -10   18.20    2.60
  -1 -11  10   25.80    3.20
  -1  11  10   18.20    2.50
   1  11 -10   18.80    2.60
   0 -11  10   21.60    3.00
   0 -11 -10   23.00    3.00
   0  11  10   23.50    2.70
   0  11 -10   24.60    3.00
   1 -11  10   21.50    3.10
   1 -11  10   16.80    2.20
  -1 -11 -10   18.70    2.80
  -1  11 -10   22.80    2.90
   1  11  10   17.90    2.40
   2 -11  10   46.30    4.50
  -2 -11 -10   51.89    4.40
   2  11  10   54.19    4.00
  -2  11 -10   58.99    4.10
  -2  11 -10   53.69    4.40
   5 -12 -10   14.90    2.70
  -5 -12  10   15.70    3.20
  -5  12  10   11.20    2.40
  -4 -12  10   18.10    3.10
   4 -12 -10   15.20    2.40
   4 -12 -10   12.60    2.30
  -4  12  10    9.10    2.00
   4  12 -10   11.10    2.20
   3 -12 -10   60.29    4.30
   3 -12 -10   64.89    4.60
  -3 -12  10   58.39    4.80
  -3  12  10   62.69    4.50
   3  12 -10   64.59    4.50
   2 -12 -10   90.69    5.70
  -2 -12  10   83.49    5.70
   2  12 -10   87.49    5.50
  -2  12  10   81.69    5.20
   1 -12 -10   46.00    3.90
  -1 -12  10   45.30    4.10
  -1  12  10   49.30    3.60
   1  12 -10   56.89    4.20
   0 -12  10   11.90    2.40
   0 -12 -10   11.20    2.30
   0  12  10   15.50    2.20
   0  12 -10   13.90    2.50
  -1 -12 -10   15.40    2.60
   1 -12  10   13.80    2.60
  -1  12 -10   19.50    2.60
   1  12  10   18.70    2.50
  -2 -12 -10    9.20    2.20
   2 -12  10    9.30    2.50
  -2  12 -10    9.90    2.30
   2  12  10   10.30    2.20
  -2  12 -10    9.90    2.80
  -5  13  10   22.30    3.00
  -4 -13  10   41.50    4.50
   4 -13 -10   46.10    4.00
   4 -13 -10   48.60    4.00
  -4  13  10   51.79    4.10
   4  13 -10   49.99    3.90
  -3 -13  10   15.40    2.80
   3 -13 -10   16.10    2.60
   3 -13 -10   14.10    2.30
  -3  13  10   17.30    2.40
   3  13 -10   18.30    2.60
  -2 -13  10    7.50    2.10
   2 -13 -10    6.20    1.90
  -2  13  10    7.00    1.90
   2  13 -10    6.60    2.00
   1 -13 -10   26.40    3.10
  -1 -13  10   24.30    3.10
   1  13 -10   21.00    2.80
  -1  13  10   22.40    2.60
   0 -13  10   32.90    3.50
   0 -13 -10   25.70    3.20
   0  13 -10   23.40    3.00
   0  13  10   27.30    2.70
  -1 -13 -10   19.10    2.70
   1 -13  10   15.90    2.80
   1  13  10   17.60    2.50
  -1  13 -10   15.60    2.60
   2 -13  10   40.00    4.30
  -2 -13 -10   36.10    3.90
  -2  13 -10   46.60    4.20
   2  13  10   46.00    3.80
   4 -14 -10   17.50    2.60
   4 -14 -10   19.30    2.70
  -4 -14  10   13.00    2.90
  -4  14  10   14.10    2.40
   4  14 -10   14.60    2.50
   3 -14 -10   67.49    4.90
   3 -14 -10   68.79    4.70
  -3 -14  10   67.39    5.20
   3  14 -10   57.99    4.70
  -3  14  10   68.49    4.70
  -2 -14  10   64.99    5.00
   2 -14 -10   67.79    4.80
  -2  14  10   63.19    4.50
   2  14 -10   60.39    4.60
   1 -14 -10   36.80    3.70
  -1 -14  10   33.20    3.80
  -1  14  10   41.90    3.50
   1  14 -10   44.90    3.90
   0 -14 -10   13.70    2.60
   0 -14  10   10.30    2.50
   0  14  10   13.80    2.10
   0  14 -10   18.40    2.80
  -1 -14 -10   14.90    2.70
   1 -14  10   18.30    3.00
  -1  14 -10   18.40    2.90
   1  14  10   18.00    2.40
  -2 -14 -10   16.10    2.70
   2 -14  10   16.40    2.90
   2  14  10   19.00    2.70
  -2  14 -10   15.20    2.70
  -4 -15  10   24.30    3.70
   4 -15 -10   21.90    3.00
   4 -15 -10   22.90    3.10
  -4  15  10   25.40    3.20
   4  15 -10   29.60    3.20
   3 -15 -10    9.50    2.10
   3 -15 -10    7.30    2.10
  -3 -15  10   11.90    2.70
  -3  15  10   12.00    2.30
   3  15 -10   14.90    2.50
   2 -15 -10    3.90    1.70
  -2 -15  10    5.50    2.20
  -2  15  10    3.80    1.60
   2  15 -10    2.20    1.70
   1 -15 -10   20.00    2.90
  -1 -15  10   16.40    2.70
   1  15 -10   19.40    2.80
  -1  15  10   17.30    2.50
   0 -15  10   29.80    3.40
   0 -15 -10   25.70    3.20
   0  15  10   27.90    2.80
   0  15 -10   27.70    3.40
   1 -15  10   20.90    3.00
  -1 -15 -10   20.70    2.90
  -1  15 -10   26.00    3.30
   1  15  10   14.90    2.40
  -4 -16  10   13.40    3.00
   4 -16 -10   17.40    2.80
   4 -16 -10   17.40    2.80
   4  16 -10    8.70    2.30
  -4  16  10   12.40    2.30
   3 -16 -10   62.29    4.50
   3 -16 -10   63.99    4.80
  -3 -16  10   60.29    5.10
  -3  16  10   59.79    4.50
   3  16 -10   54.89    4.50
   2 -16 -10   39.30    3.80
  -2 -16  10   36.50    4.10
  -2  16  10   36.70    3.50
   2  16 -10   37.70    3.80
   1 -16 -10   32.70    3.70
  -1 -16  10   38.60    4.00
   1  16 -10   40.00    3.90
  -1  16  10   36.00    3.40
   0 -16  10   26.40    3.50
   0 -16 -10   20.50    3.00
   0  16 -10   31.60    3.60
   0  16  10   23.20    2.80
   1 -16  10   17.30    3.00
  -1 -16 -10   12.90    2.60
   1  16  10   14.10    2.40
  -1  16 -10   13.30    2.70
  -3 -17  10    5.80    2.20
   3 -17 -10    3.80    1.90
   3 -17 -10    5.50    2.00
   3  17 -10    6.30    2.10
  -3  17  10    6.40    1.80
   2 -17 -10    3.10    1.90
  -2 -17  10    3.00    2.00
  -2  17  10    1.20    1.50
   2  17 -10    1.10    1.70
  -1 -17  10   12.30    2.70
   1 -17 -10   13.70    2.60
  -1  17  10   12.20    2.10
   1  17 -10    8.70    2.40
   0 -17  10   18.50    3.00
   0 -17 -10   21.60    3.10
   0  17  10   20.90    2.80
   0  17 -10   24.40    3.30
   1 -17  10   33.00    4.10
  -1 -17 -10   32.10    3.80
   1  17  10   32.30    3.40
  -1  17 -10   35.50    3.90
  -3 -18  10   51.39    5.00
   3 -18 -10   53.99    4.50
   3 -18 -10   52.59    4.60
  -3  18  10   53.19    4.30
   3  18 -10   49.30    4.40
   2 -18 -10   23.00    3.20
  -2 -18  10   21.20    3.20
   2  18 -10   20.70    3.00
  -2  18  10   23.20    2.90
   1 -18 -10   45.00    4.20
  -1 -18  10   44.90    4.50
   1  18 -10   43.10    4.20
  -1  18  10   45.70    3.80
   0 -18 -10   30.10    3.70
   0 -18  10   37.30    4.20
   0  18 -10   38.30    4.00
   0  18  10   37.10    3.30
  -2 -19  10    5.20    2.40
   2 -19 -10    1.90    1.90
   2  19 -10    3.90    2.00
  -2  19  10    4.70    1.90
  -1 -19  10   11.00    2.80
   1 -19 -10   10.40    2.50
   1  19 -10   10.30    2.50
  -1  19  10    8.60    2.10
   0  19  10   20.70    2.80
   0  19 -10   26.60    3.50
  -5   0  11   78.69    5.10
   4   0 -11   17.10    2.40
  -4   0  11   14.10    2.20
   3   0 -11   18.00    2.50
  -3   0  11   17.50    2.20
  -2   0  11   22.10    2.50
   2   0 -11   18.20    2.70
  -1   0  11    3.60    1.40
   1   0 -11    3.90    1.70
   0   0  11    1.30    1.30
   0   0 -11    0.00    1.30
   1   0  11   11.40    2.10
  -1   0 -11    8.60    2.10
   2   0  11    6.70    1.90
   2   0  11    4.80    2.00
  -2   0 -11    4.40    1.90
  -5  -1  11    3.40    1.70
  -5   1  11    3.50    1.60
   4  -1 -11    8.40    1.90
  -4  -1  11   10.60    2.00
  -4   1  11    9.30    2.00
   4   1 -11    9.30    2.10
  -3  -1  11    1.00    1.30
   3  -1 -11    1.70    1.40
   3   1 -11    3.90    1.70
  -3   1  11    2.40    1.40
   2  -1 -11   32.10    3.30
  -2  -1  11   29.40    2.80
  -2   1  11   32.90    2.90
   2   1 -11   38.20    3.50
   1  -1 -11   54.19    4.20
  -1  -1  11   52.59    3.80
  -1   1  11   55.29    3.80
   1   1 -11   57.29    4.30
   0  -1 -11   15.50    2.50
   0  -1  11   13.90    2.10
   0   1 -11   11.00    2.10
   0   1  11   13.20    2.10
   1  -1  11    2.30    1.60
   1  -1  11    2.20    1.50
  -1  -1 -11    2.70    1.50
   1   1  11   -0.50    1.20
  -1   1 -11    1.70    1.60
  -2  -1 -11    9.70    2.40
   2  -1  11   10.30    2.40
   2  -1  11   11.60    2.20
  -2   1 -11   10.50    2.30
   2   1  11    9.80    2.00
  -5  -2  11   66.59    4.60
  -5   2  11   62.39    4.60
   4  -2 -11   16.80    2.50
  -4  -2  11   18.40    2.40
  -4   2  11   24.20    2.80
   4   2 -11   22.00    2.70
  -3  -2  11   28.50    2.80
   3  -2 -11   27.10    3.10
   3   2 -11   27.70    3.10
  -3   2  11   32.80    2.80
  -2  -2  11   27.10    2.60
   2  -2 -11   28.50    3.10
   2   2 -11   25.20    3.00
  -2   2  11   22.50    2.50
   1  -2 -11   12.50    2.30
  -1  -2  11   11.70    1.90
  -1   2  11   10.80    1.90
   1   2 -11    9.10    2.10
   0  -2 -11    0.30    1.40
   0  -2  11    1.50    1.30
   0  -2  11    1.80    1.40
   0   2 -11    0.20    1.30
   0   2  11   -0.30    1.30
  -1  -2 -11    9.60    2.20
   1  -2  11    8.10    1.90
   1  -2  11   11.00    2.20
   1   2  11    8.30    1.90
  -1   2 -11    9.50    2.20
   2  -2  11    7.40    2.10
  -2  -2 -11    8.50    2.20
   2  -2  11    6.60    1.90
   2   2  11    5.20    1.90
  -2   2 -11    6.50    2.10
  -5  -3  11    6.60    1.80
  -5   3  11    3.60    1.60
  -4  -3  11    5.80    1.60
   4  -3 -11    5.80    1.80
   4   3 -11    3.90    1.70
  -4   3  11    8.30    2.00
  -3  -3  11    3.30    1.40
   3  -3 -11    4.80    1.80
   3   3 -11    6.20    1.80
  -3   3  11    8.30    1.80
  -2  -3  11   27.40    2.80
   2  -3 -11   28.30    3.30
   2   3 -11   34.30    3.20
  -2   3  11   42.20    3.20
  -1  -3  11   38.30    3.40
  -1  -3  11   41.90    3.30
   1  -3 -11   45.60    3.80
  -1   3  11   43.20    3.40
   1   3 -11   41.50    3.70
   0  -3 -11   28.90    3.20
   0  -3  11   30.80    2.80
   0  -3  11   25.30    3.00
   0   3  11   18.90    2.50
   0   3 -11   19.30    2.70
   1  -3  11   11.70    2.00
  -1  -3 -11   12.20    2.40
   1  -3  11   15.50    2.60
  -1   3 -11    5.70    1.90
   1   3  11    8.60    1.90
  -2  -3 -11   16.30    2.80
   2  -3  11   19.10    2.90
   2  -3  11   16.20    2.40
   2   3  11   13.40    2.30
  -2   3 -11   14.00    2.60
   5  -4 -11   40.40    5.40
  -5   4  11   44.40    3.80
   4  -4 -11   16.20    2.40
  -4  -4  11   15.00    2.20
  -4   4  11   20.20    2.70
   4   4 -11   20.90    2.60
   3  -4 -11   32.20    3.20
  -3  -4  11   30.60    2.70
  -3   4  11   30.20    3.00
   3   4 -11   26.20    3.10
  -2  -4  11   38.30    3.00
  -2  -4  11   40.60    4.20
   2  -4 -11   33.80    3.40
   2   4 -11   33.50    3.40
  -2   4  11   37.50    3.20
  -1  -4  11   24.40    2.60
  -1  -4  11   25.60    2.80
   1  -4 -11   22.90    2.80
  -1   4  11   25.20    2.70
   1   4 -11   22.90    3.00
   0  -4  11    4.90    1.50
   0  -4  11    5.40    1.70
   0  -4 -11    4.40    1.80
   0   4  11    4.40    1.50
   0   4 -11    3.30    1.60
   1  -4  11    4.60    1.60
  -1  -4 -11    6.20    2.00
   1  -4  11    6.10    2.00
  -1   4 -11    2.60    1.70
   1   4  11    5.20    1.70
   2  -4  11   11.20    2.50
   2  -4  11   10.60    2.10
  -2  -4 -11   10.10    2.20
   2   4  11   11.40    2.30
  -2   4 -11   12.20    2.40
   5  -5 -11   10.00    2.40
  -5   5  11    6.80    2.00
   4  -5 -11    7.80    2.00
  -4   5  11    8.30    2.00
   4   5 -11    7.30    2.00
  -3  -5  11    4.50    1.40
   3  -5 -11    3.10    1.60
  -3   5  11    4.30    1.50
   3   5 -11    4.10    1.80
   2  -5 -11   26.10    3.10
  -2  -5  11   25.70    2.90
  -2  -5  11   27.80    2.60
  -2   5  11   32.20    3.00
   2   5 -11   31.00    3.30
  -1  -5  11   33.10    2.90
  -1  -5  11   32.80    3.20
   1  -5 -11   30.40    3.40
  -1   5  11   40.40    3.30
   1   5 -11   37.90    3.50
   0  -5 -11   42.50    3.80
   0  -5  11   41.60    3.60
   0  -5  11   39.70    3.20
   0   5 -11   34.40    3.40
   0   5  11   32.10    3.20
   1  -5  11   34.00    3.00
   1  -5  11   34.90    3.70
  -1  -5 -11   33.70    3.50
   1   5  11   27.40    2.90
  -1   5 -11   25.20    3.10
   2  -5  11   23.40    2.80
  -2  -5 -11   19.30    2.90
   2  -5  11   22.10    3.30
   2   5  11   16.40    2.60
  -2   5 -11   14.90    2.60
  -5   6  11   33.80    3.50
   4  -6 -11   25.20    3.10
   4   6 -11   29.30    3.20
  -4   6  11   31.10    3.20
   3  -6 -11   32.40    3.30
  -3  -6  11   30.90    3.20
   3   6 -11   28.80    3.10
  -3   6  11   26.40    2.80
   2  -6 -11   44.40    3.90
  -2  -6  11   45.70    3.30
  -2  -6  11   43.90    3.70
  -2   6  11   44.80    3.60
   2   6 -11   40.30    3.70
  -1  -6  11   27.80    2.60
  -1  -6  11   32.30    3.10
   1  -6 -11   22.10    2.80
  -1   6  11   26.60    2.80
   1   6 -11   22.40    2.80
   0  -6 -11   12.20    2.40
   0  -6  11    9.40    1.80
   0  -6  11   11.20    2.30
   0   6  11   11.50    2.10
   0   6 -11    9.50    2.10
   1  -6  11    6.10    1.60
  -1  -6 -11    4.20    1.90
   1  -6  11    7.30    2.20
   1   6  11    4.70    1.60
  -1   6 -11    4.40    1.70
   2  -6  11   17.40    2.50
   2  -6  11   16.00    2.80
  -2  -6 -11   19.90    3.00
   2   6  11   20.60    2.80
  -2   6 -11   21.50    2.90
   4  -7 -11    5.60    1.90
   4   7 -11    4.20    1.80
  -4   7  11    9.20    2.00
   3  -7 -11    0.70    1.50
  -3  -7  11    5.10    1.80
   3   7 -11    3.30    1.70
  -3   7  11    2.50    1.60
  -2  -7  11   21.20    3.00
  -2  -7  11   16.80    2.60
   2  -7 -11   16.60    2.50
   2   7 -11   18.00    2.50
  -2   7  11   18.20    2.40
   1  -7 -11   23.70    3.10
  -1  -7  11   26.00    2.60
  -1  -7  11   27.30    3.00
   1   7 -11   23.80    3.00
  -1   7  11   25.40    2.90
   0  -7 -11   39.50    3.60
   0  -7  11   39.40    3.70
   0  -7  11   43.30    3.30
   0   7 -11   36.70    3.70
   0   7  11   35.70    3.30
   1  -7  11   47.10    3.50
   1  -7  11   44.10    4.10
  -1  -7 -11   49.50    4.20
  -1   7 -11   41.80    3.80
   1   7  11   37.10    3.40
  -2  -7 -11   18.10    2.80
   2  -7  11   18.50    3.00
   2  -7  11   16.80    2.40
  -2   7 -11   13.60    2.60
   2   7  11   13.10    2.40
  -4  -8  11   34.90    3.90
   4  -8 -11   41.20    3.80
  -4   8  11   41.70    3.70
   4   8 -11   41.10    3.60
   3  -8 -11   48.80    3.90
  -3  -8  11   43.70    4.00
  -3   8  11   38.50    3.40
   3   8 -11   38.60    3.70
   2  -8 -11   52.29    4.10
  -2  -8  11   50.79    4.10
  -2   8  11   47.00    3.80
   2   8 -11   47.80    4.10
   1  -8 -11   22.60    3.00
  -1  -8  11   18.80    2.50
  -1  -8  11   20.70    2.90
   1   8 -11   18.00    2.80
  -1   8  11   18.10    2.50
   0  -8  11    7.50    2.00
   0  -8 -11    9.50    2.10
   0  -8  11    6.50    1.60
   0   8 -11    7.60    2.10
   0   8  11    4.60    1.70
   1  -8  11    6.90    2.10
  -1  -8 -11    5.90    2.10
   1  -8  11    8.20    1.80
  -1   8 -11    8.50    2.10
   1   8  11    6.80    1.80
  -4  -9  11    2.10    2.00
   4  -9 -11    1.50    1.60
   4   9 -11    2.40    1.60
  -4   9  11    1.00    1.60
  -3  -9  11    5.90    2.00
   3  -9 -11    2.30    1.60
  -3   9  11    4.40    1.70
   3   9 -11    3.90    1.70
   2  -9 -11   23.80    3.00
  -2  -9  11   20.50    2.90
  -2   9  11   23.10    2.70
   2   9 -11   21.60    3.00
   1  -9 -11   19.30    2.80
  -1  -9  11   18.30    2.70
   1   9 -11   20.50    2.90
  -1   9  11   18.20    2.40
   0  -9  11   41.00    3.40
   0  -9  11   37.20    3.70
   0  -9 -11   32.40    3.60
   0   9 -11   31.30    3.60
   0   9  11   31.40    3.10
  -1  -9 -11   57.99    4.70
   1  -9  11   61.59    4.80
   1  -9  11   58.19    4.10
   1   9  11   59.19    4.40
  -1   9 -11   58.89    4.60
   4 -10 -11   50.09    4.10
  -4 -10  11   50.29    4.50
   4  10 -11   46.10    4.10
  -4  10  11   46.90    3.90
   3 -10 -11   59.29    4.40
  -3 -10  11   52.19    4.40
   3  10 -11   45.50    4.10
  -3  10  11   54.39    4.20
   2 -10 -11   40.40    3.90
  -2 -10  11   45.10    4.00
   2  10 -11   42.30    3.90
  -2  10  11   41.50    3.60
   1 -10 -11   13.90    2.50
  -1 -10  11   11.10    2.40
   1  10 -11   14.10    2.60
  -1  10  11   15.10    2.40
   0 -10  11    6.80    2.10
   0 -10 -11    4.20    1.90
   0  10  11    7.70    1.90
   0  10 -11    6.50    2.20
   1 -10  11    8.20    2.30
  -1 -10 -11    6.80    2.10
  -1  10 -11    8.20    2.10
   1  10  11    7.00    1.90
  -4 -11  11    9.30    2.50
   4 -11 -11    7.20    2.10
  -4  11  11    9.00    2.10
   4  11 -11    6.60    2.00
  -3 -11  11   11.00    2.50
   3 -11 -11   10.50    2.30
  -3  11  11   10.80    2.20
   3  11 -11    7.90    2.20
   2 -11 -11   26.30    3.30
  -2 -11  11   28.20    3.40
  -2  11  11   19.00    2.70
   2  11 -11   17.00    2.60
  -1 -11  11   16.50    2.80
   1 -11 -11   16.80    2.80
  -1  11  11   17.80    2.50
   1  11 -11   14.90    2.60
   0 -11 -11   32.40    3.40
   0 -11  11   38.80    3.80
   0  11 -11   28.70    3.50
   0  11  11   30.30    3.10
   1 -11  11   70.99    5.30
  -1 -11 -11   71.49    5.20
   1  11  11   63.39    4.80
  -1  11 -11   67.69    5.20
   3 -12 -11   59.39    4.70
  -3 -12  11   60.09    4.90
  -3  12  11   54.79    4.40
   3  12 -11   59.29    4.60
   2 -12 -11   43.80    4.00
  -2 -12  11   42.90    4.10
  -2  12  11   41.50    3.50
   2  12 -11   40.50    3.90
   1 -12 -11    9.50    2.40
  -1 -12  11   14.50    2.70
   1  12 -11   14.00    2.50
  -1  12  11   11.70    2.10
   0 -12  11    5.50    2.10
   0 -12 -11    5.80    2.10
   0  12 -11    3.60    2.00
   0  12  11    5.10    1.80
  -1 -12 -11    4.50    2.00
   1 -12  11    4.20    2.10
   1  12  11    5.60    1.70
  -1  12 -11    4.30    2.10
  -3 -13  11    9.50    2.40
   3 -13 -11    8.00    2.20
  -3  13  11   11.10    2.20
   3  13 -11    9.50    2.30
  -2 -13  11   16.60    2.80
   2 -13 -11   15.70    2.60
   2  13 -11   17.10    2.80
  -2  13  11   17.90    2.50
  -1 -13  11   13.50    2.70
   1 -13 -11   13.40    2.40
   1  13 -11   13.90    2.50
  -1  13  11   11.30    2.10
   0 -13  11   37.50    4.00
   0 -13 -11   32.60    3.70
   0  13 -11   33.80    3.90
   0  13  11   33.40    3.40
  -3 -14  11   58.89    5.00
   3 -14 -11   55.79    4.70
   3  14 -11   52.89    4.50
  -3  14  11   60.39    4.50
   2 -14 -11   37.00    4.00
  -2 -14  11   40.20    4.20
  -2  14  11   34.10    3.50
   2  14 -11   43.60    4.00
  -1 -14  11   11.50    2.50
   1 -14 -11    9.70    2.40
   1  14 -11    6.80    2.10
  -1  14  11   12.30    2.10
   0 -14  11    5.60    2.20
   0 -14 -11    4.90    2.10
   0  14 -11    4.90    2.20
   0  14  11    4.40    1.90
   2 -15 -11    7.90    2.30
  -2 -15  11   10.00    2.50
   2  15 -11    9.00    2.40
  -2  15  11   12.60    2.30
   1 -15 -11   20.20    3.10
  -1 -15  11   19.00    3.20
  -1  15  11   18.80    2.60
   1  15 -11   20.90    3.00
   3   0 -12   30.30    3.50
  -3   0  12   37.50    3.20
  -2   0  12    1.70    1.40
   2   0 -12    2.60    1.80
  -1   0  12    2.80    1.50
   1   0 -12    2.70    1.80
   0   0 -12   12.40    2.40
   0   0  12   14.90    2.40
   3  -1 -12   10.00    2.40
  -3  -1  12   11.50    2.10
   3   1 -12   12.40    2.40
  -3   1  12   11.60    2.10
  -2  -1  12   33.60    2.90
   2  -1 -12   32.10    3.60
   2   1 -12   28.20    3.20
  -2   1  12   30.30    3.10
  -1  -1  12   39.20    3.30
   1  -1 -12   37.80    4.00
  -1   1  12   45.40    3.70
   1   1 -12   44.50    4.00
   0  -1 -12   54.39    4.50
   0  -1  12   48.70    3.90
   0   1 -12   48.40    4.40
   0   1  12   49.80    4.00
   3  -2 -12   35.70    3.70
  -3  -2  12   39.10    3.30
  -3   2  12   35.30    3.20
   3   2 -12   35.30    3.70
   2  -2 -12    5.00    1.80
  -2  -2  12    3.50    1.40
  -2   2  12    2.70    1.40
   2   2 -12    4.90    1.90
  -1  -2  12    4.90    1.60
   1  -2 -12    3.20    1.80
   1   2 -12    2.60    1.80
  -1   2  12    3.70    1.60
   0  -2  12   16.50    2.40
   0  -2 -12   14.90    2.60
   0   2  12   12.50    2.20
   0   2 -12   10.20    2.30
  -3  -3  12    9.30    1.90
   3  -3 -12    8.70    2.20
  -3   3  12   10.80    2.10
   3   3 -12    8.40    2.20
   2  -3 -12   36.80    3.80
  -2  -3  12   39.40    3.30
  -2   3  12   38.10    3.40
   2   3 -12   36.20    3.80
  -1  -3  12   53.29    3.90
   1  -3 -12   48.90    4.40
  -1   3  12   50.59    4.00
   1   3 -12   55.89    4.50
   0  -3  12   65.59    4.50
   0  -3 -12   60.49    4.90
   0   3 -12   60.89    4.90
   0   3  12   60.09    4.50
  -3  -4  12   38.00    3.30
   3  -4 -12   35.40    3.70
  -3   4  12   32.80    3.30
   3   4 -12   31.00    3.50
  -2  -4  12    6.80    1.70
   2  -4 -12    4.10    1.90
   2   4 -12    6.50    2.00
  -2   4  12    8.40    2.00
   1  -4 -12    8.70    2.20
  -1  -4  12    8.30    1.90
  -1   4  12    6.10    1.80
   1   4 -12    8.00    2.20
   0  -4  12   16.40    2.30
   0  -4 -12   15.60    2.80
   0   4  12   11.70    2.30
   0   4 -12   16.60    2.90
   3  -5 -12   18.50    2.70
  -3   5  12   16.30    2.50
   3   5 -12   10.80    2.40
  -2  -5  12   51.29    3.70
   2  -5 -12   48.10    4.20
  -2   5  12   43.30    3.70
   2   5 -12   39.50    4.00
  -1  -5  12   56.99    4.10
   1  -5 -12   57.49    4.60
  -1   5  12   60.09    4.20
   1   5 -12   59.59    4.50
   0  -5  12   69.59    4.80
   0  -5 -12   69.69    5.30
   0  -5  12   65.19    5.10
   0   5 -12   73.19    5.30
   0   5  12   77.89    5.00
   3  -6 -12   34.40    3.60
  -3   6  12   29.50    3.10
   3   6 -12   26.70    3.30
   2  -6 -12    4.50    2.00
   2   6 -12    1.30    1.80
  -2   6  12    4.40    1.80
   1  -6 -12   15.30    2.60
  -1  -6  12   14.10    2.70
  -1  -6  12   13.10    2.10
   1   6 -12   12.50    2.50
  -1   6  12    8.80    1.90
   0  -6 -12   21.00    3.00
   0  -6  12   22.70    3.10
   0  -6  12   20.30    2.60
   0   6  12   20.90    2.70
   0   6 -12   15.90    2.70
   2  -7 -12   58.69    4.60
  -2   7  12   51.89    4.10
   2   7 -12   47.50    4.40
   1  -7 -12   40.80    4.10
  -1  -7  12   41.20    4.10
   1   7 -12   46.70    4.20
  -1   7  12   44.80    3.70
   2  -8 -12    1.70    1.60
  -2  -8  12    2.50    1.90
   2   8 -12    0.00    1.70
  -2   8  12    0.90    1.40
  -1  -8  12   19.10    2.90
   1  -8 -12   15.70    2.80
  -1   8  12   14.10    2.40
   1   8 -12   12.50    2.60
   0   0   0    0.00    0.00


_computing_structure_solution     'SHELXT 2018/2 (Sheldrick, 2018)'
_computing_structure_solution     'SHELXT 2018/2 (Sheldrick, 2018)'
;
_shelx_hkl_checksum              7677
_olex2_submission_special_instructions 'No special instructions were received'
loop_
_space_group_symop_operation_xyz
'x, y, z'
'-x, y+1/2, -z'
loop_
_atom_site_label
_atom_site_type_symbol
_atom_site_fract_x
_atom_site_fract_y
_atom_site_fract_z
_atom_site_U_iso_or_equiv
_atom_site_adp_type
_atom_site_occupancy
_atom_site_site_symmetry_order
_atom_site_calc_flag
_atom_site_refinement_flags_posn
_atom_site_refinement_flags_adp
_atom_site_refinement_flags_occupancy
_atom_site_disorder_assembly
_atom_site_disorder_group
Co1 Co 0.43656(5) 0.40116(2) -0.11211(3) 0.02824(10) Uani 1 1 d D . . . .
O1 O 0.129(4) 0.3760(12) 0.8423(19) 0.031(3) Uani 0.5 1 d D U P A 1
O2 O 0.3208(4) 0.47971(9) -0.1491(2) 0.0437(5) Uani 1 1 d D . . . .
O3 O 0.7532(4) 0.43116(11) -0.0799(2) 0.0442(5) Uani 1 1 d . . . . .
H3A H 0.752704 0.466099 -0.092346 0.066 Uiso 1 1 d GR . . . .
H3B H 0.818304 0.419209 -0.147645 0.066 Uiso 1 1 d GR . . . .
N1 N 0.4083(18) 0.3910(4) 0.6507(13) 0.027(3) Uani 0.5 1 d D U P A 1
H1 H 0.530735 0.369188 0.633826 0.032 Uiso 0.5 1 calc R . P A 1
N2 N 0.420(3) 0.4089(10) 0.1161(12) 0.032(4) Uani 0.5 1 d D U P A 1
O4 O -0.138(2) 0.3685(8) 0.6520(16) 0.082(5) Uani 0.5 1 d D U P A 1
C1 C 0.409(3) 0.4418(7) 0.5688(16) 0.033(3) Uani 0.5 1 d D U P A 1
H1A H 0.531761 0.463315 0.613928 0.039 Uiso 0.5 1 calc R . P A 1
H1B H 0.279662 0.462146 0.576111 0.039 Uiso 0.5 1 calc R . P A 1
N3 N 0.476(4) 0.8161(9) 0.058(4) 0.055(7) Uani 0.5 1 d D U P B 1
C2 C 0.054(2) 0.3669(10) 0.712(2) 0.037(4) Uani 0.5 1 d D U P A 1
O5 O 0.616(3) 0.5295(8) -0.074(2) 0.106(7) Uani 0.5 1 d D U P B 1
C3 C 0.417(2) 0.4342(10) 0.4099(14) 0.027(3) Uani 0.5 1 d D U P A 1
C4 C 0.211(2) 0.3588(5) 0.6050(18) 0.032(3) Uani 0.5 1 d D U P A 1
H4 H 0.138799 0.374951 0.512599 0.038 Uiso 0.5 1 calc R . P A 1
C5 C 0.263(3) 0.4351(12) 0.1595(19) 0.067(7) Uani 0.5 1 d D U P A 1
H5 H 0.165028 0.453301 0.088806 0.081 Uiso 0.5 1 calc R . P A 1
N4 N 0.375(4) 0.6196(6) -0.107(2) 0.108(8) Uani 0.5 1 d D U P B 1
H4A H 0.488928 0.628561 -0.139164 0.129 Uiso 0.5 1 calc R . P B 1
C6 C 0.423(3) 0.5222(7) -0.137(3) 0.092(7) Uani 0.5 1 d D U P B 1
C7 C 0.233(3) 0.4378(14) 0.3010(18) 0.053(6) Uani 0.5 1 d D U P A 1
H7 H 0.096371 0.441894 0.323318 0.063 Uiso 0.5 1 calc R . P A 1
C8 C 0.610(2) 0.4172(8) 0.3681(10) 0.033(2) Uani 0.5 1 d D U P A 1
H8 H 0.732600 0.408624 0.436326 0.040 Uiso 0.5 1 calc R . P A 1
C9 C 0.251(4) 0.5692(7) -0.154(3) 0.123(8) Uani 0.5 1 d D U P B 1
H9 H 0.141699 0.562382 -0.094710 0.147 Uiso 0.5 1 calc R . P B 1
C10 C 0.6045(11) 0.4142(4) 0.2189(8) 0.0277(14) Uani 0.5 1 d D U P A 1
H10 H 0.734815 0.415822 0.186661 0.033 Uiso 0.5 1 calc R . P A 1
C11 C 0.152(4) 0.5712(9) -0.317(3) 0.102(7) Uani 0.5 1 d D U P B 1
C12 C 0.309(3) 0.7929(7) 0.102(2) 0.070(5) Uani 0.5 1 d D U P B 1
H12 H 0.227512 0.813662 0.155074 0.084 Uiso 0.5 1 calc R . P B 1
C13 C 0.2439(18) 0.2974(3) 0.5696(14) 0.054(3) Uani 0.5 1 d D U P A 1
C14 C 0.1145(18) 0.2588(4) 0.6188(14) 0.107(6) Uani 0.5 1 d DG U P A 1
H14 H 0.003197 0.269537 0.664844 0.128 Uiso 0.5 1 calc R . P A 1
C15 C 0.151(2) 0.2040(4) 0.5991(15) 0.110(5) Uani 0.5 1 d DG U P A 1
H15 H 0.064868 0.178133 0.632018 0.132 Uiso 0.5 1 calc R . P A 1
C16 C 0.318(2) 0.1879(3) 0.5303(15) 0.111(5) Uani 0.5 1 d DG U P A 1
H16 H 0.342493 0.151242 0.517105 0.133 Uiso 0.5 1 calc R . P A 1
C17 C 0.4472(18) 0.2265(4) 0.4811(15) 0.103(5) Uani 0.5 1 d DG U P A 1
H17 H 0.558449 0.215755 0.435016 0.124 Uiso 0.5 1 calc R . P A 1
C18 C 0.4102(17) 0.2813(4) 0.5007(14) 0.085(4) Uani 0.5 1 d DG U P A 1
H18 H 0.496782 0.307158 0.467841 0.102 Uiso 0.5 1 calc R . P A 1
C19 C 0.575(4) 0.7867(8) -0.029(3) 0.076(6) Uani 0.5 1 d D U P B 1
H19 H 0.658471 0.803816 -0.087409 0.091 Uiso 0.5 1 calc R . P B 1
C20 C -0.027(5) 0.5648(12) -0.611(3) 0.141(10) Uani 0.5 1 d D U P B 1
H20 H -0.076277 0.554894 -0.708143 0.169 Uiso 0.5 1 calc R . P B 1
C21 C 0.259(4) 0.5867(13) -0.428(3) 0.129(11) Uani 0.5 1 d D U P B 1
H21 H 0.405049 0.595107 -0.401850 0.155 Uiso 0.5 1 calc R . P B 1
C22 C 0.377(3) 0.7066(6) 0.0087(16) 0.104(6) Uani 0.5 1 d D U P B 1
C23 C 0.252(3) 0.7404(8) 0.074(3) 0.120(9) Uani 0.5 1 d D U P B 1
H23 H 0.126294 0.727145 0.099233 0.144 Uiso 0.5 1 calc R . P B 1
C24 C 0.167(5) 0.5904(12) -0.570(3) 0.144(11) Uani 0.5 1 d D U P B 1
H24 H 0.231799 0.609169 -0.637116 0.172 Uiso 0.5 1 calc R . P B 1
C25 C 0.554(4) 0.7297(9) -0.034(4) 0.135(13) Uani 0.5 1 d D U P B 1
H25 H 0.657010 0.708248 -0.065658 0.162 Uiso 0.5 1 calc R . P B 1
C26 C -0.061(4) 0.5523(16) -0.359(3) 0.124(9) Uani 0.5 1 d D U P B 1
H26 H -0.136807 0.539204 -0.290626 0.149 Uiso 0.5 1 calc R . P B 1
C27 C -0.152(5) 0.5535(12) -0.504(4) 0.144(10) Uani 0.5 1 d D U P B 1
H27 H -0.299179 0.546920 -0.533031 0.172 Uiso 0.5 1 calc R . P B 1
C28 C 0.298(5) 0.6482(8) -0.017(3) 0.167(11) Uani 0.5 1 d D U P B 1
H28A H 0.327689 0.629635 0.076790 0.200 Uiso 0.5 1 calc R . P B 1
H28B H 0.143083 0.649134 -0.048191 0.200 Uiso 0.5 1 calc R . P B 1
N5 N 0.446(4) 0.8198(8) 0.048(3) 0.038(3) Uani 0.5 1 d D U P B 2
O6 O 0.6016(16) 0.5358(7) -0.132(2) 0.068(3) Uani 0.5 1 d D U P B 2
N6 N 0.341(3) 0.6284(4) -0.1498(17) 0.059(3) Uani 0.5 1 d D U P B 2
H6 H 0.473583 0.635942 -0.151955 0.070 Uiso 0.5 1 calc R . P B 2
C29 C 0.4035(16) 0.5261(4) -0.1428(14) 0.037(2) Uani 0.5 1 d D U P B 2
C30 C 0.2460(15) 0.5736(4) -0.1838(13) 0.045(2) Uani 0.5 1 d D U P B 2
H30 H 0.128154 0.569258 -0.129923 0.053 Uiso 0.5 1 calc R . P B 2
C31 C 0.151(2) 0.5694(8) -0.3455(15) 0.048(3) Uani 0.5 1 d D U P B 2
C32 C 0.250(3) 0.8015(6) 0.056(2) 0.070(6) Uani 0.5 1 d D U P B 2
H32 H 0.157945 0.824028 0.095944 0.084 Uiso 0.5 1 calc R . P B 2
C33 C 0.571(3) 0.7874(6) -0.011(3) 0.077(8) Uani 0.5 1 d D U P B 2
H33 H 0.711542 0.798166 -0.012758 0.092 Uiso 0.5 1 calc R . P B 2
C34 C -0.030(4) 0.5595(10) -0.642(2) 0.097(5) Uani 0.5 1 d D U P B 2
H34 H -0.091858 0.558952 -0.741024 0.116 Uiso 0.5 1 calc R . P B 2
C35 C 0.266(3) 0.5831(6) -0.4552(17) 0.063(3) Uani 0.5 1 d D U P B 2
H35 H 0.404484 0.597170 -0.429502 0.075 Uiso 0.5 1 calc R . P B 2
C36 C 0.2965(14) 0.7185(4) -0.0620(16) 0.069(3) Uani 0.5 1 d D U P B 2
C37 C 0.178(2) 0.7516(6) 0.010(3) 0.106(9) Uani 0.5 1 d D U P B 2
H37 H 0.045845 0.739664 0.026902 0.127 Uiso 0.5 1 calc R . P B 2
C38 C 0.178(3) 0.5763(8) -0.5973(18) 0.081(4) Uani 0.5 1 d D U P B 2
H38 H 0.261712 0.583165 -0.667162 0.098 Uiso 0.5 1 calc R . P B 2
C39 C 0.498(2) 0.7370(5) -0.073(2) 0.070(4) Uani 0.5 1 d D U P B 2
H39 H 0.586827 0.716250 -0.120271 0.084 Uiso 0.5 1 calc R . P B 2
C40 C -0.058(2) 0.5505(11) -0.3910(19) 0.063(3) Uani 0.5 1 d D U P B 2
H40 H -0.139814 0.542473 -0.320678 0.076 Uiso 0.5 1 calc R . P B 2
C41 C -0.149(2) 0.5432(7) -0.5362(19) 0.074(3) Uani 0.5 1 d D U P B 2
H41 H -0.284890 0.527813 -0.563539 0.088 Uiso 0.5 1 calc R . P B 2
C42 C 0.2033(17) 0.6645(4) -0.116(2) 0.091(4) Uani 0.5 1 d D U P B 2
H42A H 0.133468 0.648931 -0.041649 0.109 Uiso 0.5 1 calc R . P B 2
H42B H 0.092732 0.670663 -0.202024 0.109 Uiso 0.5 1 calc R . P B 2
O7 O 0.110(4) 0.3805(13) 0.8166(19) 0.030(3) Uani 0.5 1 d D U P A 2
N7 N 0.4189(16) 0.3839(4) 0.6536(12) 0.018(2) Uani 0.5 1 d D U P A 2
H7A H 0.544468 0.362105 0.642615 0.022 Uiso 0.5 1 calc R . P A 2
N8 N 0.436(2) 0.4199(10) 0.1119(12) 0.027(3) Uani 0.5 1 d D U P A 2
O8 O -0.1410(19) 0.3540(6) 0.6378(16) 0.047(2) Uani 0.5 1 d D U P A 2
C43 C 0.425(4) 0.4355(7) 0.5727(14) 0.041(4) Uani 0.5 1 d D U P A 2
H43A H 0.552225 0.455712 0.616243 0.049 Uiso 0.5 1 calc R . P A 2
H43B H 0.299681 0.457079 0.581989 0.049 Uiso 0.5 1 calc R . P A 2
C44 C 0.049(2) 0.3649(7) 0.6866(19) 0.026(2) Uani 0.5 1 d D U P A 2
C45 C 0.426(3) 0.4264(11) 0.4103(14) 0.041(4) Uani 0.5 1 d D U P A 2
C46 C 0.219(2) 0.3526(5) 0.593(2) 0.035(3) Uani 0.5 1 d D U P A 2
H46 H 0.165787 0.361398 0.489604 0.042 Uiso 0.5 1 calc R . P A 2
C47 C 0.251(2) 0.4323(8) 0.1557(12) 0.033(3) Uani 0.5 1 d D U P A 2
H47 H 0.122747 0.433407 0.088142 0.040 Uiso 0.5 1 calc R . P A 2
C48 C 0.253(3) 0.4437(10) 0.3039(13) 0.041(4) Uani 0.5 1 d D U P A 2
H48 H 0.139021 0.462575 0.330882 0.050 Uiso 0.5 1 calc R . P A 2
C49 C 0.596(3) 0.4047(11) 0.3557(15) 0.069(7) Uani 0.5 1 d D U P A 2
H49 H 0.719971 0.395499 0.421983 0.083 Uiso 0.5 1 calc R . P A 2
C50 C 0.5940(13) 0.3960(4) 0.2153(8) 0.0345(18) Uani 0.5 1 d D U P A 2
H50 H 0.697973 0.374034 0.186527 0.041 Uiso 0.5 1 calc R . P A 2
C51 C 0.2864(18) 0.2908(3) 0.6129(13) 0.053(3) Uani 0.5 1 d D U P A 2
C52 C 0.1718(17) 0.2539(4) 0.6808(13) 0.080(4) Uani 0.5 1 d DG U P A 2
H52 H 0.057790 0.265628 0.722885 0.096 Uiso 0.5 1 calc R . P A 2
C53 C 0.2276(19) 0.1994(4) 0.6858(14) 0.100(4) Uani 0.5 1 d DG U P A 2
H53 H 0.150948 0.174626 0.731254 0.120 Uiso 0.5 1 calc R . P A 2
C54 C 0.398(2) 0.1818(3) 0.6230(15) 0.114(5) Uani 0.5 1 d DG U P A 2
H54 H 0.435419 0.145311 0.626328 0.137 Uiso 0.5 1 calc R . P A 2
C55 C 0.5127(17) 0.2188(4) 0.5551(16) 0.112(5) Uani 0.5 1 d DG U P A 2
H55 H 0.626734 0.206999 0.513032 0.134 Uiso 0.5 1 calc R . P A 2
C56 C 0.4569(18) 0.2733(4) 0.5501(14) 0.076(4) Uani 0.5 1 d DG U P A 2
H56 H 0.533579 0.298001 0.504661 0.091 Uiso 0.5 1 calc R . P A 2
loop_
_atom_site_aniso_label
_atom_site_aniso_U_11
_atom_site_aniso_U_22
_atom_site_aniso_U_33
_atom_site_aniso_U_23
_atom_site_aniso_U_13
_atom_site_aniso_U_12
Co1 0.03393(16) 0.03448(16) 0.01696(14) 0.00137(15) 0.00650(10) -0.00045(17)
O1 0.037(6) 0.042(6) 0.017(5) 0.001(5) 0.012(4) -0.005(5)
O2 0.0645(15) 0.0331(11) 0.0347(11) -0.0016(8) 0.0124(10) -0.0021(10)
O3 0.0391(10) 0.0586(14) 0.0364(11) -0.0084(10) 0.0107(9) -0.0064(10)
N1 0.027(3) 0.028(3) 0.026(3) -0.0010(14) 0.0067(13) 0.0012(14)
N2 0.037(4) 0.042(10) 0.016(3) 0.007(3) 0.002(2) -0.010(4)
O4 0.025(4) 0.155(14) 0.066(8) 0.052(7) 0.007(4) 0.009(5)
C1 0.042(5) 0.035(6) 0.024(5) 0.005(4) 0.014(4) 0.005(4)
N3 0.049(9) 0.056(10) 0.063(12) -0.015(8) 0.023(9) -0.013(8)
C2 0.023(4) 0.068(7) 0.023(7) 0.011(4) 0.013(4) 0.012(4)
O5 0.107(9) 0.051(7) 0.166(19) -0.031(9) 0.043(9) -0.016(6)
C3 0.034(4) 0.027(5) 0.023(5) 0.001(3) 0.014(4) -0.001(3)
C4 0.035(5) 0.045(4) 0.015(4) -0.009(4) 0.005(3) -0.002(3)
C5 0.070(10) 0.092(14) 0.036(7) 0.013(8) 0.001(7) 0.037(9)
N4 0.111(11) 0.034(6) 0.20(2) -0.011(8) 0.076(13) 0.001(6)
C6 0.108(13) 0.054(11) 0.124(17) -0.015(10) 0.047(11) 0.006(9)
C7 0.033(5) 0.087(14) 0.035(6) 0.001(6) 0.000(4) 0.007(5)
C8 0.029(4) 0.066(5) 0.004(3) 0.000(3) 0.003(2) 0.000(4)
C9 0.145(14) 0.038(8) 0.195(17) -0.033(10) 0.055(13) 0.001(7)
C10 0.0287(18) 0.0303(17) 0.0244(18) -0.0005(13) 0.0058(12) -0.0026(13)
C11 0.123(12) 0.020(7) 0.180(16) 0.005(10) 0.070(10) 0.010(7)
C12 0.054(8) 0.083(9) 0.081(10) -0.030(7) 0.033(7) -0.020(7)
C13 0.048(5) 0.044(4) 0.077(8) -0.031(4) 0.031(6) -0.022(4)
C14 0.130(10) 0.068(7) 0.141(13) -0.002(7) 0.072(9) -0.010(7)
C15 0.119(9) 0.064(6) 0.153(12) -0.016(7) 0.040(8) -0.019(7)
C16 0.131(10) 0.058(6) 0.149(11) -0.025(7) 0.043(9) -0.006(6)
C17 0.113(10) 0.067(7) 0.139(14) -0.037(8) 0.050(10) 0.010(6)
C18 0.079(7) 0.065(6) 0.119(10) -0.028(6) 0.043(7) 0.001(5)
C19 0.088(13) 0.076(10) 0.076(9) -0.010(8) 0.048(9) 0.009(8)
C20 0.149(17) 0.094(17) 0.17(2) 0.033(16) 0.010(14) 0.077(13)
C21 0.081(12) 0.13(2) 0.18(2) 0.050(17) 0.042(12) 0.031(12)
C22 0.161(15) 0.087(9) 0.076(8) -0.037(7) 0.054(9) -0.053(9)
C23 0.122(16) 0.110(12) 0.154(19) -0.055(12) 0.093(16) -0.071(11)
C24 0.157(16) 0.10(2) 0.18(2) 0.070(18) 0.037(17) 0.048(13)
C25 0.15(2) 0.091(11) 0.19(3) -0.041(14) 0.09(2) -0.032(13)
C26 0.127(14) 0.051(11) 0.21(2) 0.004(17) 0.071(13) -0.012(10)
C27 0.155(19) 0.052(12) 0.23(2) -0.023(16) 0.053(14) 0.008(11)
C28 0.30(3) 0.091(10) 0.128(14) -0.056(11) 0.097(17) -0.086(14)
N5 0.041(6) 0.032(5) 0.041(5) -0.014(4) 0.011(4) 0.004(3)
O6 0.043(4) 0.038(4) 0.129(11) -0.011(5) 0.031(4) -0.006(3)
N6 0.073(6) 0.017(4) 0.091(6) -0.017(4) 0.031(5) -0.008(3)
C29 0.044(4) 0.025(5) 0.049(5) -0.017(4) 0.024(4) -0.005(3)
C30 0.046(4) 0.020(4) 0.078(5) -0.009(3) 0.037(4) -0.006(3)
C31 0.045(5) 0.026(6) 0.076(5) -0.001(4) 0.019(4) 0.001(4)
C32 0.057(8) 0.049(5) 0.115(16) -0.037(8) 0.045(9) -0.011(5)
C33 0.062(9) 0.039(6) 0.14(2) -0.048(9) 0.053(10) -0.021(6)
C34 0.141(13) 0.053(8) 0.088(8) -0.006(7) 0.003(7) 0.003(9)
C35 0.072(8) 0.030(4) 0.094(7) 0.012(5) 0.034(6) 0.004(5)
C36 0.047(4) 0.037(4) 0.126(11) -0.039(5) 0.021(5) 0.001(3)
C37 0.052(6) 0.065(7) 0.21(3) -0.069(11) 0.063(10) -0.020(5)
C38 0.109(9) 0.056(8) 0.086(7) 0.013(6) 0.035(6) 0.027(6)
C39 0.058(4) 0.042(5) 0.117(10) -0.047(6) 0.033(5) 0.004(4)
C40 0.046(5) 0.051(8) 0.096(7) -0.007(6) 0.020(5) 0.002(5)
C41 0.066(6) 0.040(7) 0.108(8) -0.018(6) -0.001(6) 0.007(4)
C42 0.063(5) 0.050(5) 0.163(11) -0.048(6) 0.033(6) -0.007(4)
O7 0.030(3) 0.041(5) 0.021(6) 0.002(5) 0.009(4) 0.005(3)
N7 0.019(2) 0.019(2) 0.017(2) -0.0008(13) 0.0054(12) 0.0009(13)
N8 0.034(4) 0.034(8) 0.016(3) 0.004(3) 0.010(2) -0.001(5)
O8 0.023(3) 0.073(5) 0.046(4) -0.017(4) 0.010(2) -0.005(3)
C43 0.081(11) 0.025(4) 0.013(4) -0.007(3) 0.004(5) -0.004(5)
C44 0.028(4) 0.033(4) 0.017(5) 0.004(3) 0.005(3) -0.002(3)
C45 0.067(8) 0.038(8) 0.014(4) 0.001(3) -0.002(4) -0.003(4)
C46 0.023(4) 0.053(5) 0.033(6) -0.022(4) 0.017(3) -0.015(3)
C47 0.030(4) 0.062(8) 0.008(4) -0.005(4) 0.002(3) 0.005(4)
C48 0.060(9) 0.052(6) 0.016(5) 0.001(4) 0.015(5) 0.025(7)
C49 0.032(5) 0.132(19) 0.039(6) -0.011(7) -0.004(4) 0.008(8)
C50 0.036(2) 0.036(2) 0.032(2) 0.0009(13) 0.0070(12) 0.0011(14)
C51 0.046(5) 0.057(5) 0.057(6) -0.026(4) 0.012(4) -0.008(3)
C52 0.093(8) 0.048(5) 0.113(11) -0.019(6) 0.055(8) -0.005(5)
C53 0.117(9) 0.056(5) 0.133(10) -0.013(7) 0.037(8) -0.006(6)
C54 0.134(10) 0.068(6) 0.148(11) -0.022(7) 0.045(9) 0.007(6)
C55 0.114(9) 0.063(6) 0.163(13) -0.016(8) 0.038(9) 0.003(6)
C56 0.068(6) 0.048(5) 0.120(10) -0.014(5) 0.040(6) -0.002(4)
loop_
_atom_type_symbol
_atom_type_description
_atom_type_scat_dispersion_real
_atom_type_scat_dispersion_imag
_atom_type_scat_source
C C 0.0033 0.0016 'International Tables Vol C Tables 4.2.6.8 and 6.1.1.4'
H H 0.0000 0.0000 'International Tables Vol C Tables 4.2.6.8 and 6.1.1.4'
Co Co 0.3494 0.9721 'International Tables Vol C Tables 4.2.6.8 and 6.1.1.4'
N N 0.0061 0.0033 'International Tables Vol C Tables 4.2.6.8 and 6.1.1.4'
O O 0.0106 0.0060 'International Tables Vol C Tables 4.2.6.8 and 6.1.1.4'
loop_
_geom_angle_atom_site_label_1
_geom_angle_atom_site_label_2
_geom_angle_atom_site_label_3
_geom_angle
_geom_angle_site_symmetry_1
_geom_angle_site_symmetry_3
_geom_angle_publ_flag
O1 Co1 O2 87.5(9) 1_554 . ?
O1 Co1 O3 175.4(7) 1_554 . ?
O1 Co1 N1 82.0(6) 1_554 1_554 ?
O1 Co1 N2 90.5(8) 1_554 . ?
O1 Co1 N3 86.8(11) 1_554 2_645 ?
O1 Co1 N5 92.3(11) 1_554 2_645 ?
O1 Co1 O7 7.0(13) 1_554 1_554 ?
O1 Co1 N7 82.3(6) 1_554 1_554 ?
O2 Co1 O3 89.48(10) . . ?
O2 Co1 N1 88.9(3) . 1_554 ?
O2 Co1 N2 90.0(6) . . ?
O2 Co1 N3 172.4(5) . 2_645 ?
O2 Co1 N5 173.5(8) . 2_645 ?
O2 Co1 O7 83.1(8) . 1_554 ?
O2 Co1 N7 93.8(3) . 1_554 ?
O2 Co1 N8 83.9(6) . . ?
O3 Co1 N1 94.4(3) . 1_554 ?
O3 Co1 N2 93.0(5) . . ?
O3 Co1 N3 96.5(7) . 2_645 ?
O3 Co1 N5 91.1(7) . 2_645 ?
O3 Co1 O7 168.4(7) . 1_554 ?
O3 Co1 N7 94.4(3) . 1_554 ?
O3 Co1 N8 87.8(5) . . ?
N1 Co1 N3 95.3(10) 1_554 2_645 ?
N1 Co1 N7 4.9(5) 1_554 1_554 ?
N2 Co1 N1 172.5(6) . 1_554 ?
N2 Co1 N3 85.1(11) . 2_645 ?
N2 Co1 N5 83.5(10) . 2_645 ?
N2 Co1 N7 171.7(7) . 1_554 ?
N3 Co1 N7 90.4(10) 2_645 1_554 ?
N5 Co1 N7 92.6(9) 2_645 1_554 ?
O7 Co1 N7 77.2(6) 1_554 1_554 ?
O7 Co1 N8 100.2(7) 1_554 . ?
N8 Co1 N7 176.8(5) . 1_554 ?
C2 O1 Co1 116.0(17) . 1_556 ?
C6 O2 Co1 128.3(10) . . ?
C29 O2 Co1 135.4(5) . . ?
C1 N1 Co1 114.7(8) . 1_556 ?
C1 N1 C4 113.3(11) . . ?
C4 N1 Co1 104.8(9) . 1_556 ?
C5 N2 Co1 121.9(11) . . ?
C5 N2 C10 109.3(14) . . ?
C10 N2 Co1 120.3(10) . . ?
N1 C1 C3 114.1(14) . . ?
C12 N3 Co1 121.0(14) . 2_655 ?
C19 N3 Co1 122.4(15) . 2_655 ?
C19 N3 C12 116.4(17) . . ?
O1 C2 C4 119.0(16) . . ?
O4 C2 O1 126.8(16) . . ?
O4 C2 C4 113.9(15) . . ?
C7 C3 C1 121.9(12) . . ?
C7 C3 C8 117.6(12) . . ?
C8 C3 C1 120.1(12) . . ?
N1 C4 C2 110.8(12) . . ?
N1 C4 C13 116.3(10) . . ?
C2 C4 C13 112.6(12) . . ?
N2 C5 C7 125.0(17) . . ?
C28 N4 C9 114.6(18) . . ?
O2 C6 O5 128(2) . . ?
O2 C6 C9 106.2(15) . . ?
O5 C6 C9 121.8(18) . . ?
C5 C7 C3 116.6(15) . . ?
C10 C8 C3 115.8(10) . . ?
N4 C9 C6 105.8(15) . . ?
N4 C9 C11 110.9(18) . . ?
C11 C9 C6 105.6(17) . . ?
N2 C10 C8 124.2(10) . . ?
C21 C11 C9 125.5(19) . . ?
C21 C11 C26 117(2) . . ?
C26 C11 C9 117(2) . . ?
N3 C12 C23 123.0(16) . . ?
C14 C13 C4 118.9(8) . . ?
C14 C13 C18 120.0 . . ?
C18 C13 C4 120.9(8) . . ?
C15 C14 C13 120.0 . . ?
C14 C15 C16 120.0 . . ?
C17 C16 C15 120.0 . . ?
C16 C17 C18 120.0 . . ?
C17 C18 C13 120.0 . . ?
N3 C19 C25 121(2) . . ?
C24 C20 C27 119(2) . . ?
C24 C21 C11 125(2) . . ?
C23 C22 C25 116.4(14) . . ?
C23 C22 C28 116.3(15) . . ?
C25 C22 C28 127.1(16) . . ?
C12 C23 C22 120.9(14) . . ?
C21 C24 C20 116(2) . . ?
C22 C25 C19 118.5(18) . . ?
C27 C26 C11 118(2) . . ?
C26 C27 C20 121(2) . . ?
N4 C28 C22 118.3(16) . . ?
C33 N5 C32 117.3(14) . . ?
C42 N6 C30 113.7(11) . . ?
O2 C29 O6 125.2(12) . . ?
O2 C29 C30 116.0(8) . . ?
O6 C29 C30 117.5(10) . . ?
N6 C30 C29 115.0(8) . . ?
N6 C30 C31 109.9(10) . . ?
C31 C30 C29 108.0(9) . . ?
C35 C31 C30 123.2(10) . . ?
C40 C31 C30 119.9(11) . . ?
C40 C31 C35 116.8(11) . . ?
N5 C32 C37 123.0(13) . . ?
N5 C33 C39 122.0(14) . . ?
C38 C34 C41 118.8(16) . . ?
C38 C35 C31 120.9(13) . . ?
C37 C36 C39 115.9(9) . . ?
C37 C36 C42 118.6(10) . . ?
C39 C36 C42 125.4(8) . . ?
C32 C37 C36 121.5(13) . . ?
C35 C38 C34 122.3(15) . . ?
C36 C39 C33 119.9(10) . . ?
C41 C40 C31 122.6(13) . . ?
C40 C41 C34 118.2(13) . . ?
N6 C42 C36 116.2(9) . . ?
C43 N7 C46 110.5(11) . . ?
C47 N8 Co1 120.6(9) . . ?
C47 N8 C50 116.1(12) . . ?
C50 N8 Co1 117.0(9) . . ?
N7 C43 C45 112.4(14) . . ?
O7 C44 C46 119.0(15) . . ?
O8 C44 O7 121.6(16) . . ?
O8 C44 C46 118.9(13) . . ?
C48 C45 C43 120.2(14) . . ?
C49 C45 C43 125.0(14) . . ?
C49 C45 C48 114.7(12) . . ?
N7 C46 C44 108.2(11) . . ?
N7 C46 C51 105.2(11) . . ?
C44 C46 C51 108.8(11) . . ?
N8 C47 C48 120.0(12) . . ?
C45 C48 C47 119.4(12) . . ?
C50 C49 C45 124.5(13) . . ?
C49 C50 N8 119.4(11) . . ?
C52 C51 C46 122.3(8) . . ?
C52 C51 C56 120.0 . . ?
C56 C51 C46 117.5(8) . . ?
C53 C52 C51 120.0 . . ?
C52 C53 C54 120.0 . . ?
C55 C54 C53 120.0 . . ?
C54 C55 C56 120.0 . . ?
C55 C56 C51 120.0 . . ?
loop_
_geom_bond_atom_site_label_1
_geom_bond_atom_site_label_2
_geom_bond_distance
_geom_bond_site_symmetry_2
_geom_bond_publ_flag
Co1 O1 2.01(3) 1_554 ?
Co1 O2 2.078(2) . ?
Co1 O3 2.102(2) . ?
Co1 N1 2.199(13) 1_554 ?
Co1 N2 2.159(12) . ?
Co1 N3 2.20(2) 2_645 ?
Co1 N5 2.187(16) 2_645 ?
Co1 O7 2.11(2) 1_554 ?
Co1 N7 2.208(11) 1_554 ?
Co1 N8 2.140(11) . ?
O1 C2 1.236(14) . ?
O2 C6 1.226(18) . ?
O2 C29 1.255(9) . ?
N1 C1 1.469(14) . ?
N1 C4 1.470(13) . ?
N2 C5 1.311(16) . ?
N2 C10 1.369(14) . ?
O4 C2 1.235(14) . ?
C1 C3 1.504(13) . ?
N3 C12 1.338(16) . ?
N3 C19 1.327(17) . ?
C2 C4 1.551(14) . ?
O5 C6 1.262(18) . ?
C3 C7 1.394(14) . ?
C3 C8 1.413(11) . ?
C4 C13 1.574(13) . ?
C5 C7 1.371(16) . ?
N4 C9 1.490(18) . ?
N4 C28 1.264(18) . ?
C6 C9 1.575(19) . ?
C8 C10 1.387(9) . ?
C9 C11 1.53(2) . ?
C11 C21 1.40(2) . ?
C11 C26 1.41(2) . ?
C12 C23 1.358(17) . ?
C13 C14 1.3900 . ?
C13 C18 1.3900 . ?
C14 C15 1.3900 . ?
C15 C16 1.3900 . ?
C16 C17 1.3900 . ?
C17 C18 1.3900 . ?
C19 C25 1.41(2) . ?
C20 C24 1.37(2) . ?
C20 C27 1.41(2) . ?
C21 C24 1.35(2) . ?
C22 C23 1.369(18) . ?
C22 C25 1.378(18) . ?
C22 C28 1.530(16) . ?
C26 C27 1.37(2) . ?
N5 C32 1.336(16) . ?
N5 C33 1.316(14) . ?
O6 C29 1.260(11) . ?
N6 C30 1.491(10) . ?
N6 C42 1.326(14) . ?
C29 C30 1.540(12) . ?
C30 C31 1.516(13) . ?
C31 C35 1.402(14) . ?
C31 C40 1.392(13) . ?
C32 C37 1.354(14) . ?
C33 C39 1.410(12) . ?
C34 C38 1.365(19) . ?
C34 C41 1.410(18) . ?
C35 C38 1.346(17) . ?
C36 C37 1.365(12) . ?
C36 C39 1.378(13) . ?
C36 C42 1.504(11) . ?
C40 C41 1.379(17) . ?
O7 C44 1.261(13) . ?
N7 C43 1.485(14) . ?
N7 C46 1.498(12) . ?
N8 C47 1.342(12) . ?
N8 C50 1.382(14) . ?
O8 C44 1.229(13) . ?
C43 C45 1.533(13) . ?
C44 C46 1.543(13) . ?
C45 C48 1.399(14) . ?
C45 C49 1.379(15) . ?
C46 C51 1.584(14) . ?
C47 C48 1.409(11) . ?
C49 C50 1.324(14) . ?
C51 C52 1.3900 . ?
C51 C56 1.3900 . ?
C52 C53 1.3900 . ?
C53 C54 1.3900 . ?
C54 C55 1.3900 . ?
C55 C56 1.3900 . ?
