#------------------------------------------------------------------------------
#$Date: 2020-07-06 05:53:27 +0300 (Mon, 06 Jul 2020) $
#$Revision: 253855 $
#$URL: file:///home/coder/svn-repositories/cod/cif/7/70/44/7704478.cif $
#------------------------------------------------------------------------------
#
# This file is available in the Crystallography Open Database (COD),
# http://www.crystallography.net/
#
# All data on this site have been placed in the public domain by the
# contributors.
#
data_7704478
loop_
_publ_author_name
'Karmakar, Anirban'
'Soliman, Mohamed M. A.'
'R\'ubio, Guilherme M D M'
'Guedes da Silva, M F\'atima C'
'Pombeiro, Armando J. L.'
_publ_section_title
;
 Synthesis and catalytic activities of a Zn(ii) based metallomacrocycle
 and a metal-organic framework towards one-pot deacetalization-Knoevenagel
 tandem reactions under different strategies: a comparative study.
;
_journal_issue                   24
_journal_name_full
'Dalton transactions (Cambridge, England : 2003)'
_journal_page_first              8075
_journal_page_last               8085
_journal_paper_doi               10.1039/d0dt01312a
_journal_volume                  49
_journal_year                    2020
_chemical_formula_sum            'C108 H126 N20 O42 Zn5'
_chemical_formula_weight         2703.13
_space_group_crystal_system      triclinic
_space_group_IT_number           2
_space_group_name_Hall           '-P 1'
_space_group_name_H-M_alt        'P -1'
_atom_sites_solution_hydrogens   mixed
_audit_creation_method           SHELXL-2014/6
_audit_update_record
;
2020-02-13 deposited with the CCDC.	2020-05-20 downloaded from the CCDC.
;
_cell_angle_alpha                111.050(3)
_cell_angle_beta                 99.873(3)
_cell_angle_gamma                106.170(4)
_cell_formula_units_Z            1
_cell_length_a                   15.6267(16)
_cell_length_b                   15.6542(15)
_cell_length_c                   19.1920(17)
_cell_measurement_reflns_used    9726
_cell_measurement_temperature    296(2)
_cell_measurement_theta_max      25.10
_cell_measurement_theta_min      2.38
_cell_volume                     4010.5(7)
_computing_cell_refinement       'Bruker SAINT'
_computing_data_collection       'Bruker APEX2'
_computing_data_reduction        'Bruker SAINT'
_computing_molecular_graphics    'Mercury CSD 3.5.1, 2008'
_computing_publication_material  'WinGX publication routines (Farrugia, 1999)'
_computing_structure_refinement  'SHELXL-2014/6 (Sheldrick, 2014)'
_computing_structure_solution    'SIR97 (Giacovazzo et al, 1999)'
_diffrn_ambient_temperature      296(2)
_diffrn_measured_fraction_theta_full 0.845
_diffrn_measured_fraction_theta_max 0.974
_diffrn_measurement_device_type  'Bruker APEX-II CCD'
_diffrn_measurement_method       '\f and \w scans'
_diffrn_radiation_type           MoK\a
_diffrn_radiation_wavelength     0.71073
_diffrn_reflns_av_R_equivalents  0.0356
_diffrn_reflns_av_unetI/netI     0.0561
_diffrn_reflns_Laue_measured_fraction_full 0.845
_diffrn_reflns_Laue_measured_fraction_max 0.974
_diffrn_reflns_limit_h_max       17
_diffrn_reflns_limit_h_min       -17
_diffrn_reflns_limit_k_max       17
_diffrn_reflns_limit_k_min       -17
_diffrn_reflns_limit_l_max       21
_diffrn_reflns_limit_l_min       -21
_diffrn_reflns_number            23444
_diffrn_reflns_point_group_measured_fraction_full 0.845
_diffrn_reflns_point_group_measured_fraction_max 0.974
_diffrn_reflns_theta_full        25.242
_diffrn_reflns_theta_max         23.999
_diffrn_reflns_theta_min         2.380
_diffrn_source                   'fine-focus sealed tube'
_exptl_absorpt_coefficient_mu    0.807
_exptl_absorpt_correction_T_max  0.9
_exptl_absorpt_correction_T_min  0.7
_exptl_absorpt_correction_type   multi-scan
_exptl_absorpt_process_details   SADABS
_exptl_crystal_colour            colourless
_exptl_crystal_density_diffrn    1.119
_exptl_crystal_description       block
_exptl_crystal_F_000             1400
_exptl_crystal_size_max          0.310
_exptl_crystal_size_mid          0.260
_exptl_crystal_size_min          0.120
_refine_diff_density_max         4.356
_refine_diff_density_min         -1.172
_refine_diff_density_rms         0.159
_refine_ls_extinction_method     none
_refine_ls_goodness_of_fit_ref   1.124
_refine_ls_hydrogen_treatment    constr
_refine_ls_matrix_type           full
_refine_ls_number_parameters     790
_refine_ls_number_reflns         12255
_refine_ls_number_restraints     30
_refine_ls_restrained_S_all      1.128
_refine_ls_R_factor_all          0.1024
_refine_ls_R_factor_gt           0.0888
_refine_ls_shift/su_max          0.001
_refine_ls_shift/su_mean         0.000
_refine_ls_structure_factor_coef Fsqd
_refine_ls_weighting_details
'w=1/[\s^2^(Fo^2^)+(0.2000P)^2^] where P=(Fo^2^+2Fc^2^)/3'
_refine_ls_weighting_scheme      calc
_refine_ls_wR_factor_gt          0.2612
_refine_ls_wR_factor_ref         0.2751
_reflns_Friedel_coverage         0.000
_reflns_number_gt                9355
_reflns_number_total             12255
_reflns_threshold_expression     'I > 2\s(I)'
_cod_data_source_file            d0dt01312a2.cif
_cod_data_source_block           2
_cod_depositor_comments
'Adding full bibliography for 7704477--7704478.cif.'
_cod_database_code               7704478
_shelx_space_group_comment
;
The symmetry employed for this shelxl refinement is uniquely defined
by the following loop, which should always be used as a source of
symmetry information in preference to the above space-group names.
They are only intended as comments.
;
_shelx_estimated_absorpt_t_min   0.788
_shelx_estimated_absorpt_t_max   0.909
_shelxl_version_number           2014/6
_shelx_res_file
;
TITL 4AZn_2_a.res in P-1
CELL  0.71073  15.6267  15.6542  19.1920  111.050   99.873  106.170
ZERR     1.00   0.0016   0.0015   0.0017    0.003    0.003    0.004
LATT   1
SFAC  C    H    N    O    ZN
UNIT  108 126 20 42 5
MERG   2
OMIT    -3.00  48.00
OMIT     1   0   1
OMIT     0   2   0
OMIT     2  -3   1
OMIT    -1   1   2
OMIT     0  -2   2
OMIT     2  -4   3
ABIN
ISOR    0.001  0.20  C2
ISOR     0.010 O19 C56 C46 C4
HTAB N6 N5
EQIV $1 -x+1, -y+2, -z+1
HTAB N6 O21_$1
HTAB N3 O17
HTAB N4 O21_$1
HTAB N1 N2
HTAB N1 O17
HTAB C4 O3
HTAB C16 O4
EQIV $2 x-1, y-1, z
HTAB C12 O12_$2
HTAB C37 O10
EQIV $3 -x+1, -y+1, -z+1
HTAB C45 O1_$3
HTAB C45 O5
EQIV $4 -x+1, -y+2, -z
HTAB C48 O10_$4
HTAB O13 O16
HTAB O15 O9_$1
EQIV $5 x-1, y, z
HTAB O15 O22_$5
EQIV $6 x, y+1, z+1
HTAB O21 O3_$6
EQIV $7 x, y, z+1
HTAB O21 O19_$7
HTAB O14 O8
EQIV $8 x, y+1, z
HTAB O14 O18_$8
HTAB O22 O18
FMAP   2
PLAN   10
SIZE     0.120   0.260   0.310
ACTA
HTAB    2.00000
BOND   $H
L.S.  20
TEMP    23.00
WGHT    0.200000
FVAR       3.72279
ZN1   5    1.000000    1.000000    0.500000    10.50000    0.02892    0.01280 =
         0.00854    0.00550    0.00929    0.00516
ZN2   5    0.126179    0.221746    0.590308    11.00000    0.03401    0.01204 =
         0.00936    0.00514    0.01023    0.00585
ZN3   5    0.820723    0.897749    0.316649    11.00000    0.03407    0.01279 =
         0.01124    0.00722    0.00990    0.00639
O13   4    0.869530    0.915575    0.422202    11.00000    0.02799    0.01791 =
         0.01503    0.01138    0.01090    0.00786
O2    4    0.047614    0.030408    0.413409    11.00000    0.04697    0.01749 =
         0.01034    0.00699    0.01139    0.00722
O14   4    0.973378    1.137193    0.532599    11.00000    0.03511    0.02557 =
         0.01398    0.00974    0.01176    0.01418
O12   4    1.109845    1.154951   -0.246908    11.00000    0.03805    0.02138 =
         0.00997    0.00710    0.01052    0.00851
O1    4    0.140018    0.191666    0.480364    11.00000    0.04005    0.01759 =
         0.01237    0.00568    0.01073    0.00146
O6    4    0.701112    0.781554    0.271550    11.00000    0.03445    0.02220 =
         0.02590    0.01321    0.00501    0.00129
O5    4    0.733095    0.709136    0.349754    11.00000    0.03512    0.02131 =
         0.01876    0.01021    0.00359    0.00035
O7    4    0.795582    0.995443    0.285669    11.00000    0.05004    0.02086 =
         0.02894    0.01628    0.01970    0.01338
O11   4    1.087186    1.248955   -0.307698    11.00000    0.05770    0.02195 =
         0.01293    0.01075    0.02022    0.01953
O15   4    0.115561    0.354722    0.602079    11.00000    0.06542    0.01712 =
         0.02057    0.01041    0.01637    0.01725
O4    4    0.383487    0.333478   -0.024095    11.00000    0.04531    0.03806 =
         0.01938    0.01908    0.01503    0.00414
O9    4    0.798168    1.459276    0.265322    11.00000    0.08425    0.02870 =
         0.02660    0.01997    0.03578    0.03055
O18   4    0.852245    0.173734    0.611245    11.00000    0.05178    0.05108 =
         0.04751    0.02035    0.02272    0.02357
O3    4    0.110602   -0.041706    0.049117    11.00000    0.07144    0.02339 =
         0.02192    0.00762    0.01957   -0.00079
N2    3    0.248247    0.173173    0.040659    11.00000    0.03243    0.02700 =
         0.01307    0.00782    0.01376    0.00614
N6    3    0.890749    1.378567   -0.042425    11.00000    0.05303    0.02876 =
         0.02334    0.01822    0.02605    0.02112
AFIX  43
H6N   2    0.884722    1.352886   -0.009896    11.00000   -1.20000
AFIX   0
N5    3    0.824112    1.434304    0.081055    11.00000    0.04221    0.01991 =
         0.02268    0.01363    0.01724    0.01639
N3    3    0.374300    0.355850    0.098249    11.00000    0.04066    0.02868 =
         0.01551    0.01386    0.01179   -0.00262
AFIX  43
H3N   2    0.342211    0.330115    0.122762    11.00000   -1.20000
AFIX   0
N4    3    0.809695    1.330966    0.170720    11.00000    0.05751    0.01779 =
         0.01897    0.01057    0.02485    0.01940
AFIX  43
H4N   2    0.812978    1.308527    0.123665    11.00000   -1.20000
AFIX   0
O8    4    0.882188    1.128678    0.398040    11.00000    0.08003    0.03289 =
         0.02438    0.01243    0.00317    0.02786
C1    1    0.103910    0.109992    0.419421    11.00000    0.03692    0.02261 =
         0.01691    0.01287    0.01594    0.00691
N1    3    0.195614    0.114133    0.146033    11.00000    0.04604    0.01771 =
         0.02080    0.00917    0.01138   -0.00480
AFIX  43
H1N   2    0.236298    0.169643    0.154656    11.00000   -1.20000
AFIX   0
O17   4    0.274875    0.332558    0.209305    11.00000    0.07458    0.04097 =
         0.03625    0.01123    0.03604    0.00759
O10   4    0.857784    1.492960   -0.076522    11.00000    0.10474    0.06364 =
         0.04739    0.04518    0.05417    0.06306
O16   4    0.725740    0.935878    0.487702    11.00000    0.05151    0.06331 =
         0.06727    0.01328    0.03680    0.02044
C13   1    0.269950    0.207498   -0.011621    11.00000    0.03323    0.02909 =
         0.01566    0.01536    0.01506    0.01281
C39   1    1.029279    1.259990   -0.200285    11.00000    0.03383    0.01842 =
         0.01309    0.00205    0.00855    0.01108
C3    1    0.074693    0.033404    0.274414    11.00000    0.03702    0.01880 =
         0.01738    0.00766    0.01270    0.00173
AFIX  43
H3    2    0.022314   -0.016880    0.269898    11.00000   -1.20000
AFIX   0
C23   1    0.823389    1.151935    0.287851    11.00000    0.03683    0.02235 =
         0.01590    0.01343    0.01150    0.01212
C15   1    0.447988    0.445096    0.143533    11.00000    0.03080    0.03059 =
         0.01921    0.01273    0.00816   -0.00620
C42   1    1.078740    1.218376   -0.256622    11.00000    0.03288    0.01349 =
         0.01263    0.00577    0.01059    0.00574
C2    1    0.130353    0.108407    0.348494    11.00000    0.02593    0.02378 =
         0.02239    0.01197    0.00840    0.00625
C17   1    0.552174    0.605014    0.166853    11.00000    0.02733    0.01537 =
         0.02067    0.00642    0.00693    0.00138
AFIX  43
H17   2    0.571225    0.654259    0.150278    11.00000   -1.20000
AFIX   0
C4    1    0.097287    0.033978    0.208521    11.00000    0.03951    0.02027 =
         0.00663    0.00552    0.00893    0.00398
AFIX  43
H4    2    0.058569   -0.015431    0.159778    11.00000   -1.20000
AFIX   0
C18   1    0.597352    0.621260    0.241244    11.00000    0.03665    0.02058 =
         0.01441    0.00516    0.01155    0.00653
C40   1    1.014153    1.229623   -0.143378    11.00000    0.04409    0.01793 =
         0.01759    0.00830    0.01505    0.01490
AFIX  43
H40   2    1.035771    1.181522   -0.139059    11.00000   -1.20000
AFIX   0
C30   1    0.793905    1.463719    0.142514    11.00000    0.04141    0.01590 =
         0.02396    0.01105    0.01932    0.01194
C38   1    0.995766    1.334057   -0.204693    11.00000    0.05252    0.02561 =
         0.02008    0.01636    0.01912    0.01303
AFIX  43
H38   2    1.004659    1.356229   -0.242797    11.00000   -1.20000
AFIX   0
C16   1    0.479256    0.517582    0.116011    11.00000    0.03098    0.02550 =
         0.02150    0.01658    0.00678    0.00206
AFIX  43
H16   2    0.451437    0.506578    0.065105    11.00000   -1.20000
AFIX   0
C12   1    0.224456    0.155022   -0.090916    11.00000    0.03918    0.02715 =
         0.01303    0.00912    0.01418    0.00394
AFIX  43
H12   2    0.241479    0.180850   -0.125399    11.00000   -1.20000
AFIX   0
C22   1    0.834757    1.087071    0.328769    11.00000    0.04196    0.02707 =
         0.01767    0.01637    0.01185    0.01458
C9    1    0.180675    0.082516    0.012367    11.00000    0.03788    0.02190 =
         0.01607    0.00886    0.01423    0.01102
C14   1    0.347886    0.305404    0.019845    11.00000    0.02711    0.03275 =
         0.00875    0.00867    0.00598    0.01019
C21   1    0.685015    0.711656    0.292054    11.00000    0.03230    0.02020 =
         0.02211    0.00833    0.01269    0.00345
C31   1    0.754028    1.536327    0.159218    11.00000    0.05074    0.02274 =
         0.02607    0.01173    0.02293    0.01606
AFIX  43
H31   2    0.734387    1.555429    0.203534    11.00000   -1.20000
AFIX   0
C36   1    0.934920    1.340359   -0.097275    11.00000    0.04524    0.02073 =
         0.02248    0.00923    0.02415    0.01253
C37   1    0.950575    1.373417   -0.153813    11.00000    0.06503    0.03330 =
         0.02302    0.01989    0.02600    0.02891
AFIX  43
H37   2    0.930225    1.422666   -0.157175    11.00000   -1.20000
AFIX   0
C19   1    0.564974    0.551371    0.268033    11.00000    0.03246    0.01971 =
         0.01505    0.00401    0.00228   -0.00934
AFIX  43
H19   2    0.593551    0.563224    0.319018    11.00000   -1.20000
AFIX   0
C34   1    0.816247    1.477212    0.032633    11.00000    0.04842    0.02470 =
         0.02305    0.01108    0.01913    0.01906
C26   1    0.813516    1.271644    0.211524    11.00000    0.05390    0.02186 =
         0.02535    0.01524    0.02573    0.01969
C32   1    0.745277    1.577569    0.108055    11.00000    0.05326    0.02970 =
         0.03809    0.02017    0.03019    0.02322
AFIX  43
H32   2    0.717411    1.624176    0.116056    11.00000   -1.20000
AFIX   0
C5    1    0.174291    0.104291    0.212147    11.00000    0.04061    0.02547 =
         0.01078    0.00666    0.01096    0.00360
C20   1    0.491277    0.464689    0.220588    11.00000    0.04397    0.03800 =
         0.01990    0.02045    0.01176    0.00046
AFIX  43
H20   2    0.469955    0.418652    0.239772    11.00000   -1.20000
AFIX   0
C11   1    0.154297    0.064989   -0.118844    11.00000    0.04024    0.04008 =
         0.00823    0.01090    0.00724    0.01064
AFIX  43
H11   2    0.122052    0.029856   -0.172052    11.00000   -1.20000
AFIX   0
C10   1    0.132070    0.026931   -0.066091    11.00000    0.03543    0.02956 =
         0.01498    0.00697    0.00769    0.00087
AFIX  43
H10   2    0.085478   -0.034606   -0.083409    11.00000   -1.20000
AFIX   0
C33   1    0.778658    1.549190    0.043089    11.00000    0.05148    0.02774 =
         0.03674    0.02224    0.02432    0.02501
AFIX  43
H33   2    0.775490    1.577959    0.008403    11.00000   -1.20000
AFIX   0
C24   1    0.771330    1.109213    0.208662    11.00000    0.04877    0.01542 =
         0.01780    0.00762    0.01046    0.00775
AFIX  43
H24   2    0.739461    1.041387    0.182064    11.00000   -1.20000
AFIX   0
C25   1    0.767494    1.169327    0.169611    11.00000    0.05625    0.01964 =
         0.01624    0.00972    0.00628    0.00805
AFIX  43
H25   2    0.734826    1.141577    0.116613    11.00000   -1.20000
AFIX   0
C35   1    0.856605    1.450542   -0.034432    11.00000    0.06085    0.02839 =
         0.02287    0.01743    0.02973    0.02507
C28   1    0.864880    1.252368    0.327303    11.00000    0.06613    0.02475 =
         0.02359    0.01011    0.01986    0.02001
AFIX  43
H28   2    0.896555    1.280682    0.380556    11.00000   -1.20000
AFIX   0
C41   1    0.967998    1.267785   -0.092195    11.00000    0.04919    0.02938 =
         0.01860    0.01620    0.02247    0.01854
AFIX  43
H41   2    0.958877    1.245259   -0.054315    11.00000   -1.20000
AFIX   0
C8    1    0.158640    0.045185    0.070324    11.00000    0.04505    0.02700 =
         0.01248    0.00681    0.01380    0.00510
C7    1    0.213264    0.178314    0.352542    11.00000    0.05063    0.02792 =
         0.01800    0.00666    0.01098   -0.00738
AFIX  43
H7    2    0.253214    0.226640    0.401259    11.00000   -1.20000
AFIX   0
C6    1    0.236146    0.176591    0.286538    11.00000    0.04301    0.03442 =
         0.02206    0.00765    0.01177   -0.00724
AFIX  43
H6    2    0.291668    0.222336    0.290395    11.00000   -1.20000
AFIX   0
N9    3    0.767475    0.141670    0.689315    11.00000    0.05820    0.06187 =
         0.06081    0.02370    0.03725    0.03142
C27   1    0.861010    1.312286    0.290476    11.00000    0.06064    0.01253 =
         0.01836    0.00281    0.00728    0.00716
AFIX  43
H27   2    0.890324    1.380277    0.318579    11.00000   -1.20000
AFIX   0
C29   1    0.801512    1.417847    0.198966    11.00000    0.04599    0.02778 =
         0.01918    0.01240    0.02140    0.01828
C49   1    0.825739    0.128668    0.647564    11.00000    0.04856    0.03394 =
         0.05624    0.01650    0.00702    0.01708
AFIX  43
H49   2    0.848636    0.079427    0.646155    11.00000   -1.20000
AFIX   0
N8    3    0.298218    0.488340    0.286417    11.00000    0.10088    0.03952 =
         0.05602    0.00650    0.01366    0.02312
C45   1    0.675702    0.856705    0.486757    11.00000    0.04416    0.08569 =
         0.06475    0.02620    0.02522    0.02685
AFIX  43
H45   2    0.692733    0.802225    0.468432    11.00000   -1.20000
AFIX   0
N10   3    0.464530    0.831227    0.124463    11.00000    0.06187    0.08086 =
         0.12515    0.04928    0.00471    0.01509
C47   1    0.294898    0.396523    0.273948    11.00000    0.10348    0.04945 =
         0.04815    0.01755    0.02727    0.02073
AFIX  43
H47   2    0.308565    0.382597    0.316827    11.00000   -1.20000
AFIX   0
N7    3    0.601054    0.846820    0.510130    11.00000    0.06847    0.10521 =
         0.13352    0.05486    0.05057    0.01836
C51   1    0.741864    0.085800    0.733309    11.00000    0.07993    0.09914 =
         0.08426    0.05504    0.04672    0.04705
AFIX  33
H51A  2    0.699061    0.106747    0.759237    11.00000   -1.50000
H51B  2    0.712618    0.016969    0.698309    11.00000   -1.50000
H51C  2    0.796904    0.096581    0.771600    11.00000   -1.50000
AFIX   0
C50   1    0.730460    0.219803    0.694103    11.00000    0.09754    0.09184 =
         0.08886    0.04377    0.05465    0.06261
AFIX  33
H50A  2    0.689382    0.220917    0.726043    11.00000   -1.50000
H50B  2    0.781325    0.282361    0.716922    11.00000   -1.50000
H50C  2    0.696552    0.207042    0.642464    11.00000   -1.50000
AFIX   0
C48   1    0.279108    0.515918    0.225154    11.00000    0.10488    0.08233 =
         0.12152    0.06111    0.05733    0.05665
AFIX  33
H48A  2    0.285318    0.583762    0.246518    11.00000   -1.50000
H48B  2    0.322442    0.507404    0.195770    11.00000   -1.50000
H48C  2    0.216504    0.475431    0.191315    11.00000   -1.50000
AFIX   0
C55   1    0.559173    0.848267    0.158547    11.00000    0.06758    0.08081 =
         0.10696    0.03539    0.02334    0.02896
AFIX  33
H55A  2    0.566086    0.786438    0.149334    11.00000   -1.50000
H55B  2    0.598145    0.881636    0.135463    11.00000   -1.50000
H55C  2    0.577380    0.888268    0.213924    11.00000   -1.50000
AFIX   0
C57   1    0.432706    0.899718    0.126773    11.00000    0.12826    0.13511 =
         0.13401    0.02358   -0.00887    0.09055
AFIX  43
H57   2    0.478080    0.962600    0.156095    11.00000   -1.20000
AFIX   0
O19   4    0.358195    0.900857    0.099833    11.00000    0.09199    0.14606 =
         0.19298    0.02099   -0.02841    0.05701
C56   1    0.404828    0.732193    0.086778    11.00000    0.13479    0.08267 =
         0.18977    0.06702    0.00246    0.01095
AFIX  33
H56A  2    0.439850    0.691642    0.090668    11.00000   -1.50000
H56B  2    0.356587    0.721902    0.111197    11.00000   -1.50000
H56C  2    0.377049    0.715030    0.032592    11.00000   -1.50000
AFIX   0
C43   1    0.567095    0.930001    0.537269    11.00000    0.10319    0.19662 =
         0.16716    0.07258    0.09013    0.09487
AFIX  33
H43A  2    0.511949    0.909335    0.552020    11.00000   -1.50000
H43B  2    0.614877    0.985147    0.581567    11.00000   -1.50000
H43C  2    0.552682    0.948864    0.495624    11.00000   -1.50000
AFIX   0
C44   1    0.551820    0.749056    0.511261    11.00000    0.08328    0.20281 =
         0.30873    0.13740    0.08872   -0.00374
AFIX  33
H44A  2    0.498574    0.751333    0.529393    11.00000   -1.50000
H44B  2    0.531598    0.697066    0.459330    11.00000   -1.50000
H44C  2    0.594180    0.736996    0.545773    11.00000   -1.50000
AFIX   0
C46   1    0.311709    0.559259    0.367247    11.00000    0.21114    0.12115 =
         0.10578    0.01628    0.01686    0.06502
AFIX  33
H46A  2    0.312678    0.620919    0.367409    11.00000   -1.50000
H46B  2    0.261277    0.533478    0.385327    11.00000   -1.50000
H46C  2    0.369896    0.569243    0.401275    11.00000   -1.50000
AFIX   0
O21   4    0.186468    0.795133    0.990772    11.00000    0.07227    0.03736 =
         0.03841    0.01684    0.02821    0.01756
O22   4    0.934912    0.355227    0.600531    11.00000    0.12821    0.07218 =
         0.11635    0.04011    0.06340    0.05517
AFIX   3
H13A  2    0.823575    0.922192    0.442159    11.00000   -1.20000
H15A  2    0.145011    0.414580    0.643709    11.00000   -1.20000
H15B  2    0.060256    0.355697    0.601412    11.00000   -1.20000
H21A  2    0.165989    0.844231    1.007430    11.00000   -1.20000
H21B  2    0.244646    0.831667    1.027120    11.00000   -1.20000
H14A  2    0.943130    1.134272    0.485857    11.00000   -1.20000
H14B  2    0.933097    1.149414    0.557734    11.00000   -1.20000
H22A  2    0.908972    0.298322    0.603372    11.00000   -1.20000
H22B  2    0.907697    0.395891    0.624812    11.00000   -1.20000
AFIX   0
HKLF    4

REM  4AZn_2_a.res in P-1
REM R1 =  0.0888 for    9355 Fo > 4sig(Fo)  and  0.1024 for all   12255 data
REM    790 parameters refined using     30 restraints

END

WGHT      0.2000      0.0000

REM Instructions for potential hydrogen bonds
HTAB N6 N5
HTAB N6 O21_$1
HTAB N3 O17
HTAB N4 O21_$1
HTAB N1 N2
HTAB N1 O17
HTAB C4 O3
HTAB C16 O4
HTAB C12 O12_$2
HTAB C37 O10
HTAB C45 O1_$3
HTAB C45 O5
HTAB C48 O10_$4
HTAB O13 O16
HTAB O15 O9_$1
HTAB O15 O22_$5
HTAB O21 O3_$6
HTAB O21 O19_$7
HTAB O14 O8
HTAB O14 O18_$8
HTAB O22 O18

REM Highest difference peak  4.356,  deepest hole -1.172,  1-sigma level  0.159
Q1    1   0.8022  0.7354  0.3740  11.00000  0.05    4.36
Q2    1   0.8976  0.9235  0.3434  11.00000  0.05    3.82
Q3    1   0.9259  0.9572  0.4604  11.00000  0.05    3.68
Q4    1   1.0477  1.1836  0.5560  11.00000  0.05    3.45
Q5    1   0.7551  0.8525  0.2768  11.00000  0.05    2.81
Q6    1  -0.0175 -0.0172  0.3711  11.00000  0.05    1.07
Q7    1   0.6991  0.6744  0.2211  11.00000  0.05    0.92
Q8    1   0.9483  1.1205  0.4027  11.00000  0.05    0.91
Q9    1   0.0788  0.0003  0.0487  11.00000  0.05    0.89
Q10   1   0.3189  0.7981  0.1007  11.00000  0.05    0.81
;
_shelx_res_checksum              30647
_shelx_fab_file
;
    2    0    0      4.00      0.00
    3    0    0      0.68      0.00
    4    0    0     -0.59      0.00
    5    0    0      0.15      0.00
    6    0    0      0.31      0.00
    7    0    0      0.10      0.00
    8    0    0     -0.14      0.00
    9    0    0     -0.25      0.00
   10    0    0      0.54      0.00
   11    0    0     -0.12      0.00
   12    0    0     -0.01      0.00
   13    0    0     -0.06      0.00
   14    0    0     -0.50      0.00
   15    0    0      0.09      0.00
   16    0    0     -0.13      0.00
  -16    1    0     -0.46      0.00
  -15    1    0      0.31      0.00
  -14    1    0     -0.11      0.00
  -13    1    0      0.23      0.00
  -12    1    0      0.42      0.00
  -11    1    0      0.08      0.00
  -10    1    0      0.14      0.00
   -9    1    0      0.31      0.00
   -8    1    0      0.09      0.00
   -7    1    0     -0.43      0.00
   -6    1    0      0.13      0.00
   -5    1    0     -0.49      0.00
   -4    1    0     -0.22      0.00
   -3    1    0      1.41      0.00
   -2    1    0      2.09      0.00
    1    1    0     -2.50      0.00
    2    1    0     -0.76      0.00
    3    1    0      0.17      0.00
    4    1    0     -0.36      0.00
    5    1    0      0.64      0.00
    6    1    0     -0.55      0.00
    7    1    0      0.05      0.00
    8    1    0     -0.05      0.00
    9    1    0     -0.82      0.00
   10    1    0      0.22      0.00
   11    1    0     -0.40      0.00
   12    1    0     -0.31      0.00
   13    1    0      0.38      0.00
   14    1    0      0.12      0.00
   15    1    0     -0.12      0.00
  -17    2    0      0.65      0.00
  -16    2    0     -0.24      0.00
  -15    2    0      0.15      0.00
  -14    2    0      0.10      0.00
  -13    2    0     -0.07      0.00
  -12    2    0     -0.43      0.00
  -11    2    0      0.24      0.00
  -10    2    0      0.22      0.00
   -9    2    0      0.07      0.00
   -8    2    0      0.12      0.00
   -7    2    0      0.38      0.00
   -6    2    0      0.41      0.00
   -4    2    0     -0.22      0.00
   -3    2    0     -0.33      0.00
   -2    2    0     -2.33      0.00
   -1    2    0      0.14      0.00
    1    2    0      0.82      0.00
    2    2    0      0.35      0.00
    3    2    0      0.13      0.00
    4    2    0      0.20      0.00
    5    2    0     -0.17      0.00
    6    2    0     -0.18      0.00
    7    2    0      0.44      0.00
    8    2    0      0.05      0.00
    9    2    0     -0.17      0.00
   10    2    0      0.24      0.00
   11    2    0     -0.25      0.00
   12    2    0      0.09      0.00
   13    2    0     -0.09      0.00
   14    2    0      0.10      0.00
   15    2    0     -0.11      0.00
  -17    3    0      0.21      0.00
  -16    3    0      0.09      0.00
  -15    3    0      0.04      0.00
  -14    3    0     -0.04      0.00
  -13    3    0     -0.02      0.00
  -12    3    0     -0.24      0.00
  -11    3    0     -0.54      0.00
  -10    3    0      0.40      0.00
   -9    3    0     -0.80      0.00
   -8    3    0     -0.26      0.00
   -7    3    0      0.39      0.00
   -6    3    0      0.27      0.00
   -5    3    0     -1.01      0.00
   -4    3    0     -0.30      0.00
   -3    3    0      1.62      0.00
   -2    3    0     -1.75      0.00
   -1    3    0      0.85      0.00
    0    3    0      0.13      0.00
    1    3    0     -1.17      0.00
    2    3    0     -0.25      0.00
    3    3    0      0.03      0.00
    4    3    0     -0.06      0.00
    5    3    0      0.32      0.00
    6    3    0      0.30      0.00
    7    3    0     -0.08      0.00
    8    3    0      0.01      0.00
    9    3    0      0.07      0.00
   10    3    0      0.09      0.00
   11    3    0      0.18      0.00
   12    3    0      0.08      0.00
   13    3    0     -0.11      0.00
   14    3    0      0.25      0.00
  -17    4    0     -0.05      0.00
  -16    4    0     -0.28      0.00
  -15    4    0      0.04      0.00
  -14    4    0     -0.11      0.00
  -13    4    0      0.35      0.00
  -12    4    0     -0.22      0.00
  -11    4    0      0.16      0.00
  -10    4    0      0.00      0.00
   -9    4    0      0.40      0.00
   -8    4    0     -0.57      0.00
   -7    4    0      0.69      0.00
   -6    4    0      0.46      0.00
   -5    4    0     -0.48      0.00
   -3    4    0      0.63      0.00
   -2    4    0      0.06      0.00
   -1    4    0     -0.27      0.00
    0    4    0      0.63      0.00
    1    4    0     -0.67      0.00
    2    4    0      0.33      0.00
    3    4    0     -0.10      0.00
    4    4    0      0.05      0.00
    6    4    0      0.10      0.00
    7    4    0      0.25      0.00
    8    4    0     -0.18      0.00
    9    4    0      0.07      0.00
   10    4    0      0.05      0.00
   11    4    0     -0.02      0.00
   12    4    0     -0.14      0.00
   13    4    0      0.17      0.00
   14    4    0      0.09      0.00
  -17    5    0      0.01      0.00
  -16    5    0     -0.13      0.00
  -15    5    0     -0.06      0.00
  -14    5    0      0.37      0.00
  -13    5    0     -0.45      0.00
  -12    5    0      0.49      0.00
  -11    5    0      0.15      0.00
  -10    5    0     -0.27      0.00
   -9    5    0      0.21      0.00
   -8    5    0     -0.69      0.00
   -7    5    0     -0.46      0.00
   -6    5    0      0.68      0.00
   -4    5    0      0.07      0.00
   -3    5    0      0.19      0.00
   -2    5    0      0.12      0.00
   -1    5    0     -0.53      0.00
    0    5    0      0.56      0.00
    1    5    0     -0.01      0.00
    2    5    0     -0.50      0.00
    3    5    0     -0.03      0.00
    4    5    0      0.00      0.00
    5    5    0     -0.22      0.00
    6    5    0     -0.23      0.00
    7    5    0     -0.04      0.00
    8    5    0     -0.03      0.00
    9    5    0      0.02      0.00
   10    5    0      0.09      0.00
   11    5    0     -0.07      0.00
   12    5    0      0.13      0.00
   13    5    0      0.11      0.00
  -17    6    0      0.03      0.00
  -16    6    0     -0.03      0.00
  -15    6    0      0.19      0.00
  -14    6    0      0.07      0.00
  -13    6    0      0.19      0.00
  -12    6    0     -0.61      0.00
  -11    6    0      0.11      0.00
  -10    6    0     -0.09      0.00
   -9    6    0      0.00      0.00
   -8    6    0      0.39      0.00
   -7    6    0     -0.37      0.00
   -6    6    0      0.62      0.00
   -4    6    0      0.45      0.00
   -3    6    0     -0.24      0.00
   -2    6    0      0.30      0.00
   -1    6    0     -0.13      0.00
    0    6    0      0.46      0.00
    1    6    0      0.31      0.00
    2    6    0      0.11      0.00
    3    6    0      0.03      0.00
    4    6    0      0.07      0.00
    5    6    0      0.13      0.00
    6    6    0      0.23      0.00
    7    6    0      0.06      0.00
    8    6    0      0.25      0.00
    9    6    0     -0.04      0.00
   10    6    0      0.18      0.00
   11    6    0     -0.09      0.00
   12    6    0     -0.19      0.00
  -17    7    0      0.09      0.00
  -16    7    0      0.27      0.00
  -15    7    0     -0.01      0.00
  -14    7    0     -0.65      0.00
  -13    7    0      0.61      0.00
  -12    7    0     -0.36      0.00
  -11    7    0      0.26      0.00
  -10    7    0      0.50      0.00
   -9    7    0     -0.33      0.00
   -8    7    0     -0.05      0.00
   -7    7    0     -0.27      0.00
   -5    7    0      0.22      0.00
   -4    7    0     -0.21      0.00
   -3    7    0      0.45      0.00
   -2    7    0     -0.29      0.00
   -1    7    0      0.53      0.00
    0    7    0     -0.53      0.00
    1    7    0      0.06      0.00
    2    7    0     -0.11      0.00
    3    7    0      0.09      0.00
    4    7    0     -0.13      0.00
    5    7    0      0.19      0.00
    6    7    0     -0.32      0.00
    7    7    0      0.22      0.00
    8    7    0     -0.34      0.00
    9    7    0     -0.12      0.00
   10    7    0     -0.07      0.00
   11    7    0     -0.26      0.00
   12    7    0      0.23      0.00
  -17    8    0     -0.80      0.00
  -16    8    0     -0.32      0.00
  -15    8    0      0.66      0.00
  -14    8    0     -0.56      0.00
  -13    8    0      0.47      0.00
  -12    8    0     -0.06      0.00
  -11    8    0     -0.40      0.00
  -10    8    0     -0.10      0.00
   -9    8    0      0.09      0.00
   -8    8    0      0.12      0.00
   -6    8    0      0.08      0.00
   -5    8    0      0.09      0.00
   -4    8    0     -0.22      0.00
   -3    8    0      0.63      0.00
   -2    8    0     -0.99      0.00
   -1    8    0      0.28      0.00
    0    8    0     -0.22      0.00
    1    8    0     -0.09      0.00
    3    8    0      0.00      0.00
    4    8    0     -0.28      0.00
    5    8    0      0.24      0.00
    6    8    0     -0.29      0.00
    7    8    0     -0.23      0.00
    8    8    0      0.18      0.00
    9    8    0      0.14      0.00
   10    8    0     -0.16      0.00
   11    8    0      0.40      0.00
  -17    9    0     -0.41      0.00
  -16    9    0      0.42      0.00
  -15    9    0      0.02      0.00
  -14    9    0     -0.23      0.00
  -13    9    0      0.13      0.00
  -12    9    0     -0.38      0.00
  -11    9    0      0.49      0.00
  -10    9    0      0.00      0.00
   -9    9    0      0.04      0.00
   -8    9    0     -0.06      0.00
   -7    9    0     -0.33      0.00
   -6    9    0      0.07      0.00
   -5    9    0     -0.26      0.00
   -4    9    0     -0.45      0.00
   -3    9    0      0.31      0.00
   -2    9    0      0.06      0.00
   -1    9    0      0.23      0.00
    0    9    0      0.34      0.00
    1    9    0     -0.06      0.00
    3    9    0      0.02      0.00
    4    9    0     -0.02      0.00
    5    9    0      0.27      0.00
    6    9    0      0.15      0.00
    7    9    0     -0.10      0.00
    8    9    0     -0.23      0.00
    9    9    0      0.59      0.00
   10    9    0     -0.33      0.00
  -17   10    0     -0.33      0.00
  -16   10    0      0.29      0.00
  -15   10    0     -0.38      0.00
  -14   10    0      0.36      0.00
  -13   10    0      0.18      0.00
  -12   10    0     -0.22      0.00
  -11   10    0      0.27      0.00
  -10   10    0     -0.04      0.00
   -9   10    0      0.10      0.00
   -8   10    0     -0.30      0.00
   -7   10    0      0.47      0.00
   -6   10    0     -0.15      0.00
   -5   10    0      0.56      0.00
   -4   10    0     -0.42      0.00
   -3   10    0      0.50      0.00
   -2   10    0     -0.58      0.00
   -1   10    0      0.37      0.00
    0   10    0     -0.33      0.00
    1   10    0     -0.28      0.00
    2   10    0      0.38      0.00
    3   10    0      0.00      0.00
    4   10    0     -0.08      0.00
    5   10    0     -0.02      0.00
    6   10    0      0.14      0.00
    7   10    0     -0.15      0.00
    8   10    0     -0.08      0.00
    9   10    0     -0.07      0.00
  -16   11    0     -0.21      0.00
  -15   11    0     -0.12      0.00
  -14   11    0      0.18      0.00
  -13   11    0     -0.28      0.00
  -12   11    0      0.49      0.00
  -11   11    0     -0.33      0.00
  -10   11    0      0.09      0.00
   -9   11    0      0.36      0.00
   -8   11    0     -0.20      0.00
   -7   11    0      0.19      0.00
   -6   11    0     -0.13      0.00
   -5   11    0      0.03      0.00
   -4   11    0      0.21      0.00
   -3   11    0      0.15      0.00
   -2   11    0     -0.40      0.00
   -1   11    0      0.13      0.00
    0   11    0     -0.09      0.00
    1   11    0     -0.18      0.00
    2   11    0     -0.04      0.00
    3   11    0     -0.17      0.00
    4   11    0     -0.38      0.00
    5   11    0      0.11      0.00
    6   11    0      0.21      0.00
    7   11    0     -0.19      0.00
    8   11    0      0.21      0.00
  -16   12    0     -0.07      0.00
  -15   12    0      0.14      0.00
  -14   12    0      0.37      0.00
  -13   12    0     -0.35      0.00
  -12   12    0      0.11      0.00
  -11   12    0     -0.22      0.00
  -10   12    0     -0.11      0.00
   -9   12    0     -0.35      0.00
   -8   12    0     -0.19      0.00
   -7   12    0     -0.02      0.00
   -6   12    0      0.22      0.00
   -5   12    0     -0.27      0.00
   -4   12    0     -0.09      0.00
   -3   12    0      0.03      0.00
   -2   12    0     -0.06      0.00
   -1   12    0      0.06      0.00
    0   12    0     -0.12      0.00
    1   12    0     -0.10      0.00
    2   12    0     -0.08      0.00
    3   12    0      0.29      0.00
    4   12    0     -0.03      0.00
    5   12    0      0.16      0.00
    6   12    0      0.03      0.00
  -15   13    0     -0.16      0.00
  -14   13    0     -0.28      0.00
  -13   13    0     -0.21      0.00
  -12   13    0     -0.07      0.00
  -11   13    0     -0.09      0.00
  -10   13    0      0.38      0.00
   -9   13    0     -0.26      0.00
   -8   13    0      0.12      0.00
   -7   13    0     -0.24      0.00
   -6   13    0     -0.36      0.00
   -5   13    0      0.11      0.00
   -4   13    0     -0.37      0.00
   -3   13    0      0.38      0.00
   -2   13    0     -0.05      0.00
   -1   13    0      0.01      0.00
    0   13    0      0.39      0.00
    1   13    0     -0.01      0.00
    2   13    0     -0.01      0.00
    3   13    0      0.28      0.00
    4   13    0     -0.28      0.00
    5   13    0     -0.33      0.00
  -14   14    0      0.12      0.00
  -13   14    0      0.26      0.00
  -12   14    0      0.10      0.00
  -11   14    0     -0.19      0.00
  -10   14    0      0.57      0.00
   -9   14    0     -0.29      0.00
   -8   14    0      0.35      0.00
   -7   14    0      0.09      0.00
   -6   14    0      0.13      0.00
   -5   14    0      0.26      0.00
   -4   14    0     -0.13      0.00
   -3   14    0     -0.16      0.00
   -2   14    0      0.09      0.00
   -1   14    0      0.06      0.00
    0   14    0      0.16      0.00
    1   14    0      0.06      0.00
    2   14    0      0.01      0.00
    3   14    0      0.08      0.00
  -13   15    0     -0.19      0.00
  -12   15    0     -0.08      0.00
  -11   15    0     -0.26      0.00
  -10   15    0      0.42      0.00
   -9   15    0     -0.37      0.00
   -8   15    0      0.19      0.00
   -7   15    0      0.06      0.00
   -6   15    0     -0.23      0.00
   -5   15    0      0.16      0.00
   -4   15    0      0.00      0.00
   -3   15    0      0.16      0.00
   -2   15    0     -0.24      0.00
   -1   15    0     -0.10      0.00
    0   15    0      0.16      0.00
    1   15    0     -0.31      0.00
  -10   16    0     -0.08      0.00
   -9   16    0     -0.07      0.00
   -8   16    0     -0.10      0.00
   -7   16    0      0.35      0.00
   -6   16    0     -0.42      0.00
   -5   16    0      0.32      0.00
   -4   16    0     -0.18      0.00
   -3   16    0      0.32      0.00
   -2   16    0     -0.32      0.00
    1  -16    1      0.01      0.00
    2  -16    1      0.05      0.00
    3  -16    1     -0.03      0.00
    4  -16    1     -0.13      0.00
    5  -16    1      0.17      0.00
    6  -16    1     -0.27      0.00
    7  -16    1      0.43      0.00
    8  -16    1     -0.18      0.00
    9  -16    1     -0.13      0.00
   10  -16    1      0.79      0.00
   11  -16    1     -0.29      0.00
   -2  -15    1     -0.16      0.00
   -1  -15    1      0.04      0.00
    0  -15    1     -0.04      0.00
    1  -15    1     -0.07      0.00
    2  -15    1      0.19      0.00
    3  -15    1     -0.09      0.00
    4  -15    1      0.13      0.00
    5  -15    1      0.08      0.00
    6  -15    1      0.16      0.00
    7  -15    1      0.22      0.00
    8  -15    1      0.04      0.00
    9  -15    1     -0.22      0.00
   10  -15    1      0.20      0.00
   11  -15    1     -0.47      0.00
   12  -15    1      0.21      0.00
   13  -15    1      0.03      0.00
   -4  -14    1     -0.33      0.00
   -3  -14    1      0.25      0.00
   -2  -14    1     -0.15      0.00
   -1  -14    1      0.01      0.00
    0  -14    1      0.27      0.00
    1  -14    1     -0.18      0.00
    2  -14    1     -0.04      0.00
    3  -14    1      0.30      0.00
    4  -14    1     -0.29      0.00
    5  -14    1     -0.14      0.00
    6  -14    1     -0.41      0.00
    7  -14    1      0.01      0.00
    8  -14    1     -0.08      0.00
    9  -14    1      0.12      0.00
   10  -14    1      0.03      0.00
   11  -14    1      0.38      0.00
   12  -14    1     -0.04      0.00
   13  -14    1      0.13      0.00
   14  -14    1     -0.16      0.00
   -5  -13    1     -0.04      0.00
   -4  -13    1      0.21      0.00
   -3  -13    1     -0.01      0.00
   -2  -13    1      0.36      0.00
   -1  -13    1     -0.15      0.00
    0  -13    1      0.29      0.00
    1  -13    1      0.02      0.00
    2  -13    1     -0.05      0.00
    3  -13    1     -0.01      0.00
    4  -13    1      0.09      0.00
    5  -13    1     -0.09      0.00
    6  -13    1      0.06      0.00
    7  -13    1      0.25      0.00
    8  -13    1     -0.53      0.00
    9  -13    1      0.23      0.00
   10  -13    1     -0.41      0.00
   11  -13    1     -0.09      0.00
   12  -13    1     -0.05      0.00
   13  -13    1     -0.29      0.00
   14  -13    1      0.30      0.00
   15  -13    1      0.05      0.00
   -7  -12    1      0.19      0.00
   -6  -12    1      0.19      0.00
   -4  -12    1     -0.23      0.00
   -3  -12    1     -0.34      0.00
   -2  -12    1     -0.08      0.00
   -1  -12    1     -0.35      0.00
    0  -12    1      0.00      0.00
    1  -12    1      0.03      0.00
    2  -12    1     -0.27      0.00
    3  -12    1      0.23      0.00
    4  -12    1     -0.04      0.00
    5  -12    1      0.03      0.00
    6  -12    1     -0.05      0.00
    7  -12    1     -0.01      0.00
    8  -12    1      0.06      0.00
    9  -12    1      0.14      0.00
   10  -12    1      0.14      0.00
   11  -12    1     -0.47      0.00
   12  -12    1      0.71      0.00
   13  -12    1     -0.51      0.00
   14  -12    1      0.21      0.00
   15  -12    1      0.03      0.00
   16  -12    1     -0.29      0.00
   -8  -11    1     -0.43      0.00
   -7  -11    1      0.07      0.00
   -6  -11    1     -0.09      0.00
   -5  -11    1     -0.03      0.00
   -4  -11    1     -0.05      0.00
   -3  -11    1      0.21      0.00
   -2  -11    1      0.06      0.00
   -1  -11    1     -0.22      0.00
    0  -11    1     -0.03      0.00
    1  -11    1      0.08      0.00
    2  -11    1     -0.45      0.00
    3  -11    1      0.40      0.00
    4  -11    1     -0.32      0.00
    5  -11    1      0.34      0.00
    6  -11    1      0.18      0.00
    7  -11    1      0.24      0.00
    8  -11    1      0.03      0.00
    9  -11    1     -0.28      0.00
   10  -11    1      0.29      0.00
   11  -11    1     -0.05      0.00
   12  -11    1      0.11      0.00
   13  -11    1     -0.12      0.00
   14  -11    1      0.53      0.00
   15  -11    1     -0.21      0.00
   16  -11    1      0.34      0.00
   -9  -10    1      0.47      0.00
   -8  -10    1     -0.12      0.00
   -7  -10    1     -0.10      0.00
   -6  -10    1      0.22      0.00
   -5  -10    1      0.06      0.00
   -4  -10    1      0.00      0.00
   -3  -10    1      0.16      0.00
   -2  -10    1     -0.08      0.00
   -1  -10    1      0.03      0.00
    0  -10    1      0.22      0.00
    1  -10    1     -0.03      0.00
    2  -10    1      0.32      0.00
    3  -10    1      0.14      0.00
    4  -10    1      0.10      0.00
    5  -10    1     -0.29      0.00
    6  -10    1     -0.26      0.00
    7  -10    1     -0.19      0.00
    8  -10    1      0.02      0.00
    9  -10    1      0.11      0.00
   10  -10    1      0.02      0.00
   11  -10    1      0.16      0.00
   12  -10    1      0.08      0.00
   13  -10    1      0.01      0.00
   14  -10    1     -0.28      0.00
   15  -10    1      0.02      0.00
   16  -10    1      0.20      0.00
  -10   -9    1     -0.07      0.00
   -9   -9    1     -0.02      0.00
   -8   -9    1      0.03      0.00
   -7   -9    1     -0.03      0.00
   -6   -9    1      0.00      0.00
   -5   -9    1     -0.09      0.00
   -4   -9    1     -0.07      0.00
   -3   -9    1      0.19      0.00
   -2   -9    1      0.06      0.00
   -1   -9    1      0.24      0.00
    0   -9    1     -0.08      0.00
    1   -9    1      0.12      0.00
    2   -9    1     -0.39      0.00
    3   -9    1     -0.09      0.00
    4   -9    1      0.22      0.00
    5   -9    1     -0.26      0.00
    6   -9    1      0.18      0.00
    7   -9    1      0.23      0.00
    8   -9    1      0.02      0.00
    9   -9    1      0.15      0.00
   10   -9    1     -0.31      0.00
   11   -9    1     -0.30      0.00
   12   -9    1     -0.02      0.00
   13   -9    1      0.13      0.00
   14   -9    1     -0.16      0.00
   15   -9    1      0.32      0.00
   16   -9    1     -0.10      0.00
   17   -9    1     -0.42      0.00
  -11   -8    1     -0.07      0.00
  -10   -8    1      0.32      0.00
   -9   -8    1     -0.05      0.00
   -8   -8    1     -0.39      0.00
   -7   -8    1      0.44      0.00
   -6   -8    1     -0.21      0.00
   -5   -8    1      0.05      0.00
   -4   -8    1     -0.16      0.00
   -3   -8    1      0.25      0.00
   -1   -8    1      0.10      0.00
    0   -8    1     -0.07      0.00
    1   -8    1     -0.26      0.00
    2   -8    1     -0.18      0.00
    3   -8    1     -0.07      0.00
    4   -8    1     -0.06      0.00
    5   -8    1      0.09      0.00
    6   -8    1      0.05      0.00
    7   -8    1     -0.15      0.00
    8   -8    1     -0.61      0.00
    9   -8    1      0.41      0.00
   10   -8    1     -0.07      0.00
   11   -8    1      0.43      0.00
   12   -8    1     -0.17      0.00
   13   -8    1      0.12      0.00
   14   -8    1     -0.15      0.00
   15   -8    1     -0.43      0.00
   16   -8    1      0.00      0.00
   17   -8    1      0.19      0.00
  -12   -7    1     -0.22      0.00
  -11   -7    1     -0.16      0.00
  -10   -7    1      0.00      0.00
   -9   -7    1      0.08      0.00
   -8   -7    1     -0.27      0.00
   -7   -7    1      0.13      0.00
   -6   -7    1      0.12      0.00
   -5   -7    1     -0.17      0.00
   -4   -7    1      0.34      0.00
   -3   -7    1      0.15      0.00
   -2   -7    1      0.10      0.00
   -1   -7    1     -0.17      0.00
    0   -7    1      0.54      0.00
    1   -7    1      0.01      0.00
    2   -7    1      0.00      0.00
    3   -7    1      0.30      0.00
    4   -7    1      0.15      0.00
    5   -7    1     -0.40      0.00
    6   -7    1      0.13      0.00
    7   -7    1      0.28      0.00
    8   -7    1      0.20      0.00
    9   -7    1      0.08      0.00
   10   -7    1     -0.20      0.00
   11   -7    1      0.09      0.00
   12   -7    1     -0.08      0.00
   13   -7    1     -0.20      0.00
   14   -7    1      0.27      0.00
   15   -7    1      0.21      0.00
   16   -7    1      0.10      0.00
   17   -7    1      0.05      0.00
  -13   -6    1      0.07      0.00
  -12   -6    1      0.21      0.00
  -11   -6    1     -0.30      0.00
  -10   -6    1      0.24      0.00
   -9   -6    1      0.07      0.00
   -8   -6    1     -0.20      0.00
   -7   -6    1      0.18      0.00
   -6   -6    1     -0.12      0.00
   -5   -6    1     -0.17      0.00
   -4   -6    1     -0.21      0.00
   -3   -6    1      0.11      0.00
    0   -6    1      0.48      0.00
    1   -6    1     -0.04      0.00
    2   -6    1      0.02      0.00
    3   -6    1      0.23      0.00
    4   -6    1     -0.16      0.00
    5   -6    1     -0.13      0.00
    6   -6    1      0.47      0.00
    7   -6    1     -0.46      0.00
    8   -6    1      0.06      0.00
    9   -6    1     -0.19      0.00
   10   -6    1     -0.26      0.00
   11   -6    1      0.04      0.00
   12   -6    1      0.36      0.00
   13   -6    1     -0.28      0.00
   14   -6    1     -0.02      0.00
   15   -6    1     -0.04      0.00
   16   -6    1      0.08      0.00
   17   -6    1     -0.57      0.00
  -13   -5    1     -0.13      0.00
  -12   -5    1     -0.04      0.00
  -11   -5    1     -0.01      0.00
  -10   -5    1      0.34      0.00
   -9   -5    1     -0.06      0.00
   -8   -5    1     -0.13      0.00
   -7   -5    1      0.51      0.00
   -6   -5    1     -0.17      0.00
   -5   -5    1     -0.33      0.00
   -4   -5    1     -0.04      0.00
   -3   -5    1     -0.13      0.00
    0   -5    1      0.80      0.00
    1   -5    1     -0.12      0.00
    2   -5    1     -0.64      0.00
    3   -5    1      0.95      0.00
    4   -5    1      0.10      0.00
    5   -5    1     -0.07      0.00
    6   -5    1      0.00      0.00
    7   -5    1      0.11      0.00
    8   -5    1      0.14      0.00
    9   -5    1      0.10      0.00
   10   -5    1      0.05      0.00
   11   -5    1     -0.06      0.00
   12   -5    1     -0.02      0.00
   13   -5    1      0.37      0.00
   14   -5    1     -0.16      0.00
   15   -5    1      0.36      0.00
   16   -5    1     -0.24      0.00
   17   -5    1      0.12      0.00
  -14   -4    1      0.46      0.00
  -13   -4    1     -0.11      0.00
  -12   -4    1      0.23      0.00
  -11   -4    1     -0.06      0.00
  -10   -4    1      0.06      0.00
   -9   -4    1      0.09      0.00
   -8   -4    1     -0.17      0.00
   -7   -4    1     -0.13      0.00
   -6   -4    1      0.28      0.00
   -5   -4    1      0.11      0.00
   -4   -4    1      0.27      0.00
   -3   -4    1      0.42      0.00
    0   -4    1      0.65      0.00
    1   -4    1     -0.17      0.00
    2   -4    1     -0.12      0.00
    3   -4    1      0.60      0.00
    4   -4    1      0.20      0.00
    5   -4    1     -0.20      0.00
    6   -4    1     -0.63      0.00
    7   -4    1      0.30      0.00
    8   -4    1      0.07      0.00
    9   -4    1     -0.47      0.00
   10   -4    1      0.47      0.00
   11   -4    1     -0.62      0.00
   12   -4    1      0.07      0.00
   13   -4    1     -0.14      0.00
   14   -4    1     -0.15      0.00
   15   -4    1      0.06      0.00
   16   -4    1      0.07      0.00
   17   -4    1      0.34      0.00
  -15   -3    1      0.00      0.00
  -14   -3    1      0.13      0.00
  -13   -3    1     -0.33      0.00
  -12   -3    1      0.03      0.00
  -11   -3    1     -0.20      0.00
  -10   -3    1      0.06      0.00
   -9   -3    1      0.06      0.00
   -8   -3    1     -0.13      0.00
   -7   -3    1      0.42      0.00
   -6   -3    1      0.25      0.00
   -5   -3    1     -0.22      0.00
   -4   -3    1     -0.40      0.00
   -3   -3    1      0.12      0.00
   -2   -3    1     -0.07      0.00
    0   -3    1      0.80      0.00
    1   -3    1     -0.79      0.00
    3   -3    1     -2.55      0.00
    4   -3    1      0.30      0.00
    5   -3    1      0.01      0.00
    6   -3    1     -0.39      0.00
    7   -3    1      0.45      0.00
    8   -3    1     -0.40      0.00
    9   -3    1      0.07      0.00
   10   -3    1      0.20      0.00
   11   -3    1     -0.01      0.00
   12   -3    1     -0.09      0.00
   13   -3    1     -0.06      0.00
   14   -3    1      0.10      0.00
   15   -3    1     -0.44      0.00
   16   -3    1     -0.03      0.00
   17   -3    1      0.51      0.00
  -15   -2    1     -0.59      0.00
  -14   -2    1      0.43      0.00
  -13   -2    1      0.15      0.00
  -12   -2    1     -0.15      0.00
  -11   -2    1      0.11      0.00
  -10   -2    1     -0.09      0.00
   -9   -2    1     -0.41      0.00
   -8   -2    1     -0.11      0.00
   -7   -2    1      0.02      0.00
   -6   -2    1     -0.37      0.00
   -5   -2    1      0.02      0.00
   -4   -2    1     -0.12      0.00
   -3   -2    1      0.41      0.00
   -2   -2    1     -0.31      0.00
    0   -2    1     -1.34      0.00
    1   -2    1     -1.58      0.00
    2   -2    1     -0.96      0.00
    3   -2    1      1.98      0.00
    4   -2    1     -0.61      0.00
    5   -2    1      0.78      0.00
    6   -2    1      0.15      0.00
    7   -2    1     -0.10      0.00
    8   -2    1     -0.27      0.00
    9   -2    1      0.44      0.00
   10   -2    1     -0.03      0.00
   11   -2    1     -0.12      0.00
   12   -2    1      0.19      0.00
   13   -2    1      0.01      0.00
   14   -2    1      0.11      0.00
   15   -2    1      0.50      0.00
   16   -2    1     -0.40      0.00
  -16   -1    1      0.02      0.00
  -15   -1    1      0.03      0.00
  -14   -1    1      0.00      0.00
  -13   -1    1     -0.50      0.00
  -12   -1    1     -0.12      0.00
  -11   -1    1     -0.26      0.00
  -10   -1    1      0.37      0.00
   -9   -1    1     -0.06      0.00
   -8   -1    1     -0.44      0.00
   -7   -1    1      0.06      0.00
   -6   -1    1      0.54      0.00
   -5   -1    1      0.09      0.00
   -4   -1    1     -0.28      0.00
   -3   -1    1      1.18      0.00
   -2   -1    1      1.47      0.00
    2   -1    1      2.11      0.00
    3   -1    1      0.51      0.00
    4   -1    1     -1.04      0.00
    5   -1    1     -0.52      0.00
    6   -1    1      0.27      0.00
    7   -1    1     -0.02      0.00
    8   -1    1     -0.02      0.00
    9   -1    1      0.26      0.00
   10   -1    1      0.19      0.00
   11   -1    1      0.09      0.00
   12   -1    1      0.12      0.00
   13   -1    1      0.21      0.00
   14   -1    1     -0.49      0.00
   15   -1    1     -0.26      0.00
   16   -1    1     -0.10      0.00
  -16    0    1     -0.41      0.00
  -15    0    1     -0.10      0.00
  -14    0    1      0.04      0.00
  -13    0    1      0.38      0.00
  -12    0    1      0.15      0.00
  -11    0    1      0.39      0.00
  -10    0    1     -0.09      0.00
   -9    0    1      0.29      0.00
   -8    0    1     -0.07      0.00
   -7    0    1     -0.35      0.00
   -6    0    1      0.04      0.00
   -5    0    1     -0.46      0.00
   -4    0    1     -0.97      0.00
   -3    0    1      0.71      0.00
   -2    0    1      3.15      0.00
    2    0    1      0.60      0.00
    3    0    1     -0.49      0.00
    4    0    1      0.10      0.00
    5    0    1      0.45      0.00
    6    0    1      0.00      0.00
    7    0    1     -0.10      0.00
    8    0    1     -0.31      0.00
    9    0    1     -0.25      0.00
   10    0    1      0.02      0.00
   11    0    1     -0.20      0.00
   12    0    1     -0.24      0.00
   13    0    1      0.13      0.00
   14    0    1      0.09      0.00
   15    0    1     -0.09      0.00
   16    0    1      0.18      0.00
  -16    1    1     -0.39      0.00
  -15    1    1      0.40      0.00
  -14    1    1      0.04      0.00
  -13    1    1      0.17      0.00
  -12    1    1     -0.40      0.00
  -11    1    1     -0.07      0.00
  -10    1    1      0.78      0.00
   -9    1    1     -0.38      0.00
   -8    1    1      0.42      0.00
   -7    1    1      0.25      0.00
   -6    1    1      0.41      0.00
   -5    1    1     -0.55      0.00
   -4    1    1      0.19      0.00
   -3    1    1     -2.09      0.00
   -2    1    1     -1.24      0.00
    1    1    1     -0.74      0.00
    2    1    1      0.07      0.00
    3    1    1      0.86      0.00
    4    1    1      0.27      0.00
    5    1    1     -0.06      0.00
    6    1    1      0.21      0.00
    7    1    1     -0.05      0.00
    8    1    1     -0.12      0.00
    9    1    1      0.15      0.00
   10    1    1     -0.23      0.00
   11    1    1     -0.05      0.00
   12    1    1     -0.10      0.00
   13    1    1      0.14      0.00
   14    1    1      0.15      0.00
   15    1    1      0.08      0.00
  -17    2    1      0.19      0.00
  -16    2    1      0.26      0.00
  -15    2    1     -0.06      0.00
  -14    2    1      0.03      0.00
  -13    2    1     -0.25      0.00
  -12    2    1      0.35      0.00
  -11    2    1     -1.36      0.00
  -10    2    1      1.10      0.00
   -9    2    1     -1.10      0.00
   -8    2    1      0.02      0.00
   -7    2    1      0.27      0.00
   -6    2    1      0.17      0.00
   -5    2    1      0.15      0.00
   -4    2    1      0.48      0.00
   -3    2    1      0.59      0.00
   -2    2    1     -1.69      0.00
   -1    2    1      1.46      0.00
    0    2    1     -0.76      0.00
    1    2    1     -0.27      0.00
    2    2    1     -0.39      0.00
    3    2    1      0.17      0.00
    4    2    1     -0.53      0.00
    5    2    1      0.10      0.00
    6    2    1      0.57      0.00
    7    2    1     -0.07      0.00
    8    2    1      0.07      0.00
    9    2    1      0.15      0.00
   10    2    1     -0.01      0.00
   11    2    1      0.15      0.00
   12    2    1      0.25      0.00
   13    2    1     -0.13      0.00
   14    2    1      0.22      0.00
   15    2    1     -0.33      0.00
  -17    3    1     -0.18      0.00
  -16    3    1     -0.24      0.00
  -15    3    1     -0.38      0.00
  -14    3    1      0.20      0.00
  -13    3    1     -0.02      0.00
  -12    3    1     -0.18      0.00
  -11    3    1      0.42      0.00
  -10    3    1     -0.18      0.00
   -9    3    1      0.48      0.00
   -8    3    1     -0.35      0.00
   -7    3    1      0.26      0.00
   -6    3    1     -0.43      0.00
   -5    3    1      0.65      0.00
   -4    3    1     -0.87      0.00
   -3    3    1      0.86      0.00
   -2    3    1     -0.44      0.00
   -1    3    1      0.05      0.00
    0    3    1      0.20      0.00
    1    3    1     -0.43      0.00
    2    3    1      0.02      0.00
    3    3    1     -0.11      0.00
    4    3    1     -0.44      0.00
    5    3    1     -0.14      0.00
    6    3    1      0.05      0.00
    7    3    1     -0.05      0.00
    8    3    1      0.06      0.00
    9    3    1      0.15      0.00
   10    3    1     -0.18      0.00
   11    3    1     -0.02      0.00
   12    3    1     -0.16      0.00
   13    3    1      0.00      0.00
   14    3    1      0.10      0.00
  -17    4    1      0.24      0.00
  -16    4    1      0.05      0.00
  -15    4    1      0.01      0.00
  -14    4    1      0.23      0.00
  -13    4    1     -0.01      0.00
  -12    4    1     -0.09      0.00
  -11    4    1      0.50      0.00
  -10    4    1     -0.48      0.00
   -9    4    1      0.07      0.00
   -8    4    1      0.14      0.00
   -7    4    1     -0.87      0.00
   -6    4    1      0.63      0.00
   -5    4    1     -0.08      0.00
   -4    4    1      0.04      0.00
   -3    4    1      0.95      0.00
   -2    4    1     -0.62      0.00
   -1    4    1      0.32      0.00
    0    4    1      0.24      0.00
    1    4    1     -0.27      0.00
    2    4    1     -0.34      0.00
    3    4    1      0.28      0.00
    4    4    1     -0.41      0.00
    5    4    1      0.29      0.00
    6    4    1     -0.45      0.00
    7    4    1     -0.26      0.00
    8    4    1     -0.08      0.00
    9    4    1      0.19      0.00
   10    4    1     -0.24      0.00
   11    4    1      0.27      0.00
   12    4    1      0.01      0.00
   13    4    1      0.04      0.00
  -17    5    1     -0.31      0.00
  -16    5    1      0.14      0.00
  -15    5    1      0.08      0.00
  -14    5    1     -0.06      0.00
  -13    5    1      0.50      0.00
  -12    5    1     -0.64      0.00
  -11    5    1     -0.06      0.00
  -10    5    1      0.01      0.00
   -9    5    1     -0.34      0.00
   -8    5    1      0.74      0.00
   -7    5    1     -0.72      0.00
   -5    5    1     -0.62      0.00
   -4    5    1     -0.04      0.00
   -3    5    1      0.14      0.00
   -2    5    1     -0.81      0.00
   -1    5    1      0.69      0.00
    0    5    1     -0.51      0.00
    1    5    1      0.35      0.00
    2    5    1      0.49      0.00
    3    5    1      0.01      0.00
    4    5    1     -0.36      0.00
    5    5    1      0.34      0.00
    6    5    1      0.12      0.00
    7    5    1      0.08      0.00
    8    5    1      0.36      0.00
    9    5    1      0.00      0.00
   10    5    1      0.37      0.00
   11    5    1     -0.34      0.00
   12    5    1      0.09      0.00
   13    5    1     -0.09      0.00
  -17    6    1     -0.05      0.00
  -16    6    1      0.23      0.00
  -15    6    1     -0.14      0.00
  -14    6    1     -0.34      0.00
  -13    6    1      0.12      0.00
  -12    6    1      0.12      0.00
  -11    6    1      0.03      0.00
  -10    6    1      0.39      0.00
   -9    6    1     -0.34      0.00
   -8    6    1     -0.09      0.00
   -7    6    1      0.06      0.00
   -6    6    1     -0.32      0.00
   -5    6    1      0.16      0.00
   -4    6    1     -0.30      0.00
   -3    6    1      0.57      0.00
   -2    6    1     -0.33      0.00
    0    6    1     -0.44      0.00
    1    6    1     -0.03      0.00
    2    6    1      0.29      0.00
    3    6    1     -0.15      0.00
    4    6    1      0.07      0.00
    5    6    1      0.14      0.00
    6    6    1     -0.06      0.00
    7    6    1      0.00      0.00
    8    6    1     -0.23      0.00
    9    6    1     -0.04      0.00
   10    6    1     -0.20      0.00
   11    6    1     -0.24      0.00
   12    6    1     -0.06      0.00
  -17    7    1     -0.21      0.00
  -16    7    1     -0.53      0.00
  -15    7    1      0.48      0.00
  -14    7    1     -0.18      0.00
  -13    7    1      0.09      0.00
  -12    7    1      0.19      0.00
  -11    7    1     -0.38      0.00
  -10    7    1     -0.15      0.00
   -9    7    1      0.46      0.00
   -8    7    1     -0.13      0.00
   -7    7    1      0.56      0.00
   -6    7    1      0.25      0.00
   -5    7    1      0.19      0.00
   -4    7    1     -0.08      0.00
   -3    7    1      0.52      0.00
   -2    7    1     -0.87      0.00
   -1    7    1      0.30      0.00
    0    7    1     -0.47      0.00
    1    7    1      0.13      0.00
    2    7    1      0.11      0.00
    3    7    1     -0.02      0.00
    4    7    1     -0.16      0.00
    5    7    1      0.16      0.00
    6    7    1     -0.27      0.00
    7    7    1     -0.25      0.00
    8    7    1     -0.09      0.00
    9    7    1      0.28      0.00
   10    7    1     -0.14      0.00
   11    7    1      0.09      0.00
  -17    8    1     -0.02      0.00
  -16    8    1      0.28      0.00
  -15    8    1     -0.08      0.00
  -14    8    1      0.06      0.00
  -13    8    1      0.06      0.00
  -12    8    1     -0.15      0.00
  -11    8    1      0.69      0.00
  -10    8    1     -0.28      0.00
   -9    8    1      0.35      0.00
   -8    8    1     -0.06      0.00
   -7    8    1     -0.58      0.00
   -6    8    1      0.28      0.00
   -5    8    1     -0.16      0.00
   -4    8    1     -0.42      0.00
   -3    8    1      0.00      0.00
   -2    8    1     -0.06      0.00
   -1    8    1      0.46      0.00
    0    8    1     -0.04      0.00
    1    8    1      0.25      0.00
    3    8    1      0.02      0.00
    4    8    1     -0.01      0.00
    5    8    1      0.04      0.00
    6    8    1      0.29      0.00
    7    8    1     -0.03      0.00
    8    8    1     -0.35      0.00
    9    8    1      0.35      0.00
   10    8    1      0.18      0.00
  -17    9    1      0.04      0.00
  -16    9    1     -0.17      0.00
  -15    9    1     -0.22      0.00
  -14    9    1      0.06      0.00
  -13    9    1     -0.13      0.00
  -12    9    1     -0.08      0.00
  -11    9    1     -0.16      0.00
  -10    9    1     -0.13      0.00
   -9    9    1     -0.05      0.00
   -8    9    1      0.13      0.00
   -7    9    1     -0.01      0.00
   -6    9    1     -0.16      0.00
   -5    9    1      0.53      0.00
   -4    9    1     -0.11      0.00
   -3    9    1      0.24      0.00
   -2    9    1     -0.29      0.00
   -1    9    1      0.21      0.00
    0    9    1     -0.29      0.00
    1    9    1     -0.22      0.00
    3    9    1      0.07      0.00
    4    9    1     -0.14      0.00
    5    9    1     -0.06      0.00
    6    9    1      0.24      0.00
    7    9    1     -0.23      0.00
    8    9    1      0.26      0.00
    9    9    1     -0.15      0.00
  -17   10    1      0.50      0.00
  -16   10    1     -0.24      0.00
  -15   10    1      0.09      0.00
  -14   10    1      0.07      0.00
  -13   10    1     -0.28      0.00
  -12   10    1      0.60      0.00
  -11   10    1     -0.40      0.00
  -10   10    1      0.28      0.00
   -9   10    1      0.16      0.00
   -8   10    1     -0.03      0.00
   -7   10    1      0.39      0.00
   -6   10    1     -0.39      0.00
   -5   10    1      0.25      0.00
   -4   10    1      0.14      0.00
   -3   10    1      0.07      0.00
   -2   10    1     -0.01      0.00
   -1   10    1     -0.12      0.00
    0   10    1      0.14      0.00
    1   10    1     -0.08      0.00
    3   10    1      0.10      0.00
    4   10    1     -0.20      0.00
    5   10    1      0.17      0.00
    6   10    1      0.24      0.00
    7   10    1     -0.38      0.00
    8   10    1      0.24      0.00
  -16   11    1     -0.18      0.00
  -15   11    1      0.30      0.00
  -14   11    1      0.24      0.00
  -13   11    1     -0.41      0.00
  -12   11    1      0.33      0.00
  -11   11    1     -0.38      0.00
  -10   11    1     -0.03      0.00
   -9   11    1     -0.19      0.00
   -8   11    1     -0.51      0.00
   -7   11    1      0.26      0.00
   -6   11    1     -0.09      0.00
   -5   11    1     -0.12      0.00
   -4   11    1     -0.28      0.00
   -3   11    1     -0.11      0.00
   -2   11    1     -0.13      0.00
   -1   11    1     -0.07      0.00
    0   11    1     -0.17      0.00
    1   11    1     -0.32      0.00
    2   11    1     -0.10      0.00
    3   11    1      0.06      0.00
    4   11    1     -0.18      0.00
    5   11    1      0.33      0.00
    6   11    1      0.01      0.00
    7   11    1     -0.17      0.00
  -16   12    1     -0.04      0.00
  -15   12    1     -0.17      0.00
  -14   12    1     -0.08      0.00
  -13   12    1     -0.11      0.00
  -12   12    1      0.04      0.00
  -11   12    1     -0.51      0.00
  -10   12    1      0.43      0.00
   -9   12    1     -0.12      0.00
   -8   12    1     -0.09      0.00
   -7   12    1      0.05      0.00
   -6   12    1     -0.50      0.00
   -5   12    1      0.17      0.00
   -4   12    1      0.15      0.00
   -3   12    1     -0.03      0.00
   -2   12    1      0.19      0.00
   -1   12    1      0.08      0.00
    0   12    1      0.33      0.00
    1   12    1      0.04      0.00
    2   12    1      0.14      0.00
    3   12    1      0.27      0.00
    4   12    1     -0.53      0.00
    5   12    1      0.00      0.00
    6   12    1      0.18      0.00
  -15   13    1     -0.04      0.00
  -14   13    1     -0.20      0.00
  -13   13    1      0.60      0.00
  -12   13    1     -0.05      0.00
  -11   13    1      0.15      0.00
  -10   13    1      0.42      0.00
   -9   13    1     -0.15      0.00
   -8   13    1      0.17      0.00
   -7   13    1      0.40      0.00
   -6   13    1     -0.36      0.00
   -5   13    1      0.15      0.00
   -4   13    1      0.05      0.00
   -3   13    1     -0.37      0.00
   -2   13    1      0.16      0.00
   -1   13    1      0.11      0.00
    0   13    1     -0.01      0.00
    1   13    1      0.41      0.00
    2   13    1      0.04      0.00
    3   13    1     -0.05      0.00
    4   13    1      0.17      0.00
  -14   14    1      0.13      0.00
  -13   14    1      0.07      0.00
  -12   14    1     -0.12      0.00
  -11   14    1      0.09      0.00
  -10   14    1     -0.11      0.00
   -9   14    1     -0.15      0.00
   -8   14    1     -0.14      0.00
   -7   14    1      0.50      0.00
   -6   14    1     -0.40      0.00
   -5   14    1      0.08      0.00
   -4   14    1      0.15      0.00
   -3   14    1     -0.03      0.00
   -2   14    1     -0.03      0.00
   -1   14    1     -0.22      0.00
    0   14    1     -0.02      0.00
    1   14    1     -0.64      0.00
    2   14    1      0.30      0.00
  -12   15    1     -0.22      0.00
  -11   15    1     -0.22      0.00
  -10   15    1      0.11      0.00
   -9   15    1     -0.22      0.00
   -8   15    1      0.06      0.00
   -7   15    1      0.20      0.00
   -6   15    1      0.12      0.00
   -5   15    1     -0.04      0.00
   -4   15    1      0.25      0.00
   -3   15    1     -0.09      0.00
   -2   15    1     -0.07      0.00
   -1   15    1      0.01      0.00
    0   15    1     -0.13      0.00
  -10   16    1      0.53      0.00
   -9   16    1     -0.18      0.00
   -8   16    1     -0.26      0.00
   -7   16    1      0.17      0.00
   -6   16    1     -0.36      0.00
   -5   16    1      0.15      0.00
   -4   16    1     -0.16      0.00
   -3   16    1     -0.10      0.00
    4  -17    2     -0.36      0.00
    5  -17    2      0.16      0.00
    6  -17    2     -0.07      0.00
    7  -17    2      0.38      0.00
    8  -17    2      0.06      0.00
    0  -16    2      0.26      0.00
    1  -16    2     -0.43      0.00
    2  -16    2     -0.03      0.00
    3  -16    2      0.13      0.00
    4  -16    2      0.26      0.00
    5  -16    2     -0.09      0.00
    6  -16    2      0.49      0.00
    7  -16    2     -0.37      0.00
    8  -16    2      0.18      0.00
    9  -16    2     -0.14      0.00
   10  -16    2     -0.10      0.00
   11  -16    2     -0.43      0.00
   -2  -15    2     -0.24      0.00
   -1  -15    2     -0.03      0.00
    1  -15    2     -0.14      0.00
    2  -15    2      0.10      0.00
    3  -15    2      0.21      0.00
    4  -15    2     -0.20      0.00
    5  -15    2     -0.24      0.00
    6  -15    2     -0.19      0.00
    7  -15    2     -0.07      0.00
    8  -15    2     -0.25      0.00
    9  -15    2      0.12      0.00
   10  -15    2      0.03      0.00
   11  -15    2      0.25      0.00
   12  -15    2     -0.09      0.00
   13  -15    2      0.29      0.00
   -4  -14    2      0.26      0.00
   -3  -14    2     -0.03      0.00
   -2  -14    2     -0.05      0.00
   -1  -14    2      0.17      0.00
    0  -14    2      0.17      0.00
    1  -14    2     -0.01      0.00
    2  -14    2     -0.05      0.00
    3  -14    2     -0.15      0.00
    4  -14    2     -0.06      0.00
    5  -14    2      0.06      0.00
    6  -14    2      0.20      0.00
    7  -14    2     -0.05      0.00
    8  -14    2     -0.15      0.00
    9  -14    2      0.23      0.00
   10  -14    2     -0.10      0.00
   11  -14    2      0.24      0.00
   12  -14    2     -0.14      0.00
   13  -14    2     -0.16      0.00
   14  -14    2      0.14      0.00
   -6  -13    2      0.34      0.00
   -5  -13    2     -0.12      0.00
   -4  -13    2     -0.03      0.00
   -3  -13    2     -0.05      0.00
   -2  -13    2     -0.28      0.00
   -1  -13    2     -0.06      0.00
    0  -13    2     -0.17      0.00
    1  -13    2     -0.17      0.00
    2  -13    2      0.28      0.00
    3  -13    2      0.03      0.00
    4  -13    2     -0.02      0.00
    5  -13    2     -0.26      0.00
    6  -13    2      0.28      0.00
    7  -13    2     -0.53      0.00
    8  -13    2      0.57      0.00
    9  -13    2     -0.14      0.00
   10  -13    2     -0.08      0.00
   11  -13    2     -0.13      0.00
   12  -13    2      0.17      0.00
   13  -13    2     -0.33      0.00
   14  -13    2     -0.13      0.00
   15  -13    2      0.20      0.00
   -7  -12    2      0.11      0.00
   -6  -12    2     -0.16      0.00
   -5  -12    2     -0.08      0.00
   -4  -12    2      0.12      0.00
   -3  -12    2      0.04      0.00
   -2  -12    2     -0.08      0.00
   -1  -12    2      0.02      0.00
    0  -12    2      0.08      0.00
    1  -12    2     -0.12      0.00
    2  -12    2     -0.22      0.00
    3  -12    2      0.29      0.00
    4  -12    2     -0.22      0.00
    5  -12    2      0.25      0.00
    6  -12    2      0.45      0.00
    7  -12    2     -0.03      0.00
    8  -12    2      0.18      0.00
    9  -12    2     -0.28      0.00
   10  -12    2      0.33      0.00
   11  -12    2     -0.16      0.00
   12  -12    2     -0.01      0.00
   13  -12    2      0.09      0.00
   14  -12    2      0.20      0.00
   15  -12    2      0.11      0.00
   16  -12    2      0.00      0.00
   -8  -11    2     -0.14      0.00
   -7  -11    2      0.05      0.00
   -6  -11    2      0.21      0.00
   -5  -11    2      0.02      0.00
   -4  -11    2     -0.07      0.00
   -3  -11    2      0.31      0.00
   -2  -11    2     -0.12      0.00
   -1  -11    2      0.26      0.00
    0  -11    2      0.06      0.00
    1  -11    2     -0.14      0.00
    2  -11    2      0.26      0.00
    3  -11    2     -0.01      0.00
    4  -11    2      0.26      0.00
    5  -11    2     -0.11      0.00
    6  -11    2     -0.22      0.00
    7  -11    2     -0.09      0.00
    8  -11    2     -0.18      0.00
    9  -11    2      0.11      0.00
   10  -11    2      0.04      0.00
   11  -11    2     -0.11      0.00
   12  -11    2      0.24      0.00
   13  -11    2      0.24      0.00
   14  -11    2     -0.25      0.00
   15  -11    2      0.04      0.00
   16  -11    2      0.09      0.00
  -10  -10    2     -0.24      0.00
   -9  -10    2      0.05      0.00
   -8  -10    2     -0.32      0.00
   -7  -10    2      0.22      0.00
   -6  -10    2     -0.18      0.00
   -5  -10    2      0.06      0.00
   -4  -10    2     -0.08      0.00
   -3  -10    2      0.13      0.00
   -2  -10    2     -0.13      0.00
   -1  -10    2     -0.06      0.00
    0  -10    2      0.24      0.00
    1  -10    2     -0.19      0.00
    2  -10    2      0.17      0.00
    3  -10    2     -0.41      0.00
    4  -10    2      0.25      0.00
    5  -10    2     -0.25      0.00
    6  -10    2      0.15      0.00
    7  -10    2      0.12      0.00
    8  -10    2     -0.19      0.00
    9  -10    2      0.00      0.00
   10  -10    2      0.18      0.00
   11  -10    2     -0.37      0.00
   12  -10    2      0.08      0.00
   13  -10    2     -0.12      0.00
   14  -10    2      0.07      0.00
   15  -10    2      0.11      0.00
   16  -10    2      0.12      0.00
  -11   -9    2     -0.05      0.00
  -10   -9    2      0.31      0.00
   -9   -9    2      0.10      0.00
   -8   -9    2     -0.09      0.00
   -7   -9    2      0.28      0.00
   -5   -9    2     -0.03      0.00
   -4   -9    2      0.07      0.00
   -3   -9    2      0.05      0.00
   -2   -9    2     -0.36      0.00
   -1   -9    2     -0.08      0.00
    0   -9    2      0.08      0.00
    1   -9    2     -0.23      0.00
    2   -9    2      0.07      0.00
    3   -9    2     -0.03      0.00
    4   -9    2     -0.40      0.00
    5   -9    2      0.09      0.00
    6   -9    2      0.15      0.00
    7   -9    2     -0.15      0.00
    8   -9    2     -0.34      0.00
    9   -9    2      0.13      0.00
   10   -9    2     -0.11      0.00
   11   -9    2     -0.03      0.00
   12   -9    2     -0.02      0.00
   13   -9    2      0.01      0.00
   14   -9    2     -0.20      0.00
   15   -9    2     -0.14      0.00
   16   -9    2     -0.33      0.00
   17   -9    2      0.12      0.00
  -11   -8    2     -0.04      0.00
  -10   -8    2     -0.05      0.00
   -9   -8    2      0.00      0.00
   -8   -8    2     -0.18      0.00
   -7   -8    2     -0.18      0.00
   -6   -8    2      0.09      0.00
   -5   -8    2     -0.24      0.00
   -4   -8    2      0.18      0.00
   -3   -8    2      0.28      0.00
   -2   -8    2      0.15      0.00
   -1   -8    2      0.00      0.00
    0   -8    2     -0.02      0.00
    1   -8    2     -0.17      0.00
    2   -8    2     -0.07      0.00
    3   -8    2      0.03      0.00
    4   -8    2     -0.08      0.00
    5   -8    2     -0.30      0.00
    6   -8    2     -0.09      0.00
    7   -8    2      0.20      0.00
    8   -8    2      0.16      0.00
    9   -8    2      0.19      0.00
   10   -8    2      0.08      0.00
   11   -8    2     -0.13      0.00
   12   -8    2      0.23      0.00
   13   -8    2     -0.10      0.00
   14   -8    2     -0.04      0.00
   15   -8    2      0.30      0.00
   16   -8    2      0.08      0.00
   17   -8    2      0.01      0.00
  -12   -7    2     -0.10      0.00
  -11   -7    2     -0.16      0.00
  -10   -7    2      0.12      0.00
   -9   -7    2     -0.14      0.00
   -8   -7    2     -0.18      0.00
   -7   -7    2      0.22      0.00
   -6   -7    2     -0.18      0.00
   -5   -7    2     -0.10      0.00
   -4   -7    2     -0.07      0.00
   -3   -7    2     -0.19      0.00
   -2   -7    2     -0.39      0.00
   -1   -7    2      0.55      0.00
    0   -7    2     -0.28      0.00
    1   -7    2      0.00      0.00
    2   -7    2      0.62      0.00
    3   -7    2     -0.16      0.00
    4   -7    2      0.18      0.00
    5   -7    2     -0.08      0.00
    6   -7    2      0.53      0.00
    7   -7    2     -0.22      0.00
    8   -7    2     -0.25      0.00
    9   -7    2      0.52      0.00
   10   -7    2     -0.28      0.00
   11   -7    2     -0.19      0.00
   12   -7    2      0.16      0.00
   13   -7    2      0.07      0.00
   14   -7    2     -0.37      0.00
   15   -7    2      0.25      0.00
   16   -7    2      0.14      0.00
   17   -7    2     -0.32      0.00
  -13   -6    2      0.06      0.00
  -12   -6    2     -0.23      0.00
  -11   -6    2      0.18      0.00
  -10   -6    2      0.25      0.00
   -9   -6    2      0.11      0.00
   -8   -6    2     -0.08      0.00
   -7   -6    2      0.61      0.00
   -6   -6    2     -0.33      0.00
   -5   -6    2     -0.20      0.00
   -4   -6    2      0.21      0.00
   -3   -6    2     -0.13      0.00
   -2   -6    2     -0.07      0.00
   -1   -6    2      0.25      0.00
    0   -6    2      0.09      0.00
    1   -6    2     -0.05      0.00
    2   -6    2     -0.24      0.00
    3   -6    2      0.46      0.00
    4   -6    2      0.09      0.00
    5   -6    2     -0.10      0.00
    6   -6    2      0.56      0.00
    7   -6    2     -0.44      0.00
    8   -6    2     -0.24      0.00
    9   -6    2      0.21      0.00
   10   -6    2      0.04      0.00
   11   -6    2     -0.08      0.00
   12   -6    2     -0.13      0.00
   13   -6    2      0.35      0.00
   14   -6    2     -0.23      0.00
   15   -6    2      0.11      0.00
   16   -6    2     -0.09      0.00
   17   -6    2     -0.12      0.00
  -14   -5    2      0.41      0.00
  -13   -5    2     -0.15      0.00
  -12   -5    2      0.17      0.00
  -11   -5    2     -0.04      0.00
  -10   -5    2     -0.06      0.00
   -9   -5    2      0.07      0.00
   -8   -5    2     -0.29      0.00
   -7   -5    2      0.10      0.00
   -6   -5    2     -0.08      0.00
   -4   -5    2      0.01      0.00
   -3   -5    2      0.74      0.00
   -1   -5    2      0.44      0.00
    0   -5    2      0.48      0.00
    1   -5    2     -0.74      0.00
    2   -5    2      0.79      0.00
    3   -5    2      0.63      0.00
    4   -5    2     -0.41      0.00
    5   -5    2      0.17      0.00
    6   -5    2      0.22      0.00
    7   -5    2     -0.23      0.00
    8   -5    2      0.05      0.00
    9   -5    2     -0.12      0.00
   10   -5    2      0.43      0.00
   11   -5    2     -0.13      0.00
   12   -5    2      0.12      0.00
   13   -5    2      0.03      0.00
   14   -5    2      0.13      0.00
   15   -5    2     -0.10      0.00
   16   -5    2      0.15      0.00
   17   -5    2      0.19      0.00
  -14   -4    2      0.02      0.00
  -13   -4    2      0.01      0.00
  -12   -4    2     -0.07      0.00
  -11   -4    2     -0.15      0.00
  -10   -4    2      0.16      0.00
   -9   -4    2     -0.12      0.00
   -8   -4    2     -0.07      0.00
   -7   -4    2      0.35      0.00
   -5   -4    2     -0.07      0.00
   -4   -4    2     -0.02      0.00
   -3   -4    2     -0.14      0.00
   -2   -4    2     -0.35      0.00
    0   -4    2      0.02      0.00
    1   -4    2     -0.14      0.00
    2   -4    2     -0.48      0.00
    4   -4    2     -0.88      0.00
    5   -4    2     -0.30      0.00
    6   -4    2      0.28      0.00
    7   -4    2      0.32      0.00
    8   -4    2     -0.46      0.00
    9   -4    2      0.03      0.00
   10   -4    2     -0.14      0.00
   11   -4    2     -0.01      0.00
   12   -4    2     -0.18      0.00
   13   -4    2     -0.04      0.00
   14   -4    2      0.01      0.00
   15   -4    2     -0.47      0.00
   16   -4    2     -0.22      0.00
   17   -4    2      0.19      0.00
  -15   -3    2     -0.33      0.00
  -14   -3    2     -0.03      0.00
  -13   -3    2     -0.01      0.00
  -12   -3    2     -0.06      0.00
  -11   -3    2      0.14      0.00
  -10   -3    2      0.00      0.00
   -9   -3    2     -0.52      0.00
   -8   -3    2      0.32      0.00
   -7   -3    2     -0.19      0.00
   -6   -3    2     -0.26      0.00
   -5   -3    2     -0.41      0.00
   -4   -3    2      0.48      0.00
   -3   -3    2     -0.24      0.00
   -2   -3    2      0.18      0.00
    0   -3    2     -0.83      0.00
    1   -3    2     -0.34      0.00
    2   -3    2     -1.17      0.00
    4   -3    2     -1.18      0.00
    5   -3    2      0.49      0.00
    6   -3    2      0.33      0.00
    7   -3    2      0.13      0.00
    8   -3    2     -0.33      0.00
    9   -3    2      0.12      0.00
   10   -3    2      0.12      0.00
   11   -3    2     -0.31      0.00
   13   -3    2     -0.41      0.00
   14   -3    2      0.44      0.00
   15   -3    2      0.41      0.00
   16   -3    2      0.16      0.00
  -15   -2    2      0.13      0.00
  -14   -2    2      0.07      0.00
  -13   -2    2     -0.10      0.00
  -12   -2    2     -0.41      0.00
  -11   -2    2     -0.10      0.00
  -10   -2    2      0.67      0.00
   -9   -2    2     -0.41      0.00
   -8   -2    2      0.24      0.00
   -7   -2    2      0.07      0.00
   -6   -2    2      0.13      0.00
   -5   -2    2      0.05      0.00
   -4   -2    2      0.26      0.00
   -3   -2    2      0.35      0.00
   -2   -2    2      0.14      0.00
   -1   -2    2     -1.34      0.00
    1   -2    2     -2.54      0.00
    2   -2    2      1.92      0.00
    3   -2    2     -0.16      0.00
    4   -2    2     -0.55      0.00
    5   -2    2     -0.75      0.00
    6   -2    2     -0.12      0.00
    7   -2    2     -0.30      0.00
    8   -2    2      0.39      0.00
    9   -2    2     -0.02      0.00
   10   -2    2      0.30      0.00
   11   -2    2     -0.27      0.00
   12   -2    2      0.38      0.00
   13   -2    2      0.00      0.00
   14   -2    2     -0.24      0.00
   15   -2    2     -0.45      0.00
   16   -2    2     -0.04      0.00
  -16   -1    2      0.06      0.00
  -15   -1    2     -0.43      0.00
  -14   -1    2     -0.11      0.00
  -13   -1    2      0.48      0.00
  -12   -1    2     -0.21      0.00
  -11   -1    2      0.06      0.00
  -10   -1    2      0.04      0.00
   -9   -1    2     -0.36      0.00
   -8   -1    2     -0.20      0.00
   -7   -1    2      0.09      0.00
   -6   -1    2     -0.23      0.00
   -5   -1    2     -0.14      0.00
   -4   -1    2     -0.59      0.00
   -3   -1    2      0.24      0.00
   -2   -1    2      0.86      0.00
   -1   -1    2      0.35      0.00
    2   -1    2      1.71      0.00
    3   -1    2     -0.33      0.00
    4   -1    2      0.04      0.00
    5   -1    2      0.49      0.00
    6   -1    2     -0.03      0.00
    7   -1    2      0.07      0.00
    8   -1    2     -0.33      0.00
    9   -1    2      0.01      0.00
   10   -1    2      0.12      0.00
   11   -1    2      0.16      0.00
   12   -1    2      0.04      0.00
   13   -1    2      0.14      0.00
   14   -1    2      0.02      0.00
   15   -1    2      0.17      0.00
   16   -1    2     -0.08      0.00
  -16    0    2     -0.23      0.00
  -15    0    2      0.47      0.00
  -14    0    2     -0.02      0.00
  -13    0    2      0.24      0.00
  -12    0    2      0.11      0.00
  -11    0    2     -0.01      0.00
  -10    0    2      0.48      0.00
   -9    0    2      0.18      0.00
   -8    0    2     -0.26      0.00
   -7    0    2      0.45      0.00
   -6    0    2     -0.26      0.00
   -5    0    2     -0.46      0.00
   -4    0    2      0.37      0.00
   -3    0    2     -0.38      0.00
   -2    0    2     -2.98      0.00
   -1    0    2      1.49      0.00
    1    0    2     -1.03      0.00
    2    0    2     -0.61      0.00
    3    0    2      1.27      0.00
    4    0    2      0.09      0.00
    5    0    2      0.39      0.00
    6    0    2      0.21      0.00
    7    0    2      0.07      0.00
    8    0    2     -0.07      0.00
    9    0    2     -0.14      0.00
   10    0    2      0.10      0.00
   11    0    2     -0.27      0.00
   12    0    2     -0.22      0.00
   13    0    2      0.14      0.00
   14    0    2     -0.06      0.00
   15    0    2      0.17      0.00
  -17    1    2      0.39      0.00
  -16    1    2      0.16      0.00
  -15    1    2      0.20      0.00
  -14    1    2     -0.36      0.00
  -13    1    2      0.01      0.00
  -12    1    2     -0.25      0.00
  -11    1    2     -0.44      0.00
  -10    1    2      0.11      0.00
   -9    1    2     -0.36      0.00
   -8    1    2      0.26      0.00
   -7    1    2      0.23      0.00
   -6    1    2      0.19      0.00
   -5    1    2     -0.07      0.00
   -4    1    2      0.84      0.00
   -3    1    2      1.36      0.00
   -2    1    2     -2.20      0.00
    0    1    2     -1.59      0.00
    1    1    2      0.72      0.00
    2    1    2     -0.26      0.00
    3    1    2     -0.11      0.00
    4    1    2     -0.35      0.00
    5    1    2     -0.05      0.00
    6    1    2      0.09      0.00
    7    1    2      0.18      0.00
    8    1    2      0.09      0.00
    9    1    2     -0.13      0.00
   10    1    2      0.10      0.00
   11    1    2     -0.08      0.00
   12    1    2      0.24      0.00
   13    1    2     -0.13      0.00
   14    1    2      0.53      0.00
   15    1    2     -0.44      0.00
  -17    2    2      0.18      0.00
  -16    2    2     -0.44      0.00
  -15    2    2     -0.22      0.00
  -14    2    2      0.40      0.00
  -13    2    2     -0.10      0.00
  -12    2    2     -0.31      0.00
  -11    2    2      0.69      0.00
  -10    2    2     -0.19      0.00
   -9    2    2     -0.04      0.00
   -8    2    2      0.24      0.00
   -7    2    2      0.17      0.00
   -6    2    2     -0.39      0.00
   -5    2    2     -0.03      0.00
   -4    2    2     -0.71      0.00
   -3    2    2      1.45      0.00
   -2    2    2     -0.07      0.00
   -1    2    2     -0.12      0.00
    0    2    2      0.20      0.00
    1    2    2     -0.14      0.00
    2    2    2     -0.37      0.00
    3    2    2      0.13      0.00
    4    2    2     -0.55      0.00
    5    2    2      0.19      0.00
    6    2    2     -0.28      0.00
    7    2    2      0.14      0.00
    8    2    2      0.06      0.00
    9    2    2      0.17      0.00
   10    2    2     -0.23      0.00
   11    2    2      0.03      0.00
   12    2    2     -0.01      0.00
   13    2    2     -0.40      0.00
   14    2    2      0.21      0.00
  -17    3    2      0.08      0.00
  -16    3    2      0.19      0.00
  -15    3    2     -0.18      0.00
  -14    3    2      0.29      0.00
  -13    3    2     -0.14      0.00
  -12    3    2      0.12      0.00
  -11    3    2      0.04      0.00
  -10    3    2     -0.02      0.00
   -9    3    2     -0.11      0.00
   -8    3    2     -0.15      0.00
   -7    3    2     -0.06      0.00
   -6    3    2      0.61      0.00
   -5    3    2     -0.48      0.00
   -4    3    2      0.29      0.00
   -3    3    2      0.30      0.00
   -2    3    2     -0.49      0.00
    0    3    2      0.33      0.00
    1    3    2     -0.48      0.00
    2    3    2     -0.16      0.00
    3    3    2      0.00      0.00
    4    3    2      0.00      0.00
    5    3    2      0.05      0.00
    6    3    2     -0.12      0.00
    7    3    2     -0.23      0.00
    8    3    2     -0.15      0.00
    9    3    2     -0.05      0.00
   10    3    2      0.07      0.00
   11    3    2      0.12      0.00
   12    3    2      0.14      0.00
   13    3    2     -0.03      0.00
   14    3    2     -0.09      0.00
  -17    4    2     -0.03      0.00
  -16    4    2      0.08      0.00
  -15    4    2      0.11      0.00
  -14    4    2      0.00      0.00
  -13    4    2      0.33      0.00
  -12    4    2     -0.11      0.00
  -11    4    2     -0.27      0.00
  -10    4    2      0.09      0.00
   -9    4    2     -0.31      0.00
   -8    4    2      0.05      0.00
   -7    4    2     -0.14      0.00
   -6    4    2     -0.10      0.00
   -5    4    2     -0.12      0.00
   -4    4    2     -0.37      0.00
   -3    4    2      0.14      0.00
   -2    4    2     -0.33      0.00
   -1    4    2      0.27      0.00
    0    4    2     -0.30      0.00
    1    4    2     -0.12      0.00
    2    4    2      0.86      0.00
    3    4    2     -0.40      0.00
    4    4    2      0.07      0.00
    5    4    2      0.01      0.00
    6    4    2     -0.06      0.00
    7    4    2      0.05      0.00
    9    4    2     -0.21      0.00
   10    4    2      0.53      0.00
   11    4    2     -0.67      0.00
   12    4    2      0.36      0.00
   13    4    2     -0.23      0.00
  -17    5    2      0.08      0.00
  -16    5    2     -0.19      0.00
  -15    5    2     -0.13      0.00
  -14    5    2     -0.31      0.00
  -13    5    2     -0.12      0.00
  -12    5    2      0.21      0.00
  -11    5    2      0.04      0.00
  -10    5    2      0.23      0.00
   -9    5    2     -0.19      0.00
   -8    5    2     -0.10      0.00
   -7    5    2      0.35      0.00
   -6    5    2     -0.42      0.00
   -5    5    2      0.13      0.00
   -4    5    2      0.00      0.00
   -3    5    2     -0.26      0.00
   -2    5    2      0.41      0.00
   -1    5    2      0.24      0.00
    0    5    2      0.10      0.00
    1    5    2      0.19      0.00
    2    5    2     -0.02      0.00
    4    5    2      0.22      0.00
    5    5    2     -0.09      0.00
    6    5    2     -0.11      0.00
    7    5    2      0.16      0.00
    8    5    2     -0.12      0.00
    9    5    2     -0.10      0.00
   10    5    2     -0.02      0.00
   11    5    2     -0.07      0.00
   12    5    2      0.16      0.00
  -17    6    2      0.10      0.00
  -16    6    2     -0.44      0.00
  -15    6    2      0.50      0.00
  -14    6    2     -0.14      0.00
  -13    6    2      0.06      0.00
  -12    6    2     -0.21      0.00
  -11    6    2     -0.01      0.00
  -10    6    2     -0.07      0.00
   -9    6    2      0.07      0.00
   -8    6    2      0.18      0.00
   -7    6    2     -0.19      0.00
   -6    6    2      0.22      0.00
   -5    6    2      0.14      0.00
   -4    6    2      0.16      0.00
   -3    6    2      0.03      0.00
   -2    6    2     -0.34      0.00
   -1    6    2      0.01      0.00
    0    6    2     -0.34      0.00
    1    6    2      0.29      0.00
    2    6    2      0.03      0.00
    3    6    2     -0.35      0.00
    4    6    2      0.35      0.00
    5    6    2      0.08      0.00
    6    6    2     -0.36      0.00
    7    6    2      0.11      0.00
    8    6    2     -0.08      0.00
    9    6    2      0.13      0.00
   10    6    2     -0.03      0.00
   11    6    2     -0.17      0.00
   12    6    2      0.05      0.00
  -17    7    2      0.24      0.00
  -16    7    2      0.33      0.00
  -15    7    2     -0.09      0.00
  -14    7    2      0.16      0.00
  -13    7    2      0.23      0.00
  -12    7    2     -0.26      0.00
  -11    7    2      1.25      0.00
  -10    7    2     -0.51      0.00
   -9    7    2      0.43      0.00
   -8    7    2      0.23      0.00
   -7    7    2     -0.15      0.00
   -6    7    2      0.01      0.00
   -5    7    2     -0.04      0.00
   -4    7    2     -0.19      0.00
   -3    7    2     -0.32      0.00
   -2    7    2      0.38      0.00
   -1    7    2     -0.02      0.00
    0    7    2      0.01      0.00
    1    7    2      0.02      0.00
    2    7    2      0.23      0.00
    3    7    2     -0.17      0.00
    4    7    2     -0.02      0.00
    5    7    2      0.06      0.00
    6    7    2      0.03      0.00
    7    7    2      0.00      0.00
    8    7    2     -0.20      0.00
    9    7    2     -0.10      0.00
   10    7    2      0.09      0.00
   11    7    2      0.22      0.00
  -17    8    2     -0.30      0.00
  -16    8    2     -0.01      0.00
  -15    8    2     -0.42      0.00
  -14    8    2      0.33      0.00
  -13    8    2     -0.40      0.00
  -12    8    2     -0.37      0.00
  -11    8    2     -0.18      0.00
  -10    8    2     -0.41      0.00
   -9    8    2     -0.17      0.00
   -8    8    2      0.07      0.00
   -7    8    2     -0.13      0.00
   -6    8    2     -0.11      0.00
   -5    8    2      0.08      0.00
   -4    8    2      0.41      0.00
   -3    8    2     -0.11      0.00
   -2    8    2      0.26      0.00
   -1    8    2     -0.07      0.00
    0    8    2     -0.31      0.00
    1    8    2      0.42      0.00
    2    8    2     -0.10      0.00
    3    8    2      0.28      0.00
    4    8    2     -0.03      0.00
    5    8    2      0.11      0.00
    6    8    2     -0.06      0.00
    7    8    2     -0.23      0.00
    8    8    2      0.56      0.00
    9    8    2     -0.14      0.00
   10    8    2     -0.22      0.00
  -17    9    2      0.07      0.00
  -16    9    2      0.19      0.00
  -15    9    2     -0.41      0.00
  -14    9    2      0.40      0.00
  -13    9    2     -0.41      0.00
  -12    9    2      0.26      0.00
  -11    9    2      0.17      0.00
  -10    9    2     -0.06      0.00
   -9    9    2      0.19      0.00
   -8    9    2      0.09      0.00
   -7    9    2      0.24      0.00
   -6    9    2      0.15      0.00
   -5    9    2      0.01      0.00
   -4    9    2     -0.01      0.00
   -3    9    2      0.04      0.00
   -2    9    2      0.19      0.00
   -1    9    2     -0.08      0.00
    0    9    2     -0.04      0.00
    1    9    2      0.18      0.00
    3    9    2      0.06      0.00
    4    9    2     -0.03      0.00
    5    9    2      0.24      0.00
    6    9    2      0.27      0.00
    7    9    2     -0.52      0.00
    8    9    2      0.48      0.00
    9    9    2     -0.17      0.00
  -16   10    2      0.08      0.00
  -15   10    2      0.06      0.00
  -14   10    2      0.17      0.00
  -13   10    2     -0.14      0.00
  -12   10    2     -0.02      0.00
  -11   10    2      0.06      0.00
  -10   10    2     -0.37      0.00
   -9   10    2      0.07      0.00
   -8   10    2     -0.51      0.00
   -7   10    2     -0.12      0.00
   -6   10    2      0.23      0.00
   -5   10    2     -0.36      0.00
   -4   10    2      0.04      0.00
   -3   10    2     -0.24      0.00
   -2   10    2     -0.13      0.00
   -1   10    2     -0.01      0.00
    0   10    2     -0.24      0.00
    1   10    2     -0.23      0.00
    3   10    2     -0.14      0.00
    4   10    2     -0.18      0.00
    5   10    2      0.26      0.00
    6   10    2      0.16      0.00
    7   10    2     -0.19      0.00
    8   10    2      0.23      0.00
  -16   11    2     -0.23      0.00
  -15   11    2      0.05      0.00
  -14   11    2     -0.09      0.00
  -13   11    2      0.10      0.00
  -12   11    2      0.08      0.00
  -11   11    2     -0.33      0.00
  -10   11    2      0.30      0.00
   -9   11    2      0.02      0.00
   -8   11    2     -0.09      0.00
   -7   11    2      0.21      0.00
   -6   11    2     -0.38      0.00
   -5   11    2     -0.01      0.00
   -4   11    2      0.35      0.00
   -3   11    2     -0.26      0.00
   -2   11    2      0.13      0.00
   -1   11    2      0.15      0.00
    0   11    2      0.00      0.00
    1   11    2     -0.12      0.00
    2   11    2      0.29      0.00
    3   11    2      0.00      0.00
    4   11    2     -0.36      0.00
    5   11    2      0.15      0.00
    6   11    2     -0.32      0.00
  -15   12    2      0.11      0.00
  -14   12    2     -0.19      0.00
  -13   12    2      0.13      0.00
  -12   12    2      0.07      0.00
  -11   12    2      0.29      0.00
  -10   12    2      0.10      0.00
   -9   12    2      0.07      0.00
   -8   12    2     -0.18      0.00
   -7   12    2      0.44      0.00
   -6   12    2     -0.19      0.00
   -5   12    2     -0.18      0.00
   -4   12    2      0.13      0.00
   -3   12    2     -0.13      0.00
   -2   12    2      0.06      0.00
   -1   12    2      0.17      0.00
    0   12    2      0.13      0.00
    1   12    2      0.25      0.00
    2   12    2      0.11      0.00
    3   12    2     -0.01      0.00
    4   12    2      0.09      0.00
    5   12    2     -0.06      0.00
  -15   13    2      0.16      0.00
  -14   13    2      0.14      0.00
  -13   13    2      0.04      0.00
  -12   13    2     -0.07      0.00
  -11   13    2      0.32      0.00
  -10   13    2     -0.17      0.00
   -9   13    2      0.20      0.00
   -8   13    2     -0.45      0.00
   -7   13    2      0.30      0.00
   -6   13    2     -0.07      0.00
   -5   13    2     -0.21      0.00
   -4   13    2      0.02      0.00
   -3   13    2     -0.08      0.00
   -2   13    2     -0.23      0.00
   -1   13    2      0.00      0.00
    0   13    2     -0.05      0.00
    1   13    2     -0.72      0.00
    2   13    2      0.14      0.00
    3   13    2     -0.25      0.00
  -13   14    2     -0.07      0.00
  -12   14    2     -0.71      0.00
  -11   14    2      0.01      0.00
  -10   14    2     -0.20      0.00
   -9   14    2      0.28      0.00
   -8   14    2     -0.10      0.00
   -7   14    2      0.25      0.00
   -6   14    2      0.36      0.00
   -5   14    2      0.04      0.00
   -4   14    2      0.57      0.00
   -3   14    2     -0.14      0.00
   -2   14    2     -0.14      0.00
   -1   14    2      0.14      0.00
    0   14    2     -0.30      0.00
    1   14    2     -0.05      0.00
  -12   15    2      0.02      0.00
  -11   15    2      0.00      0.00
  -10   15    2      0.07      0.00
   -9   15    2     -0.28      0.00
   -8   15    2     -0.03      0.00
   -7   15    2     -0.13      0.00
   -6   15    2     -0.40      0.00
   -5   15    2     -0.01      0.00
   -4   15    2     -0.21      0.00
   -3   15    2      0.06      0.00
   -2   15    2     -0.07      0.00
   -1   15    2      0.31      0.00
   -8   16    2      0.39      0.00
   -7   16    2     -0.12      0.00
   -6   16    2     -0.03      0.00
    3  -17    3     -0.05      0.00
    4  -17    3      0.21      0.00
    5  -17    3      0.02      0.00
    6  -17    3      0.34      0.00
    7  -17    3     -0.13      0.00
    8  -17    3     -0.09      0.00
    9  -17    3     -0.17      0.00
   -1  -16    3     -0.06      0.00
    0  -16    3      0.07      0.00
    1  -16    3      0.11      0.00
    2  -16    3      0.35      0.00
    3  -16    3      0.23      0.00
    4  -16    3      0.02      0.00
    5  -16    3     -0.44      0.00
    6  -16    3      0.21      0.00
    7  -16    3     -0.16      0.00
    8  -16    3     -0.11      0.00
    9  -16    3     -0.15      0.00
   10  -16    3      0.16      0.00
   11  -16    3     -0.01      0.00
   12  -16    3      0.07      0.00
   -3  -15    3      0.14      0.00
   -2  -15    3     -0.32      0.00
   -1  -15    3      0.14      0.00
    0  -15    3      0.10      0.00
    1  -15    3     -0.30      0.00
    2  -15    3      0.04      0.00
    3  -15    3     -0.26      0.00
    4  -15    3     -0.07      0.00
    5  -15    3     -0.02      0.00
    6  -15    3     -0.01      0.00
    7  -15    3     -0.19      0.00
    8  -15    3     -0.02      0.00
    9  -15    3      0.06      0.00
   10  -15    3     -0.03      0.00
   11  -15    3      0.20      0.00
   12  -15    3      0.48      0.00
   13  -15    3     -0.37      0.00
   -5  -14    3     -0.17      0.00
   -4  -14    3      0.01      0.00
   -3  -14    3     -0.18      0.00
   -2  -14    3      0.09      0.00
   -1  -14    3     -0.11      0.00
    0  -14    3     -0.10      0.00
    1  -14    3     -0.30      0.00
    2  -14    3      0.29      0.00
    3  -14    3      0.06      0.00
    4  -14    3     -0.22      0.00
    5  -14    3      0.02      0.00
    6  -14    3      0.13      0.00
    7  -14    3     -0.42      0.00
    8  -14    3      0.76      0.00
    9  -14    3     -0.17      0.00
   10  -14    3      0.01      0.00
   11  -14    3     -0.09      0.00
   12  -14    3     -0.02      0.00
   13  -14    3     -0.31      0.00
   14  -14    3     -0.25      0.00
   -6  -13    3     -0.08      0.00
   -5  -13    3     -0.04      0.00
   -4  -13    3      0.35      0.00
   -3  -13    3     -0.17      0.00
   -2  -13    3     -0.17      0.00
   -1  -13    3      0.21      0.00
    0  -13    3      0.16      0.00
    1  -13    3     -0.16      0.00
    2  -13    3     -0.08      0.00
    3  -13    3      0.27      0.00
    4  -13    3     -0.14      0.00
    5  -13    3      0.18      0.00
    6  -13    3      0.50      0.00
    7  -13    3     -0.34      0.00
    8  -13    3      0.24      0.00
    9  -13    3     -0.24      0.00
   10  -13    3      0.08      0.00
   11  -13    3     -0.09      0.00
   12  -13    3     -0.18      0.00
   13  -13    3      0.07      0.00
   14  -13    3      0.18      0.00
   15  -13    3      0.04      0.00
   -8  -12    3     -0.07      0.00
   -7  -12    3      0.05      0.00
   -6  -12    3      0.25      0.00
   -5  -12    3     -0.14      0.00
   -4  -12    3     -0.07      0.00
   -3  -12    3      0.46      0.00
   -2  -12    3     -0.19      0.00
   -1  -12    3      0.27      0.00
    0  -12    3      0.07      0.00
    1  -12    3     -0.05      0.00
    2  -12    3      0.22      0.00
    3  -12    3     -0.15      0.00
    4  -12    3      0.13      0.00
    5  -12    3     -0.01      0.00
    6  -12    3     -0.11      0.00
    7  -12    3      0.19      0.00
    8  -12    3     -0.17      0.00
    9  -12    3     -0.07      0.00
   10  -12    3     -0.03      0.00
   11  -12    3     -0.22      0.00
   12  -12    3      0.47      0.00
   13  -12    3      0.04      0.00
   14  -12    3      0.08      0.00
   15  -12    3      0.13      0.00
   -9  -11    3      0.00      0.00
   -8  -11    3     -0.34      0.00
   -7  -11    3      0.20      0.00
   -6  -11    3     -0.12      0.00
   -5  -11    3      0.15      0.00
   -4  -11    3      0.10      0.00
   -3  -11    3     -0.04      0.00
   -2  -11    3     -0.12      0.00
   -1  -11    3     -0.05      0.00
    0  -11    3     -0.18      0.00
    1  -11    3      0.11      0.00
    2  -11    3      0.00      0.00
    3  -11    3     -0.23      0.00
    4  -11    3      0.32      0.00
    5  -11    3     -0.14      0.00
    6  -11    3     -0.10      0.00
    7  -11    3      0.24      0.00
    8  -11    3     -0.30      0.00
    9  -11    3      0.04      0.00
   10  -11    3      0.34      0.00
   11  -11    3      0.01      0.00
   12  -11    3      0.01      0.00
   13  -11    3     -0.12      0.00
   14  -11    3      0.02      0.00
   15  -11    3     -0.02      0.00
   16  -11    3      0.14      0.00
  -10  -10    3     -0.21      0.00
   -9  -10    3      0.21      0.00
   -8  -10    3      0.14      0.00
   -7  -10    3      0.14      0.00
   -6  -10    3      0.04      0.00
   -5  -10    3     -0.04      0.00
   -4  -10    3      0.03      0.00
   -3  -10    3     -0.22      0.00
   -2  -10    3      0.03      0.00
   -1  -10    3     -0.02      0.00
    0  -10    3     -0.38      0.00
    1  -10    3      0.11      0.00
    2  -10    3     -0.03      0.00
    3  -10    3      0.26      0.00
    4  -10    3     -0.31      0.00
    5  -10    3     -0.17      0.00
    6  -10    3     -0.09      0.00
    7  -10    3     -0.02      0.00
    8  -10    3     -0.27      0.00
    9  -10    3      0.29      0.00
   10  -10    3     -0.78      0.00
   11  -10    3      0.13      0.00
   12  -10    3     -0.44      0.00
   13  -10    3      0.07      0.00
   14  -10    3     -0.28      0.00
   15  -10    3     -0.02      0.00
   16  -10    3     -0.32      0.00
  -11   -9    3      0.32      0.00
  -10   -9    3     -0.03      0.00
   -9   -9    3     -0.11      0.00
   -8   -9    3     -0.04      0.00
   -7   -9    3     -0.03      0.00
   -6   -9    3     -0.23      0.00
   -5   -9    3      0.05      0.00
   -4   -9    3      0.20      0.00
   -3   -9    3      0.06      0.00
   -2   -9    3      0.15      0.00
   -1   -9    3      0.29      0.00
    0   -9    3      0.05      0.00
    1   -9    3     -0.15      0.00
    2   -9    3     -0.36      0.00
    3   -9    3     -0.03      0.00
    4   -9    3     -0.13      0.00
    5   -9    3     -0.14      0.00
    6   -9    3     -0.20      0.00
    7   -9    3      0.34      0.00
    8   -9    3     -0.10      0.00
    9   -9    3      0.15      0.00
   10   -9    3      0.32      0.00
   11   -9    3     -0.05      0.00
   12   -9    3      0.15      0.00
   13   -9    3      0.15      0.00
   14   -9    3     -0.27      0.00
   15   -9    3      0.16      0.00
   16   -9    3      0.48      0.00
  -12   -8    3      0.08      0.00
  -11   -8    3     -0.16      0.00
  -10   -8    3      0.08      0.00
   -9   -8    3     -0.29      0.00
   -8   -8    3     -0.31      0.00
   -7   -8    3      0.27      0.00
   -6   -8    3     -0.30      0.00
   -5   -8    3     -0.02      0.00
   -4   -8    3      0.04      0.00
   -3   -8    3     -0.32      0.00
   -2   -8    3     -0.26      0.00
   -1   -8    3      0.16      0.00
    0   -8    3      0.11      0.00
    1   -8    3     -0.48      0.00
    2   -8    3      0.08      0.00
    3   -8    3     -0.04      0.00
    4   -8    3     -0.09      0.00
    5   -8    3      0.06      0.00
    6   -8    3      0.14      0.00
    7   -8    3     -0.01      0.00
    8   -8    3     -0.07      0.00
    9   -8    3      0.05      0.00
   10   -8    3      0.22      0.00
   11   -8    3     -0.05      0.00
   12   -8    3     -0.07      0.00
   13   -8    3      0.32      0.00
   14   -8    3     -0.36      0.00
   15   -8    3      0.06      0.00
   16   -8    3      0.38      0.00
  -13   -7    3      0.10      0.00
  -12   -7    3     -0.18      0.00
  -11   -7    3      0.36      0.00
  -10   -7    3     -0.22      0.00
   -9   -7    3      0.36      0.00
   -8   -7    3     -0.10      0.00
   -7   -7    3      0.42      0.00
   -6   -7    3     -0.38      0.00
   -5   -7    3     -0.13      0.00
   -4   -7    3      0.36      0.00
   -3   -7    3     -0.05      0.00
   -2   -7    3      0.13      0.00
   -1   -7    3     -0.36      0.00
    0   -7    3      0.91      0.00
    1   -7    3      0.15      0.00
    2   -7    3     -0.14      0.00
    3   -7    3      0.91      0.00
    4   -7    3      0.12      0.00
    5   -7    3     -0.10      0.00
    6   -7    3      0.67      0.00
    7   -7    3     -0.46      0.00
    8   -7    3      0.34      0.00
    9   -7    3     -0.39      0.00
   10   -7    3     -0.04      0.00
   11   -7    3      0.11      0.00
   12   -7    3     -0.19      0.00
   13   -7    3      0.29      0.00
   14   -7    3     -0.39      0.00
   15   -7    3      0.39      0.00
   16   -7    3     -0.53      0.00
   17   -7    3      0.09      0.00
  -13   -6    3     -0.36      0.00
  -12   -6    3      0.09      0.00
  -11   -6    3      0.16      0.00
  -10   -6    3     -0.07      0.00
   -9   -6    3      0.12      0.00
   -8   -6    3     -0.11      0.00
   -7   -6    3      0.13      0.00
   -6   -6    3      0.08      0.00
   -5   -6    3      0.00      0.00
   -4   -6    3     -0.06      0.00
   -3   -6    3      0.43      0.00
   -2   -6    3     -0.52      0.00
   -1   -6    3      0.14      0.00
    0   -6    3      0.44      0.00
    1   -6    3     -0.53      0.00
    2   -6    3      0.26      0.00
    3   -6    3      0.47      0.00
    4   -6    3     -0.48      0.00
    5   -6    3      0.16      0.00
    6   -6    3     -0.18      0.00
    7   -6    3      0.13      0.00
    8   -6    3      0.19      0.00
    9   -6    3     -0.15      0.00
   10   -6    3      0.23      0.00
   11   -6    3     -0.03      0.00
   12   -6    3      0.43      0.00
   13   -6    3     -0.11      0.00
   14   -6    3      0.13      0.00
   15   -6    3      0.27      0.00
   16   -6    3     -0.13      0.00
   17   -6    3     -0.23      0.00
  -14   -5    3      0.26      0.00
  -13   -5    3     -0.30      0.00
  -12   -5    3      0.05      0.00
  -11   -5    3      0.02      0.00
  -10   -5    3     -0.04      0.00
   -9   -5    3      0.04      0.00
   -8   -5    3     -0.16      0.00
   -7   -5    3      0.13      0.00
   -6   -5    3      0.23      0.00
   -5   -5    3     -0.40      0.00
   -4   -5    3      0.24      0.00
   -3   -5    3      0.43      0.00
   -1   -5    3      0.26      0.00
    0   -5    3     -0.45      0.00
    1   -5    3      0.42      0.00
    2   -5    3     -0.52      0.00
    3   -5    3     -0.26      0.00
    4   -5    3      0.07      0.00
    5   -5    3     -0.12      0.00
    6   -5    3     -0.35      0.00
    7   -5    3      0.47      0.00
    8   -5    3     -0.05      0.00
    9   -5    3      0.00      0.00
   10   -5    3     -0.14      0.00
   11   -5    3     -0.25      0.00
   12   -5    3     -0.01      0.00
   13   -5    3     -0.17      0.00
   14   -5    3      0.00      0.00
   15   -5    3     -0.18      0.00
   16   -5    3      0.03      0.00
  -15   -4    3     -0.08      0.00
  -14   -4    3     -0.20      0.00
  -13   -4    3      0.06      0.00
  -12   -4    3      0.01      0.00
  -11   -4    3      0.10      0.00
  -10   -4    3     -0.04      0.00
   -9   -4    3     -0.51      0.00
   -8   -4    3      0.24      0.00
   -7   -4    3     -0.12      0.00
   -6   -4    3     -0.04      0.00
   -5   -4    3     -0.39      0.00
   -4   -4    3      0.40      0.00
   -3   -4    3     -0.31      0.00
   -2   -4    3      0.06      0.00
   -1   -4    3      0.36      0.00
    0   -4    3     -0.04      0.00
    1   -4    3      0.18      0.00
    3   -4    3      1.11      0.00
    4   -4    3      0.08      0.00
    5   -4    3     -0.08      0.00
    6   -4    3     -0.13      0.00
    7   -4    3      0.23      0.00
    8   -4    3     -0.55      0.00
    9   -4    3      0.43      0.00
   10   -4    3     -0.12      0.00
   11   -4    3     -0.09      0.00
   12   -4    3      0.02      0.00
   13   -4    3     -0.34      0.00
   14   -4    3      0.01      0.00
   15   -4    3      0.22      0.00
   16   -4    3      0.54      0.00
  -15   -3    3      0.61      0.00
  -14   -3    3     -0.21      0.00
  -13   -3    3      0.16      0.00
  -12   -3    3     -0.28      0.00
  -11   -3    3     -0.35      0.00
  -10   -3    3      0.94      0.00
   -9   -3    3     -0.32      0.00
   -8   -3    3      0.23      0.00
   -7   -3    3      0.45      0.00
   -6   -3    3     -0.24      0.00
   -5   -3    3     -0.24      0.00
   -4   -3    3      0.45      0.00
   -3   -3    3     -0.43      0.00
   -2   -3    3      0.25      0.00
    0   -3    3      0.44      0.00
    1   -3    3     -0.17      0.00
    2   -3    3     -0.62      0.00
    3   -3    3     -0.65      0.00
    4   -3    3      0.33      0.00
    5   -3    3     -0.30      0.00
    6   -3    3     -0.27      0.00
    7   -3    3     -0.22      0.00
    8   -3    3     -0.12      0.00
    9   -3    3      0.03      0.00
   10   -3    3      0.03      0.00
   11   -3    3     -0.32      0.00
   12   -3    3      0.48      0.00
   13   -3    3     -0.10      0.00
   14   -3    3      0.00      0.00
   15   -3    3     -0.45      0.00
   16   -3    3      0.05      0.00
  -16   -2    3      0.05      0.00
  -15   -2    3     -0.23      0.00
  -14   -2    3     -0.06      0.00
  -13   -2    3      0.04      0.00
  -12   -2    3     -0.04      0.00
  -11   -2    3     -0.09      0.00
  -10   -2    3     -0.02      0.00
   -9   -2    3     -0.34      0.00
   -8   -2    3     -0.38      0.00
   -7   -2    3      0.24      0.00
   -6   -2    3      0.09      0.00
   -5   -2    3     -0.13      0.00
   -4   -2    3      0.00      0.00
   -3   -2    3      0.13      0.00
   -2   -2    3     -0.46      0.00
   -1   -2    3     -0.47      0.00
    0   -2    3     -0.02      0.00
    1   -2    3     -0.45      0.00
    2   -2    3      0.36      0.00
    3   -2    3     -0.35      0.00
    4   -2    3     -0.22      0.00
    5   -2    3      0.14      0.00
    6   -2    3      0.27      0.00
    7   -2    3     -0.03      0.00
    8   -2    3      0.01      0.00
    9   -2    3      0.06      0.00
   10   -2    3      0.06      0.00
   11   -2    3      0.24      0.00
   12   -2    3      0.25      0.00
   13   -2    3     -0.09      0.00
   14   -2    3      0.47      0.00
   15   -2    3      0.14      0.00
   16   -2    3     -0.11      0.00
  -16   -1    3     -0.24      0.00
  -15   -1    3      0.37      0.00
  -14   -1    3     -0.17      0.00
  -13   -1    3      0.05      0.00
  -12   -1    3      0.26      0.00
  -11   -1    3     -0.10      0.00
  -10   -1    3      0.28      0.00
   -9   -1    3      0.05      0.00
   -8   -1    3     -0.13      0.00
   -7   -1    3      0.19      0.00
   -6   -1    3     -0.61      0.00
   -5   -1    3     -0.03      0.00
   -4   -1    3     -0.09      0.00
   -3   -1    3      0.08      0.00
   -2   -1    3      0.44      0.00
   -1   -1    3     -1.52      0.00
    0   -1    3      3.40      0.00
    2   -1    3      0.38      0.00
    3   -1    3      0.65      0.00
    4   -1    3     -0.09      0.00
    5   -1    3      0.19      0.00
    6   -1    3      0.38      0.00
    7   -1    3     -0.13      0.00
    8   -1    3      0.27      0.00
    9   -1    3     -0.08      0.00
   10   -1    3      0.00      0.00
   11   -1    3     -0.04      0.00
   12   -1    3     -0.01      0.00
   13   -1    3     -0.14      0.00
   14   -1    3     -0.46      0.00
   15   -1    3      0.41      0.00
  -16    0    3      0.16      0.00
  -15    0    3      0.34      0.00
  -14    0    3     -0.12      0.00
  -13    0    3      0.22      0.00
  -12    0    3     -0.37      0.00
  -11    0    3      0.09      0.00
  -10    0    3      0.08      0.00
   -9    0    3     -0.41      0.00
   -8    0    3      0.50      0.00
   -7    0    3      0.03      0.00
   -6    0    3      0.10      0.00
   -5    0    3      0.02      0.00
   -4    0    3      0.38      0.00
   -3    0    3     -0.55      0.00
   -2    0    3      1.74      0.00
   -1    0    3     -2.38      0.00
    0    0    3     -0.30      0.00
    1    0    3     -0.03      0.00
    2    0    3      0.41      0.00
    3    0    3     -0.01      0.00
    4    0    3     -0.06      0.00
    5    0    3     -0.12      0.00
    6    0    3     -0.04      0.00
    7    0    3     -0.09      0.00
    8    0    3      0.15      0.00
    9    0    3     -0.12      0.00
   10    0    3     -0.06      0.00
   11    0    3     -0.02      0.00
   12    0    3      0.06      0.00
   13    0    3      0.07      0.00
   14    0    3     -0.05      0.00
   15    0    3      0.44      0.00
  -17    1    3      0.27      0.00
  -16    1    3     -0.55      0.00
  -15    1    3     -0.03      0.00
  -14    1    3      0.26      0.00
  -13    1    3     -0.17      0.00
  -12    1    3     -0.38      0.00
  -11    1    3      0.51      0.00
  -10    1    3     -0.14      0.00
   -9    1    3     -0.48      0.00
   -8    1    3      0.51      0.00
   -7    1    3     -0.05      0.00
   -6    1    3      0.16      0.00
   -5    1    3      0.58      0.00
   -2    1    3      0.07      0.00
   -1    1    3      0.41      0.00
    0    1    3      0.67      0.00
    1    1    3     -0.62      0.00
    2    1    3     -0.36      0.00
    3    1    3      0.09      0.00
    4    1    3     -0.15      0.00
    5    1    3      0.20      0.00
    6    1    3     -0.21      0.00
    7    1    3     -0.18      0.00
    8    1    3      0.45      0.00
    9    1    3     -0.24      0.00
   10    1    3     -0.18      0.00
   11    1    3      0.02      0.00
   12    1    3      0.01      0.00
   13    1    3     -0.29      0.00
   14    1    3      0.11      0.00
  -17    2    3     -0.13      0.00
  -16    2    3      0.12      0.00
  -15    2    3     -0.06      0.00
  -14    2    3      0.03      0.00
  -13    2    3      0.28      0.00
  -12    2    3     -0.04      0.00
  -11    2    3      0.11      0.00
  -10    2    3      0.12      0.00
   -9    2    3      0.18      0.00
   -8    2    3     -0.28      0.00
   -7    2    3     -0.33      0.00
   -6    2    3      0.27      0.00
   -5    2    3      0.75      0.00
   -4    2    3     -0.70      0.00
   -3    2    3      0.14      0.00
   -2    2    3     -0.53      0.00
   -1    2    3     -0.47      0.00
    0    2    3      0.98      0.00
    1    2    3     -0.87      0.00
    2    2    3      0.58      0.00
    3    2    3     -0.32      0.00
    4    2    3      0.09      0.00
    5    2    3      0.21      0.00
    6    2    3      0.13      0.00
    7    2    3     -0.04      0.00
    8    2    3      0.13      0.00
    9    2    3     -0.02      0.00
   10    2    3      0.00      0.00
   11    2    3      0.10      0.00
   12    2    3      0.28      0.00
   13    2    3     -0.08      0.00
   14    2    3     -0.15      0.00
  -17    3    3      0.00      0.00
  -16    3    3      0.12      0.00
  -15    3    3      0.09      0.00
  -14    3    3     -0.10      0.00
  -13    3    3      0.12      0.00
  -12    3    3     -0.11      0.00
  -11    3    3      0.04      0.00
  -10    3    3     -0.10      0.00
   -9    3    3      0.11      0.00
   -8    3    3     -0.14      0.00
   -7    3    3     -0.17      0.00
   -6    3    3     -0.03      0.00
   -5    3    3      0.04      0.00
   -4    3    3      0.05      0.00
   -3    3    3     -0.04      0.00
   -2    3    3      0.12      0.00
   -1    3    3      0.34      0.00
    0    3    3     -0.52      0.00
    1    3    3      0.41      0.00
    2    3    3      0.40      0.00
    3    3    3     -0.44      0.00
    4    3    3      0.09      0.00
    5    3    3      0.19      0.00
    6    3    3     -0.52      0.00
    7    3    3     -0.07      0.00
    8    3    3      0.05      0.00
    9    3    3     -0.17      0.00
   10    3    3      0.09      0.00
   11    3    3     -0.40      0.00
   12    3    3      0.15      0.00
   13    3    3     -0.24      0.00
  -17    4    3      0.21      0.00
  -16    4    3     -0.22      0.00
  -15    4    3     -0.20      0.00
  -14    4    3     -0.09      0.00
  -13    4    3     -0.09      0.00
  -12    4    3     -0.13      0.00
  -11    4    3      0.31      0.00
  -10    4    3     -0.26      0.00
   -9    4    3      0.36      0.00
   -8    4    3     -0.20      0.00
   -7    4    3      0.49      0.00
   -6    4    3     -0.02      0.00
   -5    4    3     -0.57      0.00
   -4    4    3      0.42      0.00
   -3    4    3     -0.25      0.00
   -2    4    3      0.07      0.00
   -1    4    3     -0.04      0.00
    0    4    3     -0.27      0.00
    1    4    3      0.16      0.00
    2    4    3     -0.28      0.00
    3    4    3     -0.29      0.00
    4    4    3      0.07      0.00
    5    4    3     -0.06      0.00
    6    4    3     -0.24      0.00
    7    4    3      0.00      0.00
    8    4    3      0.26      0.00
    9    4    3     -0.13      0.00
   10    4    3      0.03      0.00
   11    4    3      0.28      0.00
   12    4    3      0.09      0.00
   13    4    3      0.02      0.00
  -17    5    3      0.35      0.00
  -16    5    3     -0.57      0.00
  -15    5    3      0.37      0.00
  -14    5    3      0.05      0.00
  -13    5    3      0.20      0.00
  -12    5    3     -0.64      0.00
  -11    5    3      0.18      0.00
  -10    5    3      0.05      0.00
   -9    5    3     -0.47      0.00
   -8    5    3      0.42      0.00
   -7    5    3     -1.27      0.00
   -6    5    3      0.63      0.00
   -5    5    3     -0.40      0.00
   -4    5    3      0.28      0.00
   -3    5    3     -0.39      0.00
   -2    5    3      0.17      0.00
   -1    5    3     -0.38      0.00
    0    5    3     -0.11      0.00
    1    5    3      0.28      0.00
    2    5    3      0.03      0.00
    3    5    3     -0.25      0.00
    4    5    3      0.20      0.00
    5    5    3      0.10      0.00
    6    5    3     -0.07      0.00
    7    5    3     -0.10      0.00
    8    5    3      0.27      0.00
    9    5    3      0.18      0.00
   10    5    3     -0.17      0.00
   11    5    3     -0.10      0.00
   12    5    3     -0.08      0.00
  -17    6    3      0.69      0.00
  -16    6    3     -0.22      0.00
  -15    6    3      0.14      0.00
  -14    6    3     -0.02      0.00
  -13    6    3      0.43      0.00
  -12    6    3     -0.26      0.00
  -11    6    3      0.80      0.00
  -10    6    3     -0.19      0.00
   -9    6    3      0.21      0.00
   -8    6    3      0.38      0.00
   -6    6    3      0.32      0.00
   -5    6    3     -0.30      0.00
   -4    6    3     -0.06      0.00
   -3    6    3     -0.49      0.00
   -2    6    3      0.58      0.00
   -1    6    3      0.07      0.00
    0    6    3     -0.40      0.00
    1    6    3      0.35      0.00
    2    6    3      0.09      0.00
    3    6    3     -0.22      0.00
    4    6    3     -0.02      0.00
    5    6    3      0.10      0.00
    6    6    3      0.18      0.00
    7    6    3     -0.23      0.00
    8    6    3      0.03      0.00
    9    6    3     -0.18      0.00
   10    6    3     -0.27      0.00
   11    6    3      0.32      0.00
  -17    7    3     -0.14      0.00
  -16    7    3     -0.12      0.00
  -15    7    3     -0.25      0.00
  -14    7    3      0.24      0.00
  -13    7    3     -0.11      0.00
  -12    7    3     -0.25      0.00
  -11    7    3     -0.30      0.00
  -10    7    3     -0.20      0.00
   -9    7    3      0.21      0.00
   -8    7    3     -0.23      0.00
   -7    7    3     -0.16      0.00
   -6    7    3      0.13      0.00
   -5    7    3     -0.05      0.00
   -4    7    3      0.43      0.00
   -3    7    3     -0.06      0.00
   -2    7    3      0.40      0.00
   -1    7    3     -0.04      0.00
    0    7    3     -0.15      0.00
    1    7    3      0.43      0.00
    2    7    3     -0.02      0.00
    3    7    3      0.20      0.00
    4    7    3      0.23      0.00
    5    7    3      0.08      0.00
    6    7    3     -0.05      0.00
    7    7    3     -0.43      0.00
    8    7    3      0.46      0.00
    9    7    3      0.06      0.00
   10    7    3     -0.11      0.00
  -17    8    3     -0.28      0.00
  -16    8    3      0.27      0.00
  -15    8    3     -0.22      0.00
  -14    8    3     -0.21      0.00
  -13    8    3     -0.10      0.00
  -12    8    3      0.05      0.00
  -11    8    3      0.12      0.00
  -10    8    3     -0.17      0.00
   -9    8    3      0.01      0.00
   -8    8    3      0.12      0.00
   -7    8    3     -0.25      0.00
   -6    8    3      0.49      0.00
   -5    8    3      0.07      0.00
   -4    8    3     -0.25      0.00
   -3    8    3     -0.02      0.00
   -2    8    3      0.14      0.00
   -1    8    3     -0.14      0.00
    0    8    3      0.18      0.00
    1    8    3     -0.16      0.00
    2    8    3     -0.03      0.00
    3    8    3     -0.07      0.00
    4    8    3     -0.14      0.00
    5    8    3      0.16      0.00
    6    8    3      0.35      0.00
    7    8    3     -0.45      0.00
    8    8    3      0.16      0.00
    9    8    3      0.13      0.00
  -17    9    3     -0.32      0.00
  -16    9    3      0.13      0.00
  -15    9    3      0.28      0.00
  -14    9    3     -0.15      0.00
  -13    9    3      0.11      0.00
  -12    9    3     -0.04      0.00
  -11    9    3     -0.04      0.00
  -10    9    3     -0.18      0.00
   -9    9    3      0.16      0.00
   -8    9    3     -0.41      0.00
   -7    9    3     -0.04      0.00
   -6    9    3     -0.04      0.00
   -5    9    3     -0.01      0.00
   -3    9    3      0.01      0.00
   -2    9    3     -0.19      0.00
   -1    9    3      0.18      0.00
    0    9    3     -0.19      0.00
    1    9    3     -0.19      0.00
    3    9    3     -0.16      0.00
    4    9    3     -0.09      0.00
    5    9    3      0.14      0.00
    6    9    3      0.16      0.00
    7    9    3     -0.03      0.00
    8    9    3      0.16      0.00
  -16   10    3     -0.25      0.00
  -15   10    3      0.17      0.00
  -14   10    3     -0.07      0.00
  -13   10    3      0.17      0.00
  -12   10    3     -0.03      0.00
  -11   10    3     -0.09      0.00
  -10   10    3      0.11      0.00
   -9   10    3      0.12      0.00
   -8   10    3     -0.11      0.00
   -7   10    3      0.35      0.00
   -6   10    3     -0.50      0.00
   -5   10    3      0.10      0.00
   -4   10    3      0.06      0.00
   -3   10    3     -0.19      0.00
   -2   10    3     -0.06      0.00
   -1   10    3      0.23      0.00
    0   10    3     -0.28      0.00
    1   10    3     -0.03      0.00
    3   10    3     -0.30      0.00
    4   10    3      0.04      0.00
    5   10    3     -0.02      0.00
    6   10    3     -0.12      0.00
    7   10    3     -0.08      0.00
  -16   11    3      0.26      0.00
  -15   11    3     -0.04      0.00
  -14   11    3      0.09      0.00
  -13   11    3      0.08      0.00
  -12   11    3      0.11      0.00
  -11   11    3      0.07      0.00
  -10   11    3      0.32      0.00
   -9   11    3     -0.17      0.00
   -8   11    3     -0.04      0.00
   -7   11    3      0.21      0.00
   -6   11    3     -0.02      0.00
   -5   11    3     -0.21      0.00
   -4   11    3      0.17      0.00
   -3   11    3     -0.10      0.00
   -2   11    3     -0.08      0.00
   -1   11    3      0.19      0.00
    0   11    3     -0.06      0.00
    1   11    3      0.27      0.00
    3   11    3      0.25      0.00
    4   11    3      0.11      0.00
    5   11    3     -0.23      0.00
    6   11    3      0.40      0.00
  -15   12    3     -0.01      0.00
  -14   12    3      0.10      0.00
  -13   12    3      0.03      0.00
  -12   12    3     -0.08      0.00
  -11   12    3     -0.03      0.00
  -10   12    3      0.16      0.00
   -9   12    3      0.09      0.00
   -8   12    3     -0.13      0.00
   -7   12    3      0.06      0.00
   -6   12    3      0.00      0.00
   -5   12    3     -0.20      0.00
   -4   12    3      0.10      0.00
   -3   12    3     -0.24      0.00
   -2   12    3     -0.16      0.00
   -1   12    3      0.22      0.00
    0   12    3     -0.30      0.00
    1   12    3      0.03      0.00
    2   12    3     -0.24      0.00
    3   12    3     -0.20      0.00
    4   12    3     -0.20      0.00
  -14   13    3      0.08      0.00
  -13   13    3      0.08      0.00
  -12   13    3     -0.33      0.00
  -11   13    3      0.13      0.00
  -10   13    3     -0.17      0.00
   -9   13    3      0.05      0.00
   -8   13    3      0.48      0.00
   -7   13    3     -0.10      0.00
   -6   13    3      0.16      0.00
   -5   13    3      0.29      0.00
   -4   13    3      0.19      0.00
   -3   13    3      0.17      0.00
   -2   13    3     -0.13      0.00
   -1   13    3      0.06      0.00
    0   13    3     -0.39      0.00
    1   13    3     -0.02      0.00
    2   13    3      0.30      0.00
    3   13    3     -0.27      0.00
  -13   14    3      0.08      0.00
  -12   14    3     -0.09      0.00
  -11   14    3     -0.04      0.00
  -10   14    3     -0.02      0.00
   -9   14    3     -0.96      0.00
   -8   14    3      0.43      0.00
   -7   14    3     -0.18      0.00
   -6   14    3     -0.58      0.00
   -5   14    3      0.51      0.00
   -4   14    3     -0.61      0.00
   -3   14    3      0.23      0.00
   -2   14    3     -0.05      0.00
   -1   14    3      0.20      0.00
    0   14    3      0.06      0.00
  -11   15    3      0.28      0.00
  -10   15    3      0.35      0.00
   -9   15    3     -0.22      0.00
   -8   15    3      0.15      0.00
   -7   15    3      0.06      0.00
   -6   15    3     -0.32      0.00
   -5   15    3      0.39      0.00
   -4   15    3     -0.06      0.00
   -3   15    3      0.20      0.00
   -2   15    3      0.12      0.00
    2  -17    4      0.60      0.00
    3  -17    4      0.27      0.00
    4  -17    4     -0.06      0.00
    5  -17    4     -0.01      0.00
    6  -17    4      0.08      0.00
    7  -17    4     -0.20      0.00
    8  -17    4      0.08      0.00
    9  -17    4      0.09      0.00
   -1  -16    4      0.22      0.00
    0  -16    4      0.04      0.00
    1  -16    4     -0.47      0.00
    2  -16    4      0.21      0.00
    3  -16    4     -0.40      0.00
    4  -16    4      0.07      0.00
    5  -16    4      0.07      0.00
    6  -16    4     -0.30      0.00
    7  -16    4     -0.24      0.00
    8  -16    4     -0.17      0.00
    9  -16    4     -0.03      0.00
   10  -16    4     -0.01      0.00
   11  -16    4     -0.23      0.00
   12  -16    4      0.51      0.00
   -3  -15    4     -0.27      0.00
   -2  -15    4      0.12      0.00
   -1  -15    4      0.04      0.00
    0  -15    4     -0.21      0.00
    1  -15    4     -0.10      0.00
    2  -15    4      0.23      0.00
    3  -15    4     -0.25      0.00
    4  -15    4     -0.23      0.00
    5  -15    4      0.10      0.00
    6  -15    4      0.21      0.00
    7  -15    4     -0.11      0.00
    8  -15    4      0.46      0.00
    9  -15    4     -0.06      0.00
   10  -15    4      0.30      0.00
   11  -15    4     -0.20      0.00
   12  -15    4     -0.07      0.00
   13  -15    4     -0.23      0.00
   -5  -14    4     -0.01      0.00
   -4  -14    4      0.56      0.00
   -3  -14    4     -0.37      0.00
   -2  -14    4     -0.01      0.00
   -1  -14    4      0.16      0.00
    0  -14    4     -0.07      0.00
    1  -14    4     -0.06      0.00
    2  -14    4     -0.03      0.00
    3  -14    4      0.21      0.00
    4  -14    4     -0.07      0.00
    5  -14    4      0.05      0.00
    6  -14    4      0.36      0.00
    7  -14    4     -0.40      0.00
    8  -14    4      0.06      0.00
    9  -14    4     -0.06      0.00
   10  -14    4     -0.12      0.00
   11  -14    4     -0.08      0.00
   12  -14    4     -0.14      0.00
   13  -14    4     -0.15      0.00
   14  -14    4      0.08      0.00
   -7  -13    4     -0.10      0.00
   -6  -13    4      0.45      0.00
   -5  -13    4     -0.48      0.00
   -4  -13    4      0.12      0.00
   -3  -13    4      0.13      0.00
   -1  -13    4      0.05      0.00
    0  -13    4      0.10      0.00
    1  -13    4      0.06      0.00
    2  -13    4      0.26      0.00
    3  -13    4     -0.12      0.00
    4  -13    4     -0.01      0.00
    5  -13    4     -0.03      0.00
    6  -13    4     -0.04      0.00
    7  -13    4      0.19      0.00
    8  -13    4      0.10      0.00
    9  -13    4     -0.15      0.00
   10  -13    4      0.03      0.00
   11  -13    4     -0.36      0.00
   12  -13    4      0.60      0.00
   13  -13    4     -0.04      0.00
   14  -13    4     -0.01      0.00
   15  -13    4      0.39      0.00
   -8  -12    4     -0.14      0.00
   -7  -12    4     -0.16      0.00
   -6  -12    4      0.07      0.00
   -5  -12    4      0.33      0.00
   -4  -12    4      0.07      0.00
   -3  -12    4      0.00      0.00
   -2  -12    4      0.05      0.00
   -1  -12    4      0.05      0.00
    0  -12    4     -0.25      0.00
    1  -12    4      0.10      0.00
    2  -12    4     -0.02      0.00
    3  -12    4     -0.20      0.00
    4  -12    4      0.55      0.00
    5  -12    4     -0.16      0.00
    6  -12    4      0.02      0.00
    7  -12    4      0.06      0.00
    8  -12    4     -0.25      0.00
    9  -12    4      0.14      0.00
   10  -12    4      0.43      0.00
   11  -12    4     -0.14      0.00
   12  -12    4      0.36      0.00
   13  -12    4     -0.29      0.00
   14  -12    4      0.17      0.00
   15  -12    4     -0.33      0.00
   -9  -11    4      0.15      0.00
   -8  -11    4      0.34      0.00
   -7  -11    4      0.08      0.00
   -6  -11    4     -0.08      0.00
   -5  -11    4      0.11      0.00
   -4  -11    4     -0.31      0.00
   -3  -11    4     -0.17      0.00
   -2  -11    4      0.04      0.00
   -1  -11    4     -0.11      0.00
    0  -11    4     -0.07      0.00
    1  -11    4     -0.35      0.00
    2  -11    4      0.27      0.00
    3  -11    4     -0.23      0.00
    4  -11    4      0.00      0.00
    5  -11    4     -0.10      0.00
    6  -11    4     -0.24      0.00
    7  -11    4     -0.05      0.00
    8  -11    4     -0.20      0.00
    9  -11    4      0.23      0.00
   10  -11    4     -0.63      0.00
   11  -11    4     -0.09      0.00
   12  -11    4     -0.19      0.00
   13  -11    4     -0.29      0.00
   14  -11    4      0.00      0.00
   15  -11    4     -0.20      0.00
   16  -11    4     -0.16      0.00
  -10  -10    4     -0.18      0.00
   -9  -10    4     -0.07      0.00
   -8  -10    4      0.04      0.00
   -7  -10    4     -0.13      0.00
   -6  -10    4      0.05      0.00
   -5  -10    4     -0.12      0.00
   -4  -10    4      0.48      0.00
   -3  -10    4     -0.02      0.00
   -2  -10    4     -0.05      0.00
   -1  -10    4      0.13      0.00
    0  -10    4      0.30      0.00
    1  -10    4     -0.16      0.00
    2  -10    4      0.02      0.00
    3  -10    4     -0.39      0.00
    4  -10    4     -0.02      0.00
    5  -10    4      0.11      0.00
    6  -10    4     -0.14      0.00
    7  -10    4      0.11      0.00
    8  -10    4      0.12      0.00
    9  -10    4     -0.20      0.00
   10  -10    4      0.44      0.00
   11  -10    4     -0.28      0.00
   12  -10    4      0.15      0.00
   13  -10    4      0.23      0.00
   14  -10    4     -0.39      0.00
   15  -10    4      0.48      0.00
   16  -10    4      0.30      0.00
  -11   -9    4      0.16      0.00
  -10   -9    4     -0.12      0.00
   -9   -9    4     -0.20      0.00
   -8   -9    4     -0.12      0.00
   -7   -9    4     -0.27      0.00
   -6   -9    4      0.26      0.00
   -5   -9    4     -0.30      0.00
   -4   -9    4      0.07      0.00
   -3   -9    4      0.05      0.00
   -2   -9    4     -0.23      0.00
   -1   -9    4      0.11      0.00
    0   -9    4     -0.15      0.00
    1   -9    4     -0.08      0.00
    2   -9    4      0.11      0.00
    3   -9    4     -0.52      0.00
    4   -9    4     -0.02      0.00
    5   -9    4      0.10      0.00
    6   -9    4     -0.08      0.00
    7   -9    4      0.24      0.00
    8   -9    4     -0.03      0.00
    9   -9    4      0.01      0.00
   10   -9    4      0.23      0.00
   11   -9    4      0.01      0.00
   12   -9    4      0.18      0.00
   13   -9    4      0.31      0.00
   14   -9    4     -0.25      0.00
   15   -9    4     -0.13      0.00
   16   -9    4      0.13      0.00
  -12   -8    4     -0.34      0.00
  -11   -8    4      0.42      0.00
  -10   -8    4     -0.39      0.00
   -9   -8    4      0.17      0.00
   -8   -8    4     -0.03      0.00
   -7   -8    4      0.01      0.00
   -6   -8    4     -0.30      0.00
   -5   -8    4     -0.07      0.00
   -4   -8    4      0.07      0.00
   -3   -8    4      0.07      0.00
   -2   -8    4      0.29      0.00
   -1   -8    4     -0.07      0.00
    0   -8    4      0.08      0.00
    1   -8    4      0.57      0.00
    2   -8    4      0.13      0.00
    3   -8    4      0.51      0.00
    4   -8    4      0.13      0.00
    5   -8    4      0.11      0.00
    6   -8    4      0.09      0.00
    7   -8    4     -0.43      0.00
    8   -8    4      0.10      0.00
    9   -8    4      0.12      0.00
   10   -8    4     -0.24      0.00
   11   -8    4     -0.14      0.00
   12   -8    4      0.14      0.00
   13   -8    4      0.00      0.00
   14   -8    4     -0.30      0.00
   15   -8    4      0.56      0.00
   16   -8    4     -0.72      0.00
  -13   -7    4     -0.26      0.00
  -12   -7    4     -0.17      0.00
  -11   -7    4      0.47      0.00
  -10   -7    4     -0.03      0.00
   -9   -7    4      0.12      0.00
   -8   -7    4      0.14      0.00
   -7   -7    4      0.21      0.00
   -6   -7    4      0.06      0.00
   -5   -7    4      0.08      0.00
   -4   -7    4     -0.29      0.00
   -3   -7    4      0.10      0.00
   -2   -7    4     -0.33      0.00
   -1   -7    4      0.57      0.00
    0   -7    4     -0.47      0.00
    1   -7    4      0.06      0.00
    2   -7    4      0.23      0.00
    3   -7    4      0.18      0.00
    4   -7    4     -0.17      0.00
    5   -7    4     -0.05      0.00
    6   -7    4      0.45      0.00
    7   -7    4     -0.22      0.00
    8   -7    4      0.22      0.00
    9   -7    4      0.36      0.00
   10   -7    4     -0.05      0.00
   11   -7    4     -0.05      0.00
   12   -7    4      0.41      0.00
   13   -7    4     -0.26      0.00
   14   -7    4      0.02      0.00
   15   -7    4      0.35      0.00
   16   -7    4      0.19      0.00
  -14   -6    4      0.24      0.00
  -13   -6    4     -0.11      0.00
  -12   -6    4     -0.30      0.00
  -11   -6    4     -0.04      0.00
  -10   -6    4      0.09      0.00
   -9   -6    4      0.09      0.00
   -8   -6    4     -0.15      0.00
   -7   -6    4      0.21      0.00
   -6   -6    4     -0.15      0.00
   -5   -6    4     -0.02      0.00
   -4   -6    4      0.11      0.00
   -1   -6    4      0.16      0.00
    0   -6    4     -0.42      0.00
    1   -6    4      0.15      0.00
    2   -6    4     -0.15      0.00
    3   -6    4     -0.26      0.00
    4   -6    4      0.11      0.00
    5   -6    4      0.16      0.00
    6   -6    4      0.03      0.00
    7   -6    4     -0.24      0.00
    8   -6    4     -0.09      0.00
    9   -6    4      0.04      0.00
   10   -6    4     -0.03      0.00
   11   -6    4     -0.37      0.00
   12   -6    4      0.25      0.00
   13   -6    4     -0.26      0.00
   14   -6    4      0.15      0.00
   15   -6    4     -0.40      0.00
   16   -6    4      0.41      0.00
  -14   -5    4     -0.52      0.00
  -13   -5    4      0.29      0.00
  -12   -5    4      0.36      0.00
  -11   -5    4     -0.22      0.00
  -10   -5    4      0.16      0.00
   -9   -5    4     -0.49      0.00
   -8   -5    4     -0.04      0.00
   -7   -5    4     -0.04      0.00
   -6   -5    4     -0.03      0.00
   -5   -5    4     -0.04      0.00
   -4   -5    4      0.47      0.00
   -3   -5    4     -0.41      0.00
   -2   -5    4      0.29      0.00
    0   -5    4      0.16      0.00
    1   -5    4      0.12      0.00
    2   -5    4      0.06      0.00
    4   -5    4     -0.42      0.00
    5   -5    4      0.36      0.00
    6   -5    4      0.05      0.00
    7   -5    4      0.24      0.00
    8   -5    4     -0.37      0.00
    9   -5    4      0.04      0.00
   10   -5    4      0.32      0.00
   11   -5    4     -0.38      0.00
   12   -5    4      0.29      0.00
   13   -5    4     -0.19      0.00
   14   -5    4     -0.17      0.00
   15   -5    4     -0.09      0.00
   16   -5    4      0.65      0.00
  -15   -4    4      0.72      0.00
  -14   -4    4     -0.14      0.00
  -13   -4    4      0.19      0.00
  -12   -4    4     -0.18      0.00
  -11   -4    4     -0.12      0.00
  -10   -4    4      0.39      0.00
   -9   -4    4     -0.14      0.00
   -8   -4    4      0.55      0.00
   -7   -4    4     -0.05      0.00
   -6   -4    4     -0.15      0.00
   -5   -4    4     -0.08      0.00
   -4   -4    4     -0.27      0.00
   -3   -4    4     -0.26      0.00
   -2   -4    4     -0.10      0.00
    0   -4    4     -0.52      0.00
    1   -4    4     -0.08      0.00
    2   -4    4     -0.13      0.00
    3   -4    4     -0.82      0.00
    4   -4    4      0.06      0.00
    5   -4    4     -0.07      0.00
    6   -4    4     -0.25      0.00
    7   -4    4      0.02      0.00
    8   -4    4     -0.07      0.00
    9   -4    4     -0.40      0.00
   10   -4    4      0.02      0.00
   11   -4    4     -0.14      0.00
   12   -4    4      0.20      0.00
   13   -4    4     -0.14      0.00
   14   -4    4      0.45      0.00
   15   -4    4     -0.71      0.00
   16   -4    4      0.08      0.00
  -15   -3    4     -0.30      0.00
  -14   -3    4      0.09      0.00
  -13   -3    4     -0.10      0.00
  -12   -3    4     -0.44      0.00
  -11   -3    4      0.53      0.00
  -10   -3    4     -0.25      0.00
   -9   -3    4     -0.35      0.00
   -8   -3    4      0.26      0.00
   -7   -3    4     -0.09      0.00
   -6   -3    4      0.05      0.00
   -5   -3    4      0.34      0.00
   -4   -3    4      0.08      0.00
   -3   -3    4      0.24      0.00
   -2   -3    4     -0.66      0.00
   -1   -3    4      0.02      0.00
    0   -3    4      0.18      0.00
    2   -3    4      1.09      0.00
    3   -3    4     -0.40      0.00
    4   -3    4     -0.30      0.00
    5   -3    4     -0.14      0.00
    6   -3    4     -0.03      0.00
    7   -3    4      0.09      0.00
    8   -3    4      0.22      0.00
    9   -3    4      0.30      0.00
   10   -3    4     -0.25      0.00
   11   -3    4      0.28      0.00
   12   -3    4      0.14      0.00
   13   -3    4     -0.37      0.00
   14   -3    4      0.84      0.00
   15   -3    4      0.19      0.00
   16   -3    4     -0.07      0.00
  -16   -2    4     -0.08      0.00
  -15   -2    4      0.09      0.00
  -14   -2    4     -0.25      0.00
  -13   -2    4      0.02      0.00
  -12   -2    4     -0.09      0.00
  -11   -2    4     -0.10      0.00
  -10   -2    4      0.02      0.00
   -9   -2    4     -0.03      0.00
   -8   -2    4     -0.03      0.00
   -7   -2    4      0.18      0.00
   -6   -2    4     -0.24      0.00
   -5   -2    4      0.06      0.00
   -4   -2    4     -0.48      0.00
   -3   -2    4      0.69      0.00
   -2   -2    4     -0.06      0.00
   -1   -2    4      0.40      0.00
    2   -2    4     -0.23      0.00
    3   -2    4      0.08      0.00
    4   -2    4      0.16      0.00
    5   -2    4     -0.16      0.00
    6   -2    4      0.06      0.00
    7   -2    4     -0.12      0.00
    8   -2    4      0.15      0.00
    9   -2    4      0.09      0.00
   10   -2    4     -0.08      0.00
   11   -2    4     -0.15      0.00
   12   -2    4      0.33      0.00
   13   -2    4     -0.32      0.00
   14   -2    4     -0.71      0.00
   15   -2    4      0.18      0.00
  -16   -1    4      0.06      0.00
  -15   -1    4      0.02      0.00
  -14   -1    4      0.52      0.00
  -13   -1    4      0.17      0.00
  -12   -1    4     -0.16      0.00
  -11   -1    4      0.52      0.00
  -10   -1    4     -0.28      0.00
   -9   -1    4      0.05      0.00
   -8   -1    4      0.04      0.00
   -7   -1    4     -0.38      0.00
   -6   -1    4      0.14      0.00
   -5   -1    4      0.21      0.00
   -4   -1    4     -0.19      0.00
   -3   -1    4      0.02      0.00
   -2   -1    4      0.38      0.00
    2   -1    4      0.25      0.00
    3   -1    4     -0.20      0.00
    4   -1    4      0.77      0.00
    5   -1    4     -0.40      0.00
    6   -1    4     -0.02      0.00
    7   -1    4     -0.04      0.00
    8   -1    4     -0.18      0.00
    9   -1    4      0.02      0.00
   10   -1    4      0.17      0.00
   11   -1    4     -0.11      0.00
   12   -1    4      0.06      0.00
   13   -1    4      0.32      0.00
   14   -1    4      0.00      0.00
   15   -1    4      0.04      0.00
  -17    0    4      0.31      0.00
  -16    0    4     -0.41      0.00
  -15    0    4      0.02      0.00
  -14    0    4      0.00      0.00
  -13    0    4     -0.22      0.00
  -12    0    4     -0.27      0.00
  -11    0    4      0.32      0.00
  -10    0    4     -0.31      0.00
   -9    0    4     -0.30      0.00
   -8    0    4      0.28      0.00
   -7    0    4     -0.18      0.00
   -6    0    4      0.30      0.00
   -5    0    4      0.46      0.00
   -4    0    4     -0.96      0.00
   -3    0    4      0.60      0.00
   -2    0    4     -0.26      0.00
   -1    0    4      0.43      0.00
    0    0    4      0.56      0.00
    1    0    4      0.17      0.00
    2    0    4     -0.74      0.00
    3    0    4     -0.29      0.00
    4    0    4      0.45      0.00
    5    0    4     -0.03      0.00
    6    0    4     -0.08      0.00
    7    0    4      0.09      0.00
    8    0    4     -0.05      0.00
    9    0    4     -0.12      0.00
   10    0    4     -0.03      0.00
   11    0    4     -0.21      0.00
   12    0    4     -0.15      0.00
   13    0    4     -0.06      0.00
   14    0    4      0.05      0.00
   15    0    4      0.10      0.00
  -17    1    4      0.00      0.00
  -16    1    4     -0.17      0.00
  -15    1    4      0.12      0.00
  -14    1    4      0.04      0.00
  -13    1    4      0.14      0.00
  -12    1    4      0.34      0.00
  -11    1    4     -0.22      0.00
  -10    1    4      0.30      0.00
   -9    1    4      0.49      0.00
   -8    1    4     -0.15      0.00
   -7    1    4     -0.45      0.00
   -6    1    4     -0.32      0.00
   -5    1    4      0.49      0.00
   -4    1    4      0.16      0.00
   -3    1    4     -0.74      0.00
   -2    1    4      0.59      0.00
    0    1    4      0.48      0.00
    1    1    4     -0.07      0.00
    2    1    4      0.90      0.00
    3    1    4     -0.18      0.00
    4    1    4      0.30      0.00
    5    1    4      0.19      0.00
    7    1    4      0.51      0.00
    8    1    4     -0.07      0.00
    9    1    4      0.35      0.00
   10    1    4      0.02      0.00
   11    1    4     -0.04      0.00
   12    1    4      0.14      0.00
   13    1    4      0.11      0.00
   14    1    4     -0.27      0.00
  -17    2    4      0.06      0.00
  -16    2    4      0.08      0.00
  -15    2    4     -0.14      0.00
  -14    2    4      0.25      0.00
  -13    2    4     -0.38      0.00
  -12    2    4      0.09      0.00
  -11    2    4     -0.03      0.00
  -10    2    4     -0.09      0.00
   -9    2    4      0.05      0.00
   -8    2    4      0.08      0.00
   -7    2    4      0.28      0.00
   -6    2    4     -0.17      0.00
   -4    2    4      0.28      0.00
   -3    2    4      0.10      0.00
   -2    2    4      0.42      0.00
   -1    2    4      0.13      0.00
    0    2    4     -0.43      0.00
    1    2    4      0.72      0.00
    2    2    4     -0.22      0.00
    3    2    4     -0.04      0.00
    4    2    4     -0.10      0.00
    5    2    4      0.09      0.00
    6    2    4     -0.29      0.00
    7    2    4     -0.27      0.00
    8    2    4     -0.14      0.00
    9    2    4     -0.35      0.00
   10    2    4     -0.03      0.00
   11    2    4     -0.16      0.00
   12    2    4      0.08      0.00
   13    2    4     -0.28      0.00
   14    2    4     -0.02      0.00
  -17    3    4      0.38      0.00
  -16    3    4      0.04      0.00
  -15    3    4     -0.25      0.00
  -14    3    4     -0.16      0.00
  -13    3    4      0.23      0.00
  -12    3    4     -0.28      0.00
  -11    3    4      0.07      0.00
  -10    3    4     -0.02      0.00
   -9    3    4      0.36      0.00
   -8    3    4      0.00      0.00
   -7    3    4      0.79      0.00
   -6    3    4      0.13      0.00
   -5    3    4     -0.55      0.00
   -4    3    4     -0.08      0.00
   -3    3    4     -0.26      0.00
   -1    3    4     -0.65      0.00
    0    3    4      0.05      0.00
    1    3    4     -0.32      0.00
    2    3    4     -0.84      0.00
    3    3    4      0.18      0.00
    4    3    4     -0.22      0.00
    5    3    4     -0.22      0.00
    6    3    4     -0.02      0.00
    7    3    4     -0.09      0.00
    8    3    4      0.00      0.00
    9    3    4      0.32      0.00
   10    3    4     -0.12      0.00
   11    3    4      0.37      0.00
   12    3    4      0.09      0.00
   13    3    4      0.06      0.00
  -17    4    4      0.28      0.00
  -16    4    4     -0.47      0.00
  -15    4    4      0.16      0.00
  -14    4    4      0.11      0.00
  -13    4    4      0.14      0.00
  -12    4    4     -0.25      0.00
  -11    4    4      0.02      0.00
  -10    4    4     -0.08      0.00
   -9    4    4     -0.69      0.00
   -8    4    4      0.35      0.00
   -6    4    4      0.77      0.00
   -5    4    4     -0.18      0.00
   -4    4    4     -0.16      0.00
   -3    4    4     -0.28      0.00
   -2    4    4      0.44      0.00
   -1    4    4     -0.80      0.00
    0    4    4      0.18      0.00
    1    4    4      0.01      0.00
    2    4    4      0.07      0.00
    3    4    4     -0.02      0.00
    4    4    4     -0.05      0.00
    5    4    4      0.10      0.00
    6    4    4     -0.12      0.00
    7    4    4      0.30      0.00
    8    4    4     -0.12      0.00
    9    4    4      0.51      0.00
   10    4    4     -0.28      0.00
   11    4    4     -0.04      0.00
   12    4    4     -0.05      0.00
  -17    5    4      0.28      0.00
  -16    5    4     -0.12      0.00
  -15    5    4     -0.13      0.00
  -14    5    4      0.00      0.00
  -13    5    4      0.27      0.00
  -12    5    4     -0.15      0.00
  -11    5    4      0.56      0.00
  -10    5    4     -0.66      0.00
   -9    5    4      0.23      0.00
   -7    5    4      0.16      0.00
   -6    5    4      0.43      0.00
   -5    5    4     -0.06      0.00
   -4    5    4     -0.31      0.00
   -3    5    4     -0.15      0.00
   -2    5    4      0.17      0.00
   -1    5    4      0.22      0.00
    0    5    4     -0.22      0.00
    1    5    4      0.42      0.00
    2    5    4      0.08      0.00
    3    5    4     -0.31      0.00
    4    5    4      0.02      0.00
    5    5    4      0.07      0.00
    6    5    4      0.10      0.00
    7    5    4     -0.14      0.00
    9    5    4     -0.29      0.00
   10    5    4     -0.13      0.00
   11    5    4      0.37      0.00
  -17    6    4     -0.10      0.00
  -16    6    4      0.22      0.00
  -15    6    4     -0.30      0.00
  -14    6    4      0.13      0.00
  -13    6    4     -0.25      0.00
  -12    6    4      0.02      0.00
  -11    6    4      0.00      0.00
  -10    6    4     -0.11      0.00
   -9    6    4      0.66      0.00
   -8    6    4     -0.08      0.00
   -7    6    4     -0.07      0.00
   -6    6    4      0.05      0.00
   -5    6    4      0.07      0.00
   -4    6    4      0.28      0.00
   -3    6    4      0.03      0.00
   -2    6    4      0.21      0.00
   -1    6    4      0.05      0.00
    0    6    4      0.03      0.00
    1    6    4      0.09      0.00
    2    6    4      0.00      0.00
    3    6    4      0.15      0.00
    4    6    4      0.47      0.00
    5    6    4     -0.21      0.00
    6    6    4      0.11      0.00
    7    6    4     -0.29      0.00
    8    6    4      0.01      0.00
    9    6    4      0.19      0.00
   10    6    4     -0.04      0.00
   11    6    4      0.01      0.00
  -17    7    4     -0.38      0.00
  -16    7    4      0.58      0.00
  -15    7    4     -0.04      0.00
  -14    7    4     -0.07      0.00
  -13    7    4     -0.27      0.00
  -12    7    4      0.22      0.00
  -11    7    4      0.16      0.00
  -10    7    4     -0.26      0.00
   -9    7    4      0.06      0.00
   -8    7    4      0.06      0.00
   -7    7    4     -0.47      0.00
   -6    7    4      0.60      0.00
   -5    7    4     -0.26      0.00
   -4    7    4      0.07      0.00
   -3    7    4     -0.04      0.00
   -2    7    4     -0.09      0.00
   -1    7    4     -0.06      0.00
    0    7    4      0.06      0.00
    1    7    4      0.07      0.00
    2    7    4     -0.11      0.00
    3    7    4      0.10      0.00
    4    7    4     -0.27      0.00
    5    7    4      0.05      0.00
    6    7    4      0.25      0.00
    7    7    4     -0.08      0.00
    8    7    4     -0.29      0.00
    9    7    4      0.11      0.00
   10    7    4     -0.24      0.00
  -17    8    4     -0.19      0.00
  -16    8    4     -0.29      0.00
  -15    8    4      0.11      0.00
  -14    8    4      0.14      0.00
  -13    8    4     -0.19      0.00
  -12    8    4      0.01      0.00
  -11    8    4     -0.18      0.00
  -10    8    4     -0.12      0.00
   -9    8    4     -0.19      0.00
   -8    8    4      0.12      0.00
   -7    8    4     -0.43      0.00
   -6    8    4      0.24      0.00
   -5    8    4     -0.20      0.00
   -4    8    4      0.18      0.00
   -3    8    4      0.21      0.00
   -2    8    4     -0.01      0.00
   -1    8    4      0.01      0.00
    1    8    4     -0.10      0.00
    2    8    4      0.23      0.00
    3    8    4      0.07      0.00
    4    8    4     -0.07      0.00
    5    8    4      0.11      0.00
    6    8    4     -0.11      0.00
    7    8    4      0.19      0.00
    8    8    4      0.06      0.00
    9    8    4     -0.30      0.00
  -17    9    4      0.79      0.00
  -16    9    4     -0.55      0.00
  -15    9    4      0.51      0.00
  -14    9    4     -0.03      0.00
  -13    9    4      0.08      0.00
  -12    9    4      0.05      0.00
  -11    9    4     -0.06      0.00
  -10    9    4     -0.01      0.00
   -9    9    4      0.01      0.00
   -8    9    4      0.15      0.00
   -7    9    4      0.15      0.00
   -6    9    4     -0.26      0.00
   -5    9    4      0.16      0.00
   -4    9    4     -0.13      0.00
   -3    9    4     -0.18      0.00
   -2    9    4      0.33      0.00
   -1    9    4     -0.15      0.00
    0    9    4      0.16      0.00
    1    9    4     -0.10      0.00
    2    9    4      0.04      0.00
    3    9    4     -0.26      0.00
    4    9    4      0.06      0.00
    5    9    4     -0.15      0.00
    6    9    4      0.08      0.00
    7    9    4     -0.07      0.00
    8    9    4      0.28      0.00
  -16   10    4     -0.27      0.00
  -15   10    4     -0.05      0.00
  -14   10    4     -0.08      0.00
  -13   10    4      0.12      0.00
  -12   10    4      0.28      0.00
  -11   10    4      0.06      0.00
  -10   10    4      0.28      0.00
   -9   10    4     -0.07      0.00
   -8   10    4     -0.27      0.00
   -7   10    4      0.25      0.00
   -6   10    4     -0.20      0.00
   -5   10    4     -0.17      0.00
   -4   10    4      0.12      0.00
   -3   10    4     -0.15      0.00
   -2   10    4     -0.34      0.00
   -1   10    4      0.02      0.00
    0   10    4      0.01      0.00
    3   10    4      0.23      0.00
    4   10    4      0.23      0.00
    5   10    4     -0.30      0.00
    6   10    4      0.73      0.00
  -16   11    4      0.01      0.00
  -15   11    4      0.12      0.00
  -14   11    4      0.09      0.00
  -13   11    4     -0.09      0.00
  -12   11    4     -0.03      0.00
  -11   11    4     -0.17      0.00
  -10   11    4      0.13      0.00
   -9   11    4      0.08      0.00
   -8   11    4     -0.03      0.00
   -7   11    4      0.31      0.00
   -6   11    4     -0.03      0.00
   -5   11    4      0.10      0.00
   -4   11    4      0.03      0.00
   -3   11    4      0.03      0.00
   -2   11    4     -0.21      0.00
   -1   11    4      0.22      0.00
    0   11    4     -0.12      0.00
    1   11    4      0.36      0.00
    3   11    4      0.08      0.00
    4   11    4     -0.42      0.00
    5   11    4     -0.32      0.00
  -15   12    4      0.15      0.00
  -14   12    4     -0.26      0.00
  -13   12    4     -0.01      0.00
  -12   12    4      0.02      0.00
  -11   12    4      0.14      0.00
  -10   12    4     -0.13      0.00
   -9   12    4      0.09      0.00
   -8   12    4      0.23      0.00
   -7   12    4      0.10      0.00
   -6   12    4     -0.11      0.00
   -5   12    4      0.11      0.00
   -4   12    4     -0.12      0.00
   -3   12    4      0.31      0.00
   -2   12    4     -0.17      0.00
   -1   12    4      0.33      0.00
    0   12    4     -0.27      0.00
    1   12    4     -0.15      0.00
    2   12    4     -0.10      0.00
    3   12    4     -0.01      0.00
  -14   13    4      0.12      0.00
  -13   13    4     -0.08      0.00
  -12   13    4     -0.07      0.00
  -11   13    4      0.18      0.00
  -10   13    4     -0.04      0.00
   -9   13    4     -0.36      0.00
   -8   13    4     -0.31      0.00
   -7   13    4      0.34      0.00
   -6   13    4     -0.63      0.00
   -5   13    4      0.43      0.00
   -4   13    4     -0.05      0.00
   -3   13    4     -0.18      0.00
   -2   13    4     -0.03      0.00
   -1   13    4     -0.03      0.00
    0   13    4      0.01      0.00
    1   13    4      0.05      0.00
    2   13    4     -0.23      0.00
  -12   14    4     -0.32      0.00
  -11   14    4     -0.03      0.00
  -10   14    4      0.04      0.00
   -9   14    4     -0.04      0.00
   -8   14    4     -0.46      0.00
   -7   14    4      0.25      0.00
   -6   14    4     -0.25      0.00
   -5   14    4     -0.06      0.00
   -4   14    4      0.28      0.00
   -3   14    4      0.05      0.00
   -2   14    4     -0.03      0.00
   -1   14    4      0.46      0.00
   -9   15    4      0.14      0.00
   -8   15    4      0.29      0.00
   -7   15    4      0.12      0.00
   -6   15    4      0.03      0.00
   -5   15    4     -0.06      0.00
   -4   15    4     -0.07      0.00
    1  -17    5      0.03      0.00
    2  -17    5     -0.16      0.00
    4  -17    5      0.19      0.00
    5  -17    5     -0.38      0.00
    6  -17    5      0.19      0.00
    7  -17    5     -0.15      0.00
    8  -17    5     -0.34      0.00
    9  -17    5      0.15      0.00
   10  -17    5     -0.01      0.00
   -2  -16    5      0.16      0.00
   -1  -16    5      0.06      0.00
    0  -16    5     -0.19      0.00
    1  -16    5      0.19      0.00
    2  -16    5      0.15      0.00
    3  -16    5     -0.23      0.00
    4  -16    5      0.00      0.00
    5  -16    5     -0.12      0.00
    6  -16    5      0.19      0.00
    7  -16    5      0.50      0.00
    8  -16    5     -0.27      0.00
    9  -16    5      0.17      0.00
   10  -16    5     -0.01      0.00
   11  -16    5     -0.03      0.00
   12  -16    5     -0.13      0.00
   -4  -15    5      0.12      0.00
   -3  -15    5     -0.04      0.00
   -2  -15    5     -0.06      0.00
   -1  -15    5     -0.05      0.00
    0  -15    5     -0.05      0.00
    1  -15    5     -0.44      0.00
    2  -15    5      0.07      0.00
    3  -15    5     -0.01      0.00
    4  -15    5      0.11      0.00
    5  -15    5     -0.06      0.00
    6  -15    5     -0.07      0.00
    7  -15    5     -0.21      0.00
    8  -15    5     -0.02      0.00
    9  -15    5      0.02      0.00
   10  -15    5     -0.36      0.00
   11  -15    5      0.23      0.00
   12  -15    5     -0.12      0.00
   13  -15    5     -0.17      0.00
   -5  -14    5     -0.33      0.00
   -4  -14    5     -0.08      0.00
   -3  -14    5      0.13      0.00
   -2  -14    5     -0.13      0.00
   -1  -14    5      0.14      0.00
    0  -14    5      0.13      0.00
    1  -14    5     -0.03      0.00
    2  -14    5      0.30      0.00
    3  -14    5     -0.40      0.00
    4  -14    5      0.29      0.00
    5  -14    5     -0.23      0.00
    6  -14    5      0.07      0.00
    7  -14    5      0.00      0.00
    8  -14    5      0.20      0.00
    9  -14    5     -0.04      0.00
   10  -14    5      0.03      0.00
   11  -14    5     -0.14      0.00
   12  -14    5      0.38      0.00
   13  -14    5      0.10      0.00
   14  -14    5     -0.21      0.00
   -7  -13    5     -0.41      0.00
   -6  -13    5      0.20      0.00
   -5  -13    5      0.08      0.00
   -4  -13    5      0.12      0.00
   -3  -13    5      0.13      0.00
   -2  -13    5     -0.09      0.00
   -1  -13    5      0.30      0.00
    0  -13    5     -0.24      0.00
    1  -13    5      0.24      0.00
    2  -13    5      0.02      0.00
    3  -13    5     -0.08      0.00
    4  -13    5      0.54      0.00
    5  -13    5     -0.15      0.00
    6  -13    5      0.08      0.00
    7  -13    5      0.07      0.00
    8  -13    5     -0.28      0.00
    9  -13    5      0.20      0.00
   10  -13    5      0.37      0.00
   11  -13    5     -0.35      0.00
   12  -13    5      0.43      0.00
   13  -13    5     -0.34      0.00
   14  -13    5      0.00      0.00
   15  -13    5      0.01      0.00
   -8  -12    5      0.39      0.00
   -7  -12    5     -0.10      0.00
   -6  -12    5      0.18      0.00
   -5  -12    5     -0.12      0.00
   -4  -12    5     -0.13      0.00
   -3  -12    5      0.00      0.00
   -2  -12    5     -0.25      0.00
   -1  -12    5      0.08      0.00
    0  -12    5     -0.17      0.00
    1  -12    5     -0.04      0.00
    2  -12    5      0.00      0.00
    3  -12    5     -0.44      0.00
    4  -12    5     -0.05      0.00
    5  -12    5     -0.20      0.00
    6  -12    5      0.10      0.00
    7  -12    5      0.00      0.00
    8  -12    5     -0.20      0.00
    9  -12    5      0.14      0.00
   10  -12    5     -0.53      0.00
   11  -12    5      0.14      0.00
   12  -12    5     -0.07      0.00
   13  -12    5     -0.20      0.00
   14  -12    5      0.04      0.00
   15  -12    5      0.11      0.00
   -9  -11    5     -0.03      0.00
   -8  -11    5      0.19      0.00
   -7  -11    5     -0.18      0.00
   -6  -11    5      0.30      0.00
   -5  -11    5     -0.12      0.00
   -4  -11    5      0.31      0.00
   -3  -11    5      0.10      0.00
   -2  -11    5      0.00      0.00
   -1  -11    5     -0.03      0.00
    0  -11    5      0.01      0.00
    1  -11    5     -0.06      0.00
    2  -11    5      0.12      0.00
    3  -11    5     -0.25      0.00
    4  -11    5      0.26      0.00
    5  -11    5     -0.17      0.00
    6  -11    5     -0.06      0.00
    7  -11    5      0.11      0.00
    8  -11    5     -0.13      0.00
    9  -11    5      0.15      0.00
   10  -11    5      0.01      0.00
   11  -11    5     -0.11      0.00
   12  -11    5      0.02      0.00
   13  -11    5      0.03      0.00
   14  -11    5     -0.14      0.00
   15  -11    5      0.34      0.00
  -10  -10    5     -0.21      0.00
   -9  -10    5     -0.08      0.00
   -8  -10    5     -0.16      0.00
   -7  -10    5     -0.19      0.00
   -6  -10    5     -0.03      0.00
   -5  -10    5      0.11      0.00
   -4  -10    5     -0.29      0.00
   -3  -10    5      0.23      0.00
   -2  -10    5      0.19      0.00
   -1  -10    5     -0.21      0.00
    0  -10    5      0.03      0.00
    1  -10    5     -0.08      0.00
    2  -10    5      0.26      0.00
    3  -10    5     -0.12      0.00
    4  -10    5      0.03      0.00
    5  -10    5     -0.13      0.00
    6  -10    5      0.08      0.00
    7  -10    5      0.35      0.00
    8  -10    5      0.12      0.00
    9  -10    5     -0.14      0.00
   10  -10    5      0.36      0.00
   11  -10    5     -0.12      0.00
   12  -10    5      0.24      0.00
   13  -10    5      0.22      0.00
   14  -10    5     -0.11      0.00
   15  -10    5     -0.17      0.00
   16  -10    5      0.00      0.00
  -11   -9    5      0.16      0.00
  -10   -9    5     -0.17      0.00
   -9   -9    5      0.01      0.00
   -8   -9    5     -0.03      0.00
   -7   -9    5     -0.03      0.00
   -6   -9    5     -0.42      0.00
   -5   -9    5      0.26      0.00
   -4   -9    5     -0.16      0.00
   -3   -9    5     -0.14      0.00
   -1   -9    5     -0.08      0.00
    0   -9    5      0.50      0.00
    1   -9    5     -0.13      0.00
    2   -9    5      0.12      0.00
    3   -9    5      0.17      0.00
    4   -9    5      0.15      0.00
    5   -9    5     -0.21      0.00
    6   -9    5      0.10      0.00
    7   -9    5     -0.67      0.00
    8   -9    5      0.01      0.00
    9   -9    5      0.03      0.00
   10   -9    5     -0.03      0.00
   11   -9    5     -0.15      0.00
   12   -9    5      0.15      0.00
   13   -9    5     -0.22      0.00
   14   -9    5     -0.25      0.00
   15   -9    5      0.54      0.00
   16   -9    5     -1.05      0.00
  -12   -8    5     -0.29      0.00
  -11   -8    5      0.48      0.00
  -10   -8    5     -0.21      0.00
   -9   -8    5      0.04      0.00
   -7   -8    5     -0.05      0.00
   -6   -8    5      0.16      0.00
   -5   -8    5     -0.12      0.00
   -4   -8    5     -0.33      0.00
   -3   -8    5      0.00      0.00
   -2   -8    5     -0.39      0.00
   -1   -8    5      0.35      0.00
    0   -8    5     -0.01      0.00
    1   -8    5     -0.07      0.00
    2   -8    5     -0.10      0.00
    3   -8    5      0.33      0.00
    4   -8    5      0.14      0.00
    5   -8    5     -0.37      0.00
    6   -8    5      0.62      0.00
    7   -8    5      0.01      0.00
    8   -8    5     -0.02      0.00
    9   -8    5      0.15      0.00
   10   -8    5      0.04      0.00
   11   -8    5      0.03      0.00
   12   -8    5      0.39      0.00
   13   -8    5     -0.26      0.00
   14   -8    5     -0.09      0.00
   15   -8    5      0.72      0.00
   16   -8    5      0.06      0.00
  -13   -7    5      0.32      0.00
  -12   -7    5     -0.08      0.00
  -11   -7    5     -0.15      0.00
  -10   -7    5      0.12      0.00
   -9   -7    5      0.38      0.00
   -8   -7    5      0.04      0.00
   -7   -7    5      0.05      0.00
   -6   -7    5      0.11      0.00
   -5   -7    5      0.02      0.00
   -4   -7    5      0.06      0.00
   -3   -7    5      0.39      0.00
   -1   -7    5      0.00      0.00
    0   -7    5     -0.19      0.00
    1   -7    5      0.02      0.00
    2   -7    5      0.04      0.00
    3   -7    5     -0.34      0.00
    4   -7    5      0.31      0.00
    5   -7    5      0.10      0.00
    6   -7    5     -0.23      0.00
    7   -7    5      0.19      0.00
    8   -7    5     -0.06      0.00
    9   -7    5     -0.02      0.00
   10   -7    5     -0.13      0.00
   11   -7    5     -0.09      0.00
   12   -7    5     -0.09      0.00
   13   -7    5      0.22      0.00
   14   -7    5     -0.09      0.00
   15   -7    5     -0.46      0.00
   16   -7    5      0.11      0.00
  -14   -6    5     -0.50      0.00
  -13   -6    5     -0.42      0.00
  -12   -6    5      0.69      0.00
  -11   -6    5     -0.28      0.00
  -10   -6    5     -0.17      0.00
   -9   -6    5     -0.06      0.00
   -8   -6    5     -0.36      0.00
   -7   -6    5      0.03      0.00
   -6   -6    5     -0.17      0.00
   -5   -6    5      0.06      0.00
   -4   -6    5     -0.03      0.00
   -3   -6    5      0.32      0.00
    0   -6    5      0.01      0.00
    1   -6    5      0.11      0.00
    2   -6    5      0.11      0.00
    3   -6    5      0.14      0.00
    4   -6    5     -0.22      0.00
    5   -6    5      0.12      0.00
    6   -6    5     -0.10      0.00
    7   -6    5      0.47      0.00
    8   -6    5     -0.20      0.00
    9   -6    5     -0.06      0.00
   10   -6    5     -0.04      0.00
   11   -6    5     -0.16      0.00
   12   -6    5      0.05      0.00
   13   -6    5      0.01      0.00
   14   -6    5      0.26      0.00
   15   -6    5     -0.30      0.00
   16   -6    5      0.78      0.00
  -14   -5    5      0.20      0.00
  -13   -5    5      0.18      0.00
  -12   -5    5      0.02      0.00
  -11   -5    5      0.31      0.00
  -10   -5    5     -0.03      0.00
   -9   -5    5      0.07      0.00
   -8   -5    5      0.31      0.00
   -7   -5    5     -0.02      0.00
   -6   -5    5      0.06      0.00
   -5   -5    5     -0.03      0.00
   -4   -5    5     -0.28      0.00
   -3   -5    5      0.05      0.00
   -2   -5    5     -0.12      0.00
    0   -5    5     -0.68      0.00
    1   -5    5      0.13      0.00
    2   -5    5     -0.27      0.00
    3   -5    5     -0.48      0.00
    4   -5    5      0.77      0.00
    5   -5    5     -0.22      0.00
    6   -5    5     -0.25      0.00
    7   -5    5      0.14      0.00
    8   -5    5      0.03      0.00
    9   -5    5     -0.11      0.00
   10   -5    5      0.14      0.00
   11   -5    5      0.02      0.00
   12   -5    5     -0.06      0.00
   13   -5    5     -0.25      0.00
   14   -5    5      0.39      0.00
   15   -5    5     -0.46      0.00
   16   -5    5     -0.30      0.00
  -15   -4    5      0.04      0.00
  -14   -4    5     -0.14      0.00
  -13   -4    5     -0.32      0.00
  -12   -4    5     -0.28      0.00
  -11   -4    5     -0.02      0.00
  -10   -4    5      0.05      0.00
   -9   -4    5     -0.46      0.00
   -8   -4    5      0.40      0.00
   -7   -4    5     -0.08      0.00
   -6   -4    5      0.00      0.00
   -5   -4    5     -0.08      0.00
   -4   -4    5      0.47      0.00
   -3   -4    5     -0.46      0.00
   -2   -4    5      0.08      0.00
   -1   -4    5      0.28      0.00
    0   -4    5      0.38      0.00
    1   -4    5     -0.38      0.00
    2   -4    5      0.69      0.00
    3   -4    5     -0.29      0.00
    4   -4    5      0.09      0.00
    5   -4    5     -0.22      0.00
    6   -4    5     -0.18      0.00
    7   -4    5     -0.30      0.00
    8   -4    5      0.24      0.00
    9   -4    5      0.30      0.00
   10   -4    5     -0.04      0.00
   11   -4    5      0.05      0.00
   12   -4    5      0.24      0.00
   13   -4    5     -0.44      0.00
   14   -4    5      0.45      0.00
   15   -4    5      0.53      0.00
   16   -4    5     -0.21      0.00
  -15   -3    5      0.00      0.00
  -14   -3    5     -0.05      0.00
  -13   -3    5     -0.01      0.00
  -12   -3    5      0.02      0.00
  -11   -3    5     -0.33      0.00
  -10   -3    5      0.24      0.00
   -9   -3    5      0.12      0.00
   -8   -3    5     -0.18      0.00
   -7   -3    5      0.34      0.00
   -6   -3    5      0.32      0.00
   -5   -3    5     -0.08      0.00
   -4   -3    5      0.22      0.00
   -3   -3    5     -0.18      0.00
   -2   -3    5      0.56      0.00
   -1   -3    5     -0.35      0.00
    0   -3    5     -0.71      0.00
    1   -3    5      0.24      0.00
    2   -3    5     -1.21      0.00
    3   -3    5     -0.28      0.00
    4   -3    5     -0.20      0.00
    5   -3    5      0.13      0.00
    6   -3    5      0.20      0.00
    7   -3    5     -0.22      0.00
    8   -3    5     -0.10      0.00
    9   -3    5     -0.12      0.00
   10   -3    5     -0.06      0.00
   11   -3    5     -0.44      0.00
   12   -3    5      0.63      0.00
   13   -3    5     -0.63      0.00
   14   -3    5     -0.31      0.00
   15   -3    5     -0.04      0.00
  -16   -2    5     -0.01      0.00
  -15   -2    5     -0.12      0.00
  -14   -2    5      0.30      0.00
  -13   -2    5      0.16      0.00
  -12   -2    5      0.06      0.00
  -11   -2    5      0.39      0.00
  -10   -2    5     -0.47      0.00
   -9   -2    5      0.24      0.00
   -8   -2    5     -0.32      0.00
   -7   -2    5     -0.40      0.00
   -6   -2    5     -0.17      0.00
   -5   -2    5      0.23      0.00
   -4   -2    5      0.15      0.00
   -2   -2    5      0.43      0.00
   -1   -2    5      0.60      0.00
    2   -2    5      0.07      0.00
    3   -2    5      0.18      0.00
    4   -2    5     -0.08      0.00
    5   -2    5     -0.15      0.00
    6   -2    5     -0.21      0.00
    7   -2    5      0.31      0.00
    8   -2    5     -0.46      0.00
    9   -2    5      0.12      0.00
   10   -2    5      0.18      0.00
   11   -2    5      0.02      0.00
   12   -2    5     -0.21      0.00
   13   -2    5      0.56      0.00
   14   -2    5      0.04      0.00
   15   -2    5      0.18      0.00
  -16   -1    5     -0.40      0.00
  -15   -1    5      0.20      0.00
  -14   -1    5     -0.13      0.00
  -13   -1    5     -0.30      0.00
  -12   -1    5      0.10      0.00
  -11   -1    5      0.16      0.00
  -10   -1    5     -0.44      0.00
   -9   -1    5      0.11      0.00
   -8   -1    5     -0.24      0.00
   -7   -1    5      0.28      0.00
   -6   -1    5     -0.51      0.00
   -5   -1    5      0.53      0.00
   -4   -1    5     -0.35      0.00
   -3   -1    5      0.00      0.00
   -2   -1    5     -0.05      0.00
    0   -1    5      0.33      0.00
    1   -1    5      0.33      0.00
    2   -1    5     -0.30      0.00
    3   -1    5     -0.01      0.00
    4   -1    5      0.04      0.00
    5   -1    5      0.12      0.00
    6   -1    5     -0.20      0.00
    7   -1    5      0.29      0.00
    8   -1    5     -0.03      0.00
    9   -1    5     -0.31      0.00
   10   -1    5      0.22      0.00
   11   -1    5      0.14      0.00
   12   -1    5     -0.38      0.00
   13   -1    5      0.01      0.00
   14   -1    5     -0.23      0.00
   15   -1    5      0.40      0.00
  -17    0    5      0.26      0.00
  -16    0    5     -0.16      0.00
  -15    0    5      0.00      0.00
  -14    0    5      0.17      0.00
  -13    0    5      0.09      0.00
  -12    0    5      0.05      0.00
  -11    0    5      0.20      0.00
  -10    0    5     -0.14      0.00
   -9    0    5      0.82      0.00
   -8    0    5     -0.10      0.00
   -7    0    5     -0.20      0.00
   -6    0    5     -0.60      0.00
   -4    0    5     -0.59      0.00
   -2    0    5      0.67      0.00
   -1    0    5     -1.06      0.00
    0    0    5      0.73      0.00
    1    0    5     -1.02      0.00
    2    0    5      1.68      0.00
    3    0    5     -0.09      0.00
    4    0    5      0.66      0.00
    5    0    5      0.14      0.00
    6    0    5      0.10      0.00
    7    0    5      0.20      0.00
    8    0    5      0.43      0.00
    9    0    5     -0.14      0.00
   10    0    5      0.05      0.00
   11    0    5      0.09      0.00
   12    0    5     -0.09      0.00
   13    0    5      0.01      0.00
   14    0    5     -0.27      0.00
  -17    1    5      0.04      0.00
  -16    1    5      0.08      0.00
  -15    1    5     -0.15      0.00
  -14    1    5      0.14      0.00
  -13    1    5     -0.14      0.00
  -12    1    5     -0.11      0.00
  -11    1    5      0.22      0.00
  -10    1    5     -0.18      0.00
   -9    1    5     -0.41      0.00
   -8    1    5      0.33      0.00
   -7    1    5      0.12      0.00
   -6    1    5      0.56      0.00
   -5    1    5      0.24      0.00
   -4    1    5      0.54      0.00
   -3    1    5      0.21      0.00
   -2    1    5      0.30      0.00
   -1    1    5     -0.30      0.00
    0    1    5      0.42      0.00
    1    1    5      0.10      0.00
    2    1    5     -0.44      0.00
    3    1    5      0.27      0.00
    4    1    5     -0.19      0.00
    5    1    5      0.23      0.00
    6    1    5     -0.23      0.00
    7    1    5      0.03      0.00
    8    1    5      0.00      0.00
    9    1    5     -0.38      0.00
   10    1    5     -0.19      0.00
   11    1    5      0.13      0.00
   12    1    5      0.02      0.00
   13    1    5      0.05      0.00
   14    1    5      0.06      0.00
  -17    2    5      0.22      0.00
  -16    2    5      0.52      0.00
  -15    2    5     -0.43      0.00
  -14    2    5     -0.10      0.00
  -13    2    5      0.05      0.00
  -12    2    5     -0.11      0.00
  -11    2    5     -0.27      0.00
  -10    2    5      0.28      0.00
   -9    2    5      0.28      0.00
   -8    2    5      0.42      0.00
   -7    2    5      0.54      0.00
   -6    2    5      0.84      0.00
   -5    2    5     -0.73      0.00
   -4    2    5     -0.10      0.00
   -3    2    5     -0.66      0.00
   -2    2    5      0.12      0.00
   -1    2    5     -0.23      0.00
    0    2    5     -0.34      0.00
    1    2    5      0.36      0.00
    2    2    5     -1.56      0.00
    3    2    5      0.50      0.00
    4    2    5     -0.55      0.00
    5    2    5      0.13      0.00
    6    2    5     -0.37      0.00
    7    2    5      0.06      0.00
    8    2    5     -0.11      0.00
    9    2    5      0.23      0.00
   10    2    5      0.08      0.00
   11    2    5      0.19      0.00
   12    2    5     -0.09      0.00
   13    2    5      0.33      0.00
  -17    3    5      0.12      0.00
  -16    3    5     -0.25      0.00
  -15    3    5      0.09      0.00
  -14    3    5      0.27      0.00
  -13    3    5     -0.18      0.00
  -12    3    5      0.01      0.00
  -11    3    5      0.28      0.00
  -10    3    5     -0.26      0.00
   -9    3    5     -0.73      0.00
   -8    3    5      0.52      0.00
   -7    3    5     -2.98      0.00
   -6    3    5      0.75      0.00
   -5    3    5     -0.30      0.00
   -4    3    5     -0.15      0.00
   -3    3    5      0.43      0.00
   -2    3    5      0.05      0.00
   -1    3    5     -0.34      0.00
    0    3    5     -0.20      0.00
    1    3    5      0.03      0.00
    2    3    5      0.21      0.00
    3    3    5     -0.21      0.00
    4    3    5      0.12      0.00
    5    3    5      0.05      0.00
    6    3    5     -0.08      0.00
    7    3    5      0.26      0.00
    8    3    5      0.24      0.00
    9    3    5      0.01      0.00
   11    3    5      0.01      0.00
   12    3    5     -0.26      0.00
  -17    4    5      0.30      0.00
  -16    4    5     -0.36      0.00
  -15    4    5      0.00      0.00
  -14    4    5      0.04      0.00
  -13    4    5      0.13      0.00
  -12    4    5     -0.27      0.00
  -11    4    5      0.43      0.00
  -10    4    5     -0.57      0.00
   -9    4    5     -0.42      0.00
   -8    4    5      0.52      0.00
   -7    4    5      0.11      0.00
   -6    4    5      0.52      0.00
   -5    4    5     -0.36      0.00
   -4    4    5      0.29      0.00
   -3    4    5     -0.25      0.00
   -2    4    5      0.22      0.00
   -1    4    5     -0.17      0.00
    0    4    5      0.21      0.00
    1    4    5      0.28      0.00
    2    4    5      0.13      0.00
    3    4    5     -0.46      0.00
    4    4    5      0.13      0.00
    5    4    5     -0.02      0.00
    6    4    5     -0.19      0.00
    7    4    5     -0.03      0.00
    8    4    5      0.15      0.00
    9    4    5     -0.32      0.00
   10    4    5      0.01      0.00
   11    4    5      0.51      0.00
   12    4    5     -0.35      0.00
  -17    5    5      0.10      0.00
  -16    5    5     -0.04      0.00
  -15    5    5     -0.04      0.00
  -14    5    5      0.05      0.00
  -13    5    5     -0.27      0.00
  -12    5    5      0.09      0.00
  -11    5    5     -0.04      0.00
  -10    5    5      0.32      0.00
   -9    5    5      0.57      0.00
   -8    5    5      0.03      0.00
   -7    5    5     -0.05      0.00
   -6    5    5      0.38      0.00
   -5    5    5     -0.47      0.00
   -4    5    5      0.47      0.00
   -3    5    5     -0.44      0.00
   -2    5    5      0.45      0.00
   -1    5    5      0.00      0.00
    0    5    5      0.13      0.00
    1    5    5     -0.14      0.00
    2    5    5      0.09      0.00
    3    5    5     -0.06      0.00
    4    5    5      0.44      0.00
    5    5    5     -0.28      0.00
    6    5    5     -0.07      0.00
    7    5    5      0.08      0.00
    8    5    5     -0.35      0.00
    9    5    5      0.31      0.00
   10    5    5     -0.05      0.00
   11    5    5     -0.29      0.00
  -17    6    5     -0.47      0.00
  -16    6    5      0.54      0.00
  -15    6    5      0.08      0.00
  -14    6    5      0.04      0.00
  -13    6    5     -0.02      0.00
  -12    6    5      0.02      0.00
  -11    6    5     -0.01      0.00
  -10    6    5      0.08      0.00
   -9    6    5      0.18      0.00
   -8    6    5      0.03      0.00
   -7    6    5     -0.05      0.00
   -6    6    5      0.34      0.00
   -5    6    5     -0.18      0.00
   -4    6    5      0.06      0.00
   -3    6    5     -0.07      0.00
   -2    6    5      0.11      0.00
   -1    6    5     -0.55      0.00
    0    6    5      0.14      0.00
    1    6    5     -0.04      0.00
    2    6    5      0.00      0.00
    3    6    5      0.06      0.00
    4    6    5     -0.15      0.00
    5    6    5      0.00      0.00
    6    6    5      0.27      0.00
    7    6    5     -0.03      0.00
    8    6    5     -0.14      0.00
    9    6    5     -0.24      0.00
   10    6    5     -0.05      0.00
  -17    7    5      0.10      0.00
  -16    7    5     -0.45      0.00
  -15    7    5     -0.07      0.00
  -14    7    5      0.08      0.00
  -13    7    5      0.03      0.00
  -12    7    5      0.08      0.00
  -11    7    5     -0.15      0.00
  -10    7    5     -0.06      0.00
   -9    7    5     -0.30      0.00
   -8    7    5      0.01      0.00
   -7    7    5     -0.16      0.00
   -6    7    5     -0.17      0.00
   -5    7    5      0.28      0.00
   -4    7    5     -0.17      0.00
   -3    7    5      0.16      0.00
   -2    7    5      0.34      0.00
   -1    7    5     -0.15      0.00
    0    7    5      0.16      0.00
    1    7    5      0.04      0.00
    2    7    5      0.00      0.00
    3    7    5      0.21      0.00
    4    7    5      0.06      0.00
    5    7    5      0.03      0.00
    6    7    5     -0.27      0.00
    7    7    5      0.10      0.00
    8    7    5     -0.02      0.00
    9    7    5     -0.14      0.00
  -17    8    5      0.57      0.00
  -16    8    5     -0.20      0.00
  -15    8    5      0.35      0.00
  -14    8    5      0.02      0.00
  -13    8    5     -0.15      0.00
  -12    8    5      0.09      0.00
  -11    8    5     -0.12      0.00
  -10    8    5     -0.24      0.00
   -9    8    5     -0.08      0.00
   -8    8    5      0.08      0.00
   -7    8    5     -0.04      0.00
   -6    8    5     -0.14      0.00
   -5    8    5      0.32      0.00
   -4    8    5     -0.37      0.00
   -3    8    5      0.02      0.00
   -2    8    5      0.09      0.00
   -1    8    5      0.12      0.00
    0    8    5      0.21      0.00
    1    8    5      0.03      0.00
    2    8    5     -0.13      0.00
    3    8    5      0.09      0.00
    4    8    5     -0.22      0.00
    5    8    5      0.11      0.00
    6    8    5     -0.09      0.00
    7    8    5      0.05      0.00
    8    8    5      0.20      0.00
  -16    9    5      0.14      0.00
  -15    9    5     -0.39      0.00
  -14    9    5      0.05      0.00
  -13    9    5      0.06      0.00
  -12    9    5      0.07      0.00
  -11    9    5      0.34      0.00
  -10    9    5      0.39      0.00
   -8    9    5      0.24      0.00
   -7    9    5     -0.17      0.00
   -6    9    5     -0.12      0.00
   -5    9    5     -0.10      0.00
   -4    9    5      0.06      0.00
   -3    9    5      0.13      0.00
   -2    9    5     -0.43      0.00
   -1    9    5      0.06      0.00
    0    9    5     -0.06      0.00
    2    9    5     -0.03      0.00
    3    9    5      0.10      0.00
    4    9    5      0.15      0.00
    5    9    5     -0.14      0.00
    6    9    5      0.83      0.00
    7    9    5     -0.33      0.00
  -16   10    5      0.08      0.00
  -15   10    5      0.27      0.00
  -14   10    5      0.11      0.00
  -13   10    5      0.05      0.00
  -12   10    5     -0.24      0.00
  -11   10    5     -0.08      0.00
  -10   10    5      0.12      0.00
   -9   10    5     -0.15      0.00
   -8   10    5      0.16      0.00
   -7   10    5      0.05      0.00
   -6   10    5     -0.04      0.00
   -5   10    5      0.31      0.00
   -4   10    5     -0.14      0.00
   -3   10    5     -0.05      0.00
   -2   10    5     -0.10      0.00
   -1   10    5     -0.34      0.00
    0   10    5      0.01      0.00
    3   10    5      0.11      0.00
    4   10    5     -0.14      0.00
    5   10    5     -0.22      0.00
    6   10    5     -0.19      0.00
  -15   11    5      0.32      0.00
  -14   11    5     -0.53      0.00
  -13   11    5      0.01      0.00
  -12   11    5     -0.04      0.00
  -11   11    5      0.14      0.00
  -10   11    5     -0.44      0.00
   -9   11    5      0.46      0.00
   -8   11    5     -0.14      0.00
   -7   11    5      0.29      0.00
   -6   11    5      0.18      0.00
   -5   11    5     -0.09      0.00
   -4   11    5     -0.02      0.00
   -3   11    5      0.33      0.00
   -2   11    5     -0.09      0.00
   -1   11    5      0.86      0.00
    0   11    5     -0.07      0.00
    2   11    5     -0.11      0.00
    3   11    5     -0.02      0.00
    4   11    5     -0.27      0.00
  -14   12    5      0.24      0.00
  -13   12    5     -0.16      0.00
  -12   12    5      0.05      0.00
  -11   12    5      0.18      0.00
  -10   12    5     -0.01      0.00
   -9   12    5      0.14      0.00
   -8   12    5     -0.14      0.00
   -7   12    5     -0.15      0.00
   -6   12    5     -0.37      0.00
   -5   12    5      0.10      0.00
   -4   12    5     -0.04      0.00
   -3   12    5      0.09      0.00
   -2   12    5     -0.41      0.00
   -1   12    5     -0.14      0.00
    0   12    5     -0.26      0.00
    1   12    5     -0.09      0.00
    2   12    5     -0.04      0.00
    3   12    5      0.25      0.00
  -13   13    5     -0.03      0.00
  -12   13    5     -0.06      0.00
  -11   13    5     -0.17      0.00
  -10   13    5     -0.10      0.00
   -9   13    5     -0.14      0.00
   -8   13    5     -0.29      0.00
   -7   13    5      0.16      0.00
   -6   13    5     -0.14      0.00
   -5   13    5      0.20      0.00
   -4   13    5     -0.19      0.00
   -3   13    5      0.32      0.00
   -2   13    5     -0.21      0.00
   -1   13    5      0.37      0.00
    0   13    5      0.05      0.00
  -11   14    5      0.04      0.00
  -10   14    5     -0.26      0.00
   -9   14    5      0.24      0.00
   -8   14    5      0.31      0.00
   -7   14    5     -0.08      0.00
   -6   14    5      0.12      0.00
   -5   14    5      0.05      0.00
   -4   14    5     -0.34      0.00
   -3   14    5      0.18      0.00
   -2   14    5      0.14      0.00
    1  -17    6      0.13      0.00
    2  -17    6      0.34      0.00
    3  -17    6     -0.37      0.00
    4  -17    6      0.53      0.00
    5  -17    6     -0.02      0.00
    6  -17    6      0.17      0.00
    7  -17    6      0.46      0.00
    8  -17    6     -0.16      0.00
    9  -17    6      0.15      0.00
   10  -17    6     -0.08      0.00
   -2  -16    6      0.09      0.00
   -1  -16    6     -0.36      0.00
    0  -16    6      0.05      0.00
    1  -16    6     -0.55      0.00
    2  -16    6      0.15      0.00
    3  -16    6     -0.34      0.00
    4  -16    6      0.20      0.00
    5  -16    6      0.07      0.00
    6  -16    6     -0.53      0.00
    7  -16    6     -0.07      0.00
    8  -16    6     -0.13      0.00
    9  -16    6      0.04      0.00
   10  -16    6     -0.35      0.00
   11  -16    6     -0.13      0.00
   12  -16    6      0.18      0.00
   -4  -15    6      0.03      0.00
   -3  -15    6     -0.16      0.00
   -2  -15    6      0.01      0.00
   -1  -15    6      0.02      0.00
    0  -15    6      0.09      0.00
    1  -15    6      0.13      0.00
    2  -15    6     -0.03      0.00
    3  -15    6     -0.30      0.00
    4  -15    6     -0.19      0.00
    5  -15    6      0.09      0.00
    6  -15    6      0.07      0.00
    7  -15    6     -0.10      0.00
    8  -15    6      0.28      0.00
    9  -15    6     -0.13      0.00
   10  -15    6      0.41      0.00
   11  -15    6     -0.36      0.00
   12  -15    6      0.55      0.00
   13  -15    6      0.04      0.00
   -6  -14    6      0.20      0.00
   -5  -14    6     -0.29      0.00
   -4  -14    6      0.15      0.00
   -3  -14    6      0.07      0.00
   -2  -14    6     -0.08      0.00
   -1  -14    6      0.12      0.00
    0  -14    6     -0.11      0.00
    1  -14    6      0.14      0.00
    2  -14    6      0.25      0.00
    3  -14    6      0.20      0.00
    4  -14    6      0.21      0.00
    5  -14    6     -0.05      0.00
    6  -14    6      0.18      0.00
    7  -14    6     -0.12      0.00
    8  -14    6     -0.26      0.00
    9  -14    6      0.28      0.00
   10  -14    6      0.09      0.00
   11  -14    6     -0.29      0.00
   12  -14    6      0.27      0.00
   13  -14    6     -0.38      0.00
   14  -14    6     -0.13      0.00
   -7  -13    6     -0.08      0.00
   -6  -13    6      0.09      0.00
   -5  -13    6      0.10      0.00
   -4  -13    6     -0.33      0.00
   -3  -13    6      0.48      0.00
   -2  -13    6     -0.53      0.00
   -1  -13    6      0.28      0.00
    0  -13    6     -0.21      0.00
    1  -13    6     -0.13      0.00
    2  -13    6      0.08      0.00
    3  -13    6     -0.49      0.00
    4  -13    6     -0.11      0.00
    5  -13    6     -0.19      0.00
    6  -13    6      0.00      0.00
    7  -13    6      0.35      0.00
    8  -13    6     -0.29      0.00
    9  -13    6      0.34      0.00
   10  -13    6     -0.55      0.00
   11  -13    6      0.19      0.00
   12  -13    6      0.03      0.00
   13  -13    6     -0.05      0.00
   14  -13    6      0.10      0.00
   -8  -12    6      0.29      0.00
   -7  -12    6     -0.03      0.00
   -5  -12    6      0.16      0.00
   -4  -12    6     -0.16      0.00
   -3  -12    6      0.28      0.00
   -2  -12    6     -0.02      0.00
   -1  -12    6      0.07      0.00
    0  -12    6     -0.04      0.00
    1  -12    6     -0.08      0.00
    2  -12    6      0.04      0.00
    3  -12    6      0.15      0.00
    4  -12    6      0.34      0.00
    5  -12    6      0.07      0.00
    6  -12    6     -0.32      0.00
    7  -12    6      0.20      0.00
    8  -12    6     -0.21      0.00
    9  -12    6      0.23      0.00
   10  -12    6     -0.07      0.00
   11  -12    6      0.11      0.00
   12  -12    6     -0.10      0.00
   13  -12    6      0.16      0.00
   14  -12    6      0.00      0.00
   15  -12    6      0.11      0.00
  -10  -11    6     -0.31      0.00
   -9  -11    6      0.07      0.00
   -8  -11    6     -0.14      0.00
   -7  -11    6     -0.13      0.00
   -6  -11    6     -0.11      0.00
   -5  -11    6      0.16      0.00
   -4  -11    6     -0.10      0.00
   -3  -11    6      0.04      0.00
   -2  -11    6      0.28      0.00
   -1  -11    6     -0.18      0.00
    0  -11    6     -0.03      0.00
    1  -11    6      0.28      0.00
    2  -11    6     -0.37      0.00
    3  -11    6      0.29      0.00
    4  -11    6     -0.19      0.00
    5  -11    6      0.13      0.00
    6  -11    6     -0.10      0.00
    7  -11    6      0.10      0.00
    8  -11    6      0.24      0.00
    9  -11    6     -0.27      0.00
   10  -11    6      0.33      0.00
   11  -11    6      0.12      0.00
   12  -11    6     -0.22      0.00
   13  -11    6      0.45      0.00
   14  -11    6     -0.51      0.00
   15  -11    6      0.09      0.00
  -11  -10    6      0.20      0.00
  -10  -10    6     -0.15      0.00
   -9  -10    6     -0.20      0.00
   -8  -10    6      0.16      0.00
   -7  -10    6     -0.18      0.00
   -6  -10    6     -0.19      0.00
   -5  -10    6      0.15      0.00
   -4  -10    6      0.04      0.00
   -3  -10    6     -0.27      0.00
   -1  -10    6      0.18      0.00
    0  -10    6      0.09      0.00
    1  -10    6      0.52      0.00
    2  -10    6     -0.19      0.00
    3  -10    6     -0.16      0.00
    4  -10    6      0.29      0.00
    5  -10    6     -0.03      0.00
    6  -10    6     -0.01      0.00
    7  -10    6     -0.30      0.00
    8  -10    6      0.11      0.00
    9  -10    6     -0.05      0.00
   10  -10    6     -0.13      0.00
   11  -10    6     -0.13      0.00
   12  -10    6     -0.16      0.00
   13  -10    6     -0.01      0.00
   14  -10    6     -0.34      0.00
   15  -10    6      0.33      0.00
  -12   -9    6      0.07      0.00
  -11   -9    6      0.21      0.00
  -10   -9    6     -0.21      0.00
   -9   -9    6      0.09      0.00
   -8   -9    6     -0.13      0.00
   -7   -9    6      0.00      0.00
   -6   -9    6     -0.10      0.00
   -5   -9    6     -0.03      0.00
   -4   -9    6     -0.41      0.00
   -3   -9    6      0.05      0.00
    0   -9    6     -0.19      0.00
    1   -9    6      0.23      0.00
    2   -9    6     -0.16      0.00
    3   -9    6     -0.23      0.00
    4   -9    6      0.15      0.00
    5   -9    6     -0.44      0.00
    6   -9    6      0.29      0.00
    7   -9    6     -0.03      0.00
    8   -9    6     -0.15      0.00
    9   -9    6     -0.22      0.00
   10   -9    6      0.08      0.00
   11   -9    6      0.04      0.00
   12   -9    6      0.51      0.00
   13   -9    6     -0.10      0.00
   14   -9    6      0.08      0.00
   15   -9    6      0.44      0.00
   16   -9    6      0.38      0.00
  -12   -8    6      0.06      0.00
  -11   -8    6      0.15      0.00
  -10   -8    6     -0.25      0.00
   -9   -8    6      0.52      0.00
   -8   -8    6     -0.01      0.00
   -7   -8    6      0.02      0.00
   -6   -8    6      0.07      0.00
   -5   -8    6      0.03      0.00
   -4   -8    6      0.09      0.00
   -3   -8    6      0.02      0.00
   -1   -8    6     -0.46      0.00
    0   -8    6     -0.12      0.00
    1   -8    6     -0.01      0.00
    2   -8    6      0.38      0.00
    3   -8    6     -0.20      0.00
    4   -8    6      0.40      0.00
    6   -8    6     -0.15      0.00
    7   -8    6     -0.06      0.00
    8   -8    6      0.20      0.00
    9   -8    6      0.38      0.00
   10   -8    6     -0.13      0.00
   11   -8    6     -0.12      0.00
   12   -8    6     -0.19      0.00
   13   -8    6      0.20      0.00
   14   -8    6     -0.15      0.00
   15   -8    6     -0.07      0.00
   16   -8    6     -0.29      0.00
  -13   -7    6     -0.33      0.00
  -12   -7    6      0.06      0.00
  -11   -7    6      0.17      0.00
  -10   -7    6     -0.31      0.00
   -9   -7    6      0.11      0.00
   -8   -7    6     -0.03      0.00
   -7   -7    6      0.14      0.00
   -6   -7    6     -0.21      0.00
   -5   -7    6      0.07      0.00
   -4   -7    6     -0.09      0.00
   -3   -7    6     -0.17      0.00
    0   -7    6     -0.52      0.00
    1   -7    6      0.19      0.00
    2   -7    6     -0.20      0.00
    3   -7    6      0.22      0.00
    5   -7    6      0.03      0.00
    6   -7    6      0.15      0.00
    7   -7    6      0.04      0.00
    8   -7    6      0.06      0.00
    9   -7    6     -0.18      0.00
   10   -7    6     -0.02      0.00
   11   -7    6     -0.15      0.00
   12   -7    6     -0.09      0.00
   13   -7    6     -0.15      0.00
   14   -7    6      0.46      0.00
   15   -7    6     -0.20      0.00
   16   -7    6      0.71      0.00
  -14   -6    6      0.59      0.00
  -13   -6    6      0.07      0.00
  -12   -6    6      0.12      0.00
  -11   -6    6      0.24      0.00
  -10   -6    6     -0.01      0.00
   -9   -6    6      0.17      0.00
   -8   -6    6     -0.23      0.00
   -7   -6    6      0.02      0.00
   -6   -6    6      0.27      0.00
   -5   -6    6     -0.01      0.00
   -4   -6    6      0.15      0.00
   -3   -6    6      0.05      0.00
   -2   -6    6      0.07      0.00
    0   -6    6     -0.48      0.00
    1   -6    6      0.46      0.00
    2   -6    6     -0.62      0.00
    3   -6    6      0.31      0.00
    4   -6    6      0.21      0.00
    5   -6    6      0.31      0.00
    6   -6    6      0.09      0.00
    7   -6    6     -0.08      0.00
    8   -6    6     -0.05      0.00
    9   -6    6     -0.16      0.00
   10   -6    6      0.31      0.00
   11   -6    6      0.26      0.00
   12   -6    6      0.06      0.00
   13   -6    6     -0.40      0.00
   14   -6    6      0.34      0.00
   15   -6    6     -0.65      0.00
   16   -6    6      0.02      0.00
  -14   -5    6     -0.10      0.00
  -13   -5    6     -0.19      0.00
  -12   -5    6      0.04      0.00
  -11   -5    6     -0.23      0.00
  -10   -5    6     -0.19      0.00
   -9   -5    6     -0.14      0.00
   -8   -5    6      0.31      0.00
   -7   -5    6     -0.22      0.00
   -6   -5    6      0.09      0.00
   -5   -5    6     -0.22      0.00
   -4   -5    6      0.12      0.00
   -3   -5    6     -0.34      0.00
   -2   -5    6     -0.19      0.00
   -1   -5    6      0.66      0.00
    0   -5    6     -0.07      0.00
    1   -5    6      0.05      0.00
    2   -5    6      0.26      0.00
    3   -5    6      0.11      0.00
    4   -5    6     -0.17      0.00
    5   -5    6     -0.12      0.00
    6   -5    6      0.01      0.00
    7   -5    6     -0.09      0.00
    8   -5    6      0.11      0.00
    9   -5    6      0.37      0.00
   10   -5    6     -0.20      0.00
   11   -5    6      0.30      0.00
   12   -5    6      0.13      0.00
   13   -5    6     -0.22      0.00
   14   -5    6     -0.13      0.00
   15   -5    6      0.41      0.00
  -15   -4    6      0.08      0.00
  -14   -4    6     -0.24      0.00
  -13   -4    6      0.09      0.00
  -12   -4    6     -0.09      0.00
  -11   -4    6     -0.22      0.00
  -10   -4    6      0.17      0.00
   -9   -4    6      0.22      0.00
   -8   -4    6     -0.17      0.00
   -6   -4    6      0.10      0.00
   -5   -4    6      0.29      0.00
   -4   -4    6      0.32      0.00
   -3   -4    6     -0.08      0.00
   -2   -4    6      0.28      0.00
   -1   -4    6     -0.49      0.00
    0   -4    6     -0.48      0.00
    3   -4    6     -0.62      0.00
    4   -4    6     -0.13      0.00
    5   -4    6     -0.18      0.00
    6   -4    6     -0.03      0.00
    7   -4    6      0.16      0.00
    8   -4    6     -0.25      0.00
    9   -4    6     -0.42      0.00
   10   -4    6     -0.21      0.00
   11   -4    6     -0.46      0.00
   12   -4    6      0.38      0.00
   13   -4    6     -0.25      0.00
   14   -4    6      0.12      0.00
   15   -4    6     -0.11      0.00
  -16   -3    6      0.06      0.00
  -15   -3    6      0.13      0.00
  -14   -3    6      0.09      0.00
  -13   -3    6      0.02      0.00
  -12   -3    6      0.31      0.00
  -11   -3    6      0.33      0.00
  -10   -3    6     -0.56      0.00
   -9   -3    6      0.33      0.00
   -8   -3    6     -0.40      0.00
   -7   -3    6      0.04      0.00
   -6   -3    6     -0.20      0.00
   -5   -3    6     -0.27      0.00
   -4   -3    6      0.82      0.00
   -3   -3    6     -0.29      0.00
   -2   -3    6      0.06      0.00
   -1   -3    6      1.23      0.00
    0   -3    6     -0.18      0.00
    2   -3    6      0.01      0.00
    3   -3    6      0.31      0.00
    4   -3    6     -0.02      0.00
    5   -3    6     -0.41      0.00
    6   -3    6     -0.26      0.00
    7   -3    6      0.24      0.00
    8   -3    6      0.11      0.00
    9   -3    6     -0.08      0.00
   10   -3    6      0.34      0.00
   11   -3    6     -0.20      0.00
   12   -3    6     -0.26      0.00
   13   -3    6      0.47      0.00
   14   -3    6     -0.17      0.00
   15   -3    6      0.14      0.00
  -16   -2    6     -0.24      0.00
  -15   -2    6     -0.01      0.00
  -14   -2    6     -0.21      0.00
  -13   -2    6     -0.22      0.00
  -12   -2    6     -0.09      0.00
  -11   -2    6      0.13      0.00
  -10   -2    6     -0.21      0.00
   -9   -2    6     -0.05      0.00
   -8   -2    6     -0.20      0.00
   -7   -2    6      0.20      0.00
   -6   -2    6     -0.18      0.00
   -5   -2    6     -0.22      0.00
   -4   -2    6      0.36      0.00
   -3   -2    6     -0.02      0.00
   -2   -2    6     -0.04      0.00
   -1   -2    6     -0.36      0.00
    0   -2    6      0.01      0.00
    3   -2    6      0.26      0.00
    4   -2    6      0.23      0.00
    5   -2    6     -0.07      0.00
    6   -2    6     -0.28      0.00
    7   -2    6      0.02      0.00
    8   -2    6     -0.05      0.00
    9   -2    6     -0.17      0.00
   10   -2    6      0.12      0.00
   11   -2    6      0.31      0.00
   12   -2    6     -0.07      0.00
   13   -2    6     -0.10      0.00
   14   -2    6     -0.33      0.00
   15   -2    6      0.16      0.00
  -16   -1    6      0.07      0.00
  -15   -1    6      0.12      0.00
  -14   -1    6      0.11      0.00
  -13   -1    6      0.22      0.00
  -12   -1    6     -0.06      0.00
  -11   -1    6      0.13      0.00
  -10   -1    6      0.06      0.00
   -9   -1    6      0.37      0.00
   -8   -1    6      0.02      0.00
   -7   -1    6     -0.32      0.00
   -6   -1    6     -0.27      0.00
   -5   -1    6     -0.52      0.00
   -4   -1    6     -1.96      0.00
   -3   -1    6      0.67      0.00
   -2   -1    6     -0.17      0.00
    0   -1    6      0.66      0.00
    1   -1    6     -0.41      0.00
    2   -1    6      0.90      0.00
    3   -1    6     -0.14      0.00
    4   -1    6      0.97      0.00
    5   -1    6      0.16      0.00
    6   -1    6     -0.11      0.00
    7   -1    6      0.19      0.00
    8   -1    6      0.05      0.00
    9   -1    6      0.17      0.00
   10   -1    6     -0.31      0.00
   11   -1    6      0.12      0.00
   12   -1    6     -0.10      0.00
   13   -1    6      0.20      0.00
   14   -1    6     -0.41      0.00
  -17    0    6     -0.32      0.00
  -16    0    6     -0.10      0.00
  -15    0    6      0.05      0.00
  -14    0    6     -0.20      0.00
  -13    0    6     -0.06      0.00
  -12    0    6     -0.01      0.00
  -11    0    6      0.30      0.00
  -10    0    6     -0.14      0.00
   -9    0    6     -0.20      0.00
   -8    0    6      0.10      0.00
   -7    0    6     -0.03      0.00
   -6    0    6      0.25      0.00
   -5    0    6      1.60      0.00
   -4    0    6     -0.40      0.00
   -3    0    6      1.20      0.00
    0    0    6      0.25      0.00
    1    0    6      0.21      0.00
    2    0    6     -0.40      0.00
    3    0    6     -0.13      0.00
    4    0    6      0.11      0.00
    5    0    6      0.18      0.00
    6    0    6      0.03      0.00
    7    0    6      0.26      0.00
    8    0    6     -0.15      0.00
    9    0    6      0.25      0.00
   10    0    6     -0.39      0.00
   11    0    6      0.09      0.00
   12    0    6     -0.05      0.00
   13    0    6      0.33      0.00
   14    0    6      0.17      0.00
  -17    1    6     -0.02      0.00
  -16    1    6      0.51      0.00
  -15    1    6     -0.10      0.00
  -14    1    6     -0.13      0.00
  -13    1    6      0.03      0.00
  -12    1    6     -0.21      0.00
  -11    1    6     -0.39      0.00
  -10    1    6      0.15      0.00
   -9    1    6      0.21      0.00
   -8    1    6      0.26      0.00
   -7    1    6      0.81      0.00
   -6    1    6      0.17      0.00
   -5    1    6      0.59      0.00
   -4    1    6     -1.05      0.00
   -3    1    6     -0.28      0.00
   -2    1    6      0.13      0.00
   -1    1    6     -0.53      0.00
    0    1    6     -0.32      0.00
    1    1    6      0.56      0.00
    2    1    6     -0.98      0.00
    3    1    6      0.26      0.00
    4    1    6     -0.46      0.00
    5    1    6      0.19      0.00
    6    1    6     -0.13      0.00
    7    1    6     -0.04      0.00
    8    1    6     -0.12      0.00
    9    1    6      0.21      0.00
   10    1    6      0.15      0.00
   11    1    6      0.07      0.00
   12    1    6      0.07      0.00
   13    1    6     -0.04      0.00
  -17    2    6      0.05      0.00
  -16    2    6     -0.32      0.00
  -15    2    6      0.24      0.00
  -14    2    6      0.22      0.00
  -13    2    6     -0.19      0.00
  -12    2    6      0.08      0.00
  -11    2    6      0.16      0.00
  -10    2    6     -0.01      0.00
   -9    2    6     -0.32      0.00
   -8    2    6      0.39      0.00
   -7    2    6     -1.94      0.00
   -6    2    6      0.13      0.00
   -5    2    6     -0.21      0.00
   -4    2    6     -0.32      0.00
   -2    2    6      0.16      0.00
   -1    2    6      0.07      0.00
    0    2    6     -0.16      0.00
    1    2    6     -0.12      0.00
    2    2    6      0.34      0.00
    3    2    6     -0.13      0.00
    4    2    6      0.05      0.00
    5    2    6     -0.01      0.00
    6    2    6      0.07      0.00
    7    2    6      0.03      0.00
    8    2    6      0.36      0.00
    9    2    6     -0.14      0.00
   10    2    6     -0.03      0.00
   11    2    6      0.09      0.00
   12    2    6     -0.14      0.00
   13    2    6     -0.37      0.00
  -17    3    6      0.17      0.00
  -16    3    6     -0.12      0.00
  -15    3    6     -0.18      0.00
  -14    3    6      0.36      0.00
  -13    3    6     -0.09      0.00
  -12    3    6      0.04      0.00
  -11    3    6     -0.15      0.00
  -10    3    6     -0.15      0.00
   -9    3    6     -0.44      0.00
   -8    3    6     -0.14      0.00
   -7    3    6      0.25      0.00
   -6    3    6      0.19      0.00
   -5    3    6     -0.05      0.00
   -4    3    6     -0.08      0.00
   -3    3    6      0.51      0.00
   -2    3    6     -0.34      0.00
   -1    3    6      0.05      0.00
    0    3    6      0.23      0.00
    1    3    6     -0.05      0.00
    2    3    6      0.00      0.00
    3    3    6     -0.22      0.00
    4    3    6     -0.10      0.00
    5    3    6      0.20      0.00
    6    3    6     -0.37      0.00
    7    3    6      0.04      0.00
    8    3    6      0.10      0.00
    9    3    6     -0.13      0.00
   10    3    6     -0.07      0.00
   11    3    6      0.34      0.00
   12    3    6      0.07      0.00
  -17    4    6      0.06      0.00
  -16    4    6     -0.13      0.00
  -15    4    6      0.02      0.00
  -14    4    6     -0.18      0.00
  -13    4    6      0.14      0.00
  -12    4    6      0.31      0.00
  -11    4    6     -0.23      0.00
  -10    4    6      0.37      0.00
   -9    4    6      0.59      0.00
   -8    4    6     -0.32      0.00
   -7    4    6      0.00      0.00
   -6    4    6      0.18      0.00
   -5    4    6      0.07      0.00
   -4    4    6     -0.37      0.00
   -3    4    6     -0.10      0.00
   -2    4    6      0.06      0.00
   -1    4    6      0.30      0.00
    0    4    6     -0.05      0.00
    1    4    6      0.12      0.00
    2    4    6     -0.02      0.00
    3    4    6      0.00      0.00
    4    4    6     -0.01      0.00
    5    4    6     -0.27      0.00
    6    4    6     -0.14      0.00
    7    4    6     -0.13      0.00
    8    4    6     -0.31      0.00
    9    4    6      0.25      0.00
   10    4    6      0.03      0.00
   11    4    6     -0.53      0.00
  -17    5    6     -0.19      0.00
  -16    5    6      0.06      0.00
  -15    5    6      0.04      0.00
  -14    5    6     -0.18      0.00
  -13    5    6      0.09      0.00
  -12    5    6     -0.05      0.00
  -11    5    6     -0.29      0.00
  -10    5    6      0.13      0.00
   -9    5    6      0.25      0.00
   -7    5    6      0.49      0.00
   -6    5    6     -0.11      0.00
   -5    5    6      0.14      0.00
   -4    5    6     -0.13      0.00
   -3    5    6      0.11      0.00
   -2    5    6     -0.20      0.00
   -1    5    6     -0.29      0.00
    0    5    6     -0.26      0.00
    1    5    6      0.06      0.00
    2    5    6     -0.15      0.00
    3    5    6      0.03      0.00
    4    5    6     -0.09      0.00
    5    5    6      0.13      0.00
    6    5    6      0.23      0.00
    7    5    6     -0.03      0.00
    8    5    6      0.05      0.00
    9    5    6     -0.22      0.00
   10    5    6     -0.03      0.00
  -17    6    6      0.83      0.00
  -16    6    6     -0.21      0.00
  -15    6    6     -0.17      0.00
  -14    6    6      0.24      0.00
  -13    6    6     -0.20      0.00
  -12    6    6      0.21      0.00
  -11    6    6      0.31      0.00
  -10    6    6     -0.23      0.00
   -9    6    6      0.08      0.00
   -8    6    6     -0.16      0.00
   -7    6    6      0.09      0.00
   -6    6    6     -0.31      0.00
   -5    6    6      0.41      0.00
   -4    6    6     -0.16      0.00
   -3    6    6      0.19      0.00
   -1    6    6      0.04      0.00
    0    6    6      0.16      0.00
    1    6    6      0.00      0.00
    2    6    6      0.05      0.00
    3    6    6      0.34      0.00
    4    6    6     -0.11      0.00
    5    6    6      0.23      0.00
    6    6    6     -0.26      0.00
    7    6    6     -0.16      0.00
    8    6    6     -0.03      0.00
    9    6    6     -0.11      0.00
  -17    7    6      0.17      0.00
  -16    7    6     -0.12      0.00
  -15    7    6      0.23      0.00
  -14    7    6      0.27      0.00
  -13    7    6     -0.40      0.00
  -12    7    6      0.04      0.00
  -11    7    6     -0.05      0.00
  -10    7    6     -0.35      0.00
   -9    7    6     -0.04      0.00
   -8    7    6     -0.18      0.00
   -7    7    6     -0.20      0.00
   -6    7    6      0.11      0.00
   -5    7    6      0.04      0.00
   -4    7    6     -0.12      0.00
   -3    7    6      0.03      0.00
   -2    7    6     -0.20      0.00
   -1    7    6      0.13      0.00
    0    7    6      0.38      0.00
    1    7    6     -0.20      0.00
    2    7    6      0.10      0.00
    3    7    6      0.11      0.00
    4    7    6     -0.49      0.00
    5    7    6      0.28      0.00
    6    7    6      0.14      0.00
    7    7    6     -0.17      0.00
    8    7    6      0.10      0.00
  -17    8    6     -0.01      0.00
  -16    8    6     -0.27      0.00
  -15    8    6     -0.14      0.00
  -14    8    6      0.15      0.00
  -13    8    6     -0.09      0.00
  -12    8    6      0.00      0.00
  -11    8    6      0.21      0.00
  -10    8    6      0.16      0.00
   -9    8    6     -0.12      0.00
   -8    8    6      0.20      0.00
   -7    8    6      0.04      0.00
   -6    8    6     -0.30      0.00
   -5    8    6     -0.07      0.00
   -4    8    6     -0.03      0.00
   -3    8    6      0.32      0.00
   -2    8    6     -0.13      0.00
   -1    8    6      0.21      0.00
    0    8    6     -0.01      0.00
    1    8    6     -0.58      0.00
    2    8    6      0.34      0.00
    3    8    6     -0.22      0.00
    4    8    6      0.06      0.00
    5    8    6     -0.10      0.00
    6    8    6      0.59      0.00
    7    8    6     -0.02      0.00
  -16    9    6     -0.09      0.00
  -15    9    6      0.21      0.00
  -14    9    6      0.25      0.00
  -13    9    6      0.02      0.00
  -12    9    6     -0.03      0.00
  -11    9    6     -0.08      0.00
  -10    9    6      0.05      0.00
   -9    9    6      0.01      0.00
   -8    9    6      0.01      0.00
   -7    9    6     -0.02      0.00
   -6    9    6     -0.24      0.00
   -5    9    6      0.25      0.00
   -4    9    6     -0.12      0.00
   -3    9    6     -0.05      0.00
   -2    9    6     -0.46      0.00
   -1    9    6     -0.18      0.00
    0    9    6     -0.43      0.00
    1    9    6      0.24      0.00
    2    9    6      0.35      0.00
    3    9    6      0.03      0.00
    4    9    6      0.11      0.00
    5    9    6     -0.21      0.00
    6    9    6      0.03      0.00
  -16   10    6     -0.18      0.00
  -15   10    6     -0.07      0.00
  -14   10    6     -0.47      0.00
  -13   10    6     -0.12      0.00
  -12   10    6      0.08      0.00
  -11   10    6     -0.08      0.00
  -10   10    6     -0.27      0.00
   -9   10    6      0.11      0.00
   -8   10    6     -0.26      0.00
   -7   10    6      0.52      0.00
   -6   10    6      0.18      0.00
   -5   10    6     -0.04      0.00
   -4   10    6      0.07      0.00
   -3   10    6      0.50      0.00
   -2   10    6     -0.76      0.00
   -1   10    6      1.93      0.00
    0   10    6     -0.27      0.00
    2   10    6      0.13      0.00
    3   10    6      0.05      0.00
    4   10    6     -0.20      0.00
    5   10    6     -0.06      0.00
  -15   11    6      0.14      0.00
  -14   11    6      0.17      0.00
  -13   11    6     -0.14      0.00
  -12   11    6      0.11      0.00
  -11   11    6      0.12      0.00
  -10   11    6     -0.09      0.00
   -9   11    6      0.34      0.00
   -8   11    6     -0.13      0.00
   -7   11    6      0.07      0.00
   -6   11    6     -0.35      0.00
   -5   11    6     -0.10      0.00
   -4   11    6      0.11      0.00
   -3   11    6      0.27      0.00
   -2   11    6     -0.44      0.00
   -1   11    6     -0.10      0.00
    0   11    6     -0.33      0.00
    2   11    6     -0.15      0.00
    3   11    6      0.19      0.00
  -14   12    6      0.30      0.00
  -13   12    6     -0.23      0.00
  -12   12    6      0.17      0.00
  -11   12    6      0.04      0.00
  -10   12    6      0.06      0.00
   -9   12    6     -0.20      0.00
   -8   12    6      0.00      0.00
   -7   12    6      0.10      0.00
   -6   12    6     -0.03      0.00
   -5   12    6      0.07      0.00
   -4   12    6     -0.09      0.00
   -3   12    6     -0.16      0.00
   -2   12    6     -0.11      0.00
   -1   12    6      0.03      0.00
    0   12    6      0.25      0.00
    1   12    6     -0.01      0.00
  -12   13    6      0.02      0.00
  -11   13    6      0.08      0.00
  -10   13    6     -0.11      0.00
   -9   13    6     -0.07      0.00
   -8   13    6      0.22      0.00
   -7   13    6     -0.08      0.00
   -6   13    6     -0.03      0.00
   -5   13    6      0.20      0.00
   -4   13    6     -0.16      0.00
   -3   13    6      0.02      0.00
   -2   13    6      0.19      0.00
   -1   13    6     -0.15      0.00
  -10   14    6      0.12      0.00
   -9   14    6      0.00      0.00
   -8   14    6     -0.08      0.00
   -7   14    6     -0.04      0.00
   -6   14    6     -0.10      0.00
   -5   14    6     -0.14      0.00
   -4   14    6      0.21      0.00
    0  -17    7      0.06      0.00
    2  -17    7      0.33      0.00
    3  -17    7     -0.28      0.00
    4  -17    7      0.19      0.00
    5  -17    7     -0.21      0.00
    6  -17    7     -0.24      0.00
    7  -17    7     -0.16      0.00
    8  -17    7     -0.12      0.00
    9  -17    7     -0.11      0.00
   10  -17    7     -0.07      0.00
   -2  -16    7     -0.11      0.00
   -1  -16    7      0.14      0.00
    0  -16    7      0.15      0.00
    1  -16    7     -0.22      0.00
    2  -16    7      0.23      0.00
    3  -16    7     -0.39      0.00
    4  -16    7     -0.12      0.00
    5  -16    7     -0.28      0.00
    6  -16    7      0.41      0.00
    7  -16    7     -0.07      0.00
    8  -16    7      0.27      0.00
    9  -16    7     -0.09      0.00
   10  -16    7      0.45      0.00
   11  -16    7     -0.18      0.00
   -4  -15    7      0.16      0.00
   -3  -15    7      0.04      0.00
   -2  -15    7     -0.22      0.00
   -1  -15    7      0.13      0.00
    0  -15    7     -0.14      0.00
    2  -15    7      0.08      0.00
    3  -15    7      0.35      0.00
    4  -15    7     -0.12      0.00
    5  -15    7      0.03      0.00
    6  -15    7     -0.12      0.00
    7  -15    7      0.09      0.00
    8  -15    7     -0.46      0.00
    9  -15    7      0.10      0.00
   10  -15    7      0.04      0.00
   11  -15    7     -0.16      0.00
   12  -15    7      0.18      0.00
   13  -15    7     -0.37      0.00
   -6  -14    7      0.16      0.00
   -5  -14    7      0.03      0.00
   -4  -14    7     -0.17      0.00
   -3  -14    7      0.33      0.00
   -2  -14    7     -0.50      0.00
    0  -14    7     -0.43      0.00
    1  -14    7      0.14      0.00
    2  -14    7     -0.36      0.00
    3  -14    7      0.01      0.00
    4  -14    7      0.16      0.00
    5  -14    7     -0.12      0.00
    6  -14    7      0.00      0.00
    7  -14    7      0.32      0.00
    8  -14    7     -0.01      0.00
    9  -14    7      0.02      0.00
   10  -14    7      0.08      0.00
   11  -14    7     -0.18      0.00
   12  -14    7      0.32      0.00
   13  -14    7     -0.25      0.00
   -7  -13    7     -0.13      0.00
   -6  -13    7      0.36      0.00
   -5  -13    7      0.09      0.00
   -4  -13    7     -0.06      0.00
   -3  -13    7      0.03      0.00
   -2  -13    7      0.06      0.00
    0  -13    7      0.23      0.00
    1  -13    7     -0.08      0.00
    2  -13    7     -0.04      0.00
    3  -13    7      0.06      0.00
    4  -13    7      0.51      0.00
    5  -13    7     -0.37      0.00
    6  -13    7      0.17      0.00
    7  -13    7     -0.15      0.00
    8  -13    7     -0.08      0.00
    9  -13    7      0.14      0.00
   10  -13    7     -0.21      0.00
   11  -13    7      0.17      0.00
   12  -13    7      0.01      0.00
   13  -13    7     -0.04      0.00
   14  -13    7      0.44      0.00
   -9  -12    7     -0.07      0.00
   -8  -12    7      0.17      0.00
   -7  -12    7     -0.17      0.00
   -6  -12    7     -0.28      0.00
   -5  -12    7      0.34      0.00
   -4  -12    7     -0.08      0.00
   -3  -12    7      0.02      0.00
    0  -12    7      0.51      0.00
    1  -12    7      0.26      0.00
    2  -12    7     -0.17      0.00
    3  -12    7      0.03      0.00
    4  -12    7     -0.25      0.00
    5  -12    7      0.27      0.00
    6  -12    7      0.00      0.00
    7  -12    7      0.00      0.00
    8  -12    7     -0.07      0.00
    9  -12    7      0.07      0.00
   10  -12    7     -0.06      0.00
   11  -12    7      0.56      0.00
   12  -12    7     -0.11      0.00
   13  -12    7      0.08      0.00
   14  -12    7     -0.27      0.00
  -10  -11    7     -0.17      0.00
   -9  -11    7     -0.36      0.00
   -8  -11    7      0.22      0.00
   -7  -11    7     -0.09      0.00
   -6  -11    7     -0.09      0.00
   -5  -11    7      0.37      0.00
   -4  -11    7     -0.29      0.00
   -3  -11    7     -0.01      0.00
   -1  -11    7     -0.17      0.00
    0  -11    7     -0.06      0.00
    1  -11    7      0.11      0.00
    2  -11    7     -0.01      0.00
    3  -11    7     -0.08      0.00
    4  -11    7      0.00      0.00
    5  -11    7     -0.09      0.00
    6  -11    7     -0.04      0.00
    7  -11    7     -0.04      0.00
    8  -11    7      0.23      0.00
    9  -11    7      0.04      0.00
   10  -11    7     -0.38      0.00
   11  -11    7     -0.17      0.00
   12  -11    7     -0.58      0.00
   13  -11    7     -0.04      0.00
   14  -11    7     -0.11      0.00
   15  -11    7      0.18      0.00
  -11  -10    7      0.21      0.00
  -10  -10    7     -0.20      0.00
   -9  -10    7      0.24      0.00
   -8  -10    7     -0.11      0.00
   -7  -10    7     -0.14      0.00
   -6  -10    7     -0.15      0.00
   -5  -10    7      0.06      0.00
   -4  -10    7     -0.34      0.00
   -3  -10    7      0.27      0.00
   -1  -10    7     -0.08      0.00
    0  -10    7     -0.10      0.00
    1  -10    7      0.00      0.00
    2  -10    7      0.15      0.00
    3  -10    7     -0.05      0.00
    4  -10    7      0.06      0.00
    5  -10    7     -0.48      0.00
    6  -10    7      0.30      0.00
    7  -10    7     -0.10      0.00
    8  -10    7      0.00      0.00
    9  -10    7     -0.47      0.00
   10  -10    7      0.12      0.00
   11  -10    7      0.29      0.00
   12  -10    7      0.34      0.00
   13  -10    7      0.19      0.00
   14  -10    7      0.18      0.00
   15  -10    7      0.11      0.00
  -12   -9    7     -0.28      0.00
  -11   -9    7      0.12      0.00
  -10   -9    7     -0.20      0.00
   -9   -9    7      0.00      0.00
   -8   -9    7      0.25      0.00
   -7   -9    7     -0.47      0.00
   -6   -9    7      0.33      0.00
   -5   -9    7     -0.26      0.00
   -4   -9    7     -0.09      0.00
   -3   -9    7     -0.17      0.00
   -1   -9    7     -0.22      0.00
    0   -9    7      0.31      0.00
    1   -9    7     -0.63      0.00
    2   -9    7      0.10      0.00
    3   -9    7      0.08      0.00
    4   -9    7      0.01      0.00
    5   -9    7      0.61      0.00
    6   -9    7     -0.46      0.00
    7   -9    7     -0.02      0.00
    8   -9    7      0.03      0.00
    9   -9    7      0.31      0.00
   10   -9    7      0.05      0.00
   11   -9    7     -0.11      0.00
   12   -9    7     -0.02      0.00
   13   -9    7     -0.34      0.00
   14   -9    7      0.01      0.00
   15   -9    7     -0.05      0.00
  -13   -8    7      0.42      0.00
  -12   -8    7     -0.13      0.00
  -11   -8    7      0.18      0.00
  -10   -8    7     -0.21      0.00
   -9   -8    7      0.13      0.00
   -8   -8    7      0.24      0.00
   -7   -8    7      0.06      0.00
   -6   -8    7      0.08      0.00
   -5   -8    7      0.04      0.00
   -4   -8    7     -0.05      0.00
   -3   -8    7     -0.04      0.00
   -1   -8    7      0.18      0.00
    0   -8    7     -0.28      0.00
    1   -8    7      0.28      0.00
    2   -8    7     -0.35      0.00
    3   -8    7      0.38      0.00
    4   -8    7     -0.17      0.00
    5   -8    7     -0.21      0.00
    6   -8    7      0.06      0.00
    7   -8    7      0.33      0.00
    8   -8    7      0.09      0.00
    9   -8    7     -0.30      0.00
   10   -8    7      0.12      0.00
   11   -8    7     -0.22      0.00
   12   -8    7     -0.04      0.00
   13   -8    7     -0.10      0.00
   14   -8    7      0.39      0.00
   15   -8    7     -0.33      0.00
  -13   -7    7      0.13      0.00
  -12   -7    7      0.07      0.00
  -11   -7    7      0.07      0.00
  -10   -7    7     -0.09      0.00
   -9   -7    7      0.48      0.00
   -8   -7    7     -0.58      0.00
   -7   -7    7      0.15      0.00
   -6   -7    7      0.25      0.00
   -5   -7    7      0.06      0.00
   -4   -7    7      0.25      0.00
   -3   -7    7      0.23      0.00
   -2   -7    7      0.02      0.00
    0   -7    7      0.12      0.00
    1   -7    7      0.45      0.00
    2   -7    7     -0.41      0.00
    3   -7    7     -0.28      0.00
    4   -7    7      0.49      0.00
    5   -7    7     -0.22      0.00
    6   -7    7      0.06      0.00
    7   -7    7      0.19      0.00
    8   -7    7     -0.27      0.00
    9   -7    7     -0.08      0.00
   10   -7    7      0.06      0.00
   11   -7    7      0.05      0.00
   12   -7    7      0.42      0.00
   13   -7    7     -0.10      0.00
   14   -7    7      0.19      0.00
   15   -7    7     -0.90      0.00
  -14   -6    7     -0.65      0.00
  -13   -6    7      0.18      0.00
  -12   -6    7      0.33      0.00
  -11   -6    7     -0.16      0.00
  -10   -6    7     -0.24      0.00
   -9   -6    7      0.02      0.00
   -8   -6    7      0.23      0.00
   -7   -6    7     -0.32      0.00
   -6   -6    7      0.02      0.00
   -5   -6    7     -0.13      0.00
   -4   -6    7     -0.32      0.00
   -3   -6    7     -0.01      0.00
   -2   -6    7      0.04      0.00
   -1   -6    7      0.00      0.00
    0   -6    7     -0.03      0.00
    1   -6    7      0.28      0.00
    2   -6    7     -0.34      0.00
    3   -6    7      0.33      0.00
    4   -6    7      0.00      0.00
    5   -6    7      0.09      0.00
    6   -6    7     -0.04      0.00
    7   -6    7      0.07      0.00
    8   -6    7      0.38      0.00
    9   -6    7      0.30      0.00
   10   -6    7      0.17      0.00
   11   -6    7     -0.24      0.00
   12   -6    7      0.31      0.00
   13   -6    7     -0.20      0.00
   14   -6    7     -0.27      0.00
   15   -6    7      0.29      0.00
  -15   -5    7      0.56      0.00
  -14   -5    7     -0.34      0.00
  -13   -5    7     -0.21      0.00
  -12   -5    7      0.05      0.00
  -11   -5    7     -0.31      0.00
  -10   -5    7      0.37      0.00
   -9   -5    7     -0.22      0.00
   -8   -5    7      0.15      0.00
   -7   -5    7      0.00      0.00
   -6   -5    7     -0.04      0.00
   -5   -5    7      0.55      0.00
   -4   -5    7     -0.18      0.00
   -3   -5    7      0.26      0.00
   -2   -5    7      0.34      0.00
   -1   -5    7     -0.63      0.00
    0   -5    7     -0.19      0.00
    1   -5    7      0.04      0.00
    2   -5    7      0.02      0.00
    3   -5    7     -0.43      0.00
    4   -5    7      0.17      0.00
    5   -5    7     -0.15      0.00
    6   -5    7     -0.30      0.00
    7   -5    7     -0.21      0.00
    8   -5    7     -0.10      0.00
    9   -5    7     -0.36      0.00
   10   -5    7      0.14      0.00
   11   -5    7     -0.78      0.00
   12   -5    7      0.25      0.00
   13   -5    7     -0.23      0.00
   14   -5    7      0.69      0.00
   15   -5    7     -0.25      0.00
  -15   -4    7      0.42      0.00
  -14   -4    7      0.02      0.00
  -13   -4    7      0.20      0.00
  -12   -4    7      0.23      0.00
  -11   -4    7      0.12      0.00
  -10   -4    7     -0.25      0.00
   -9   -4    7      0.11      0.00
   -8   -4    7     -0.19      0.00
   -7   -4    7      0.26      0.00
   -6   -4    7     -0.12      0.00
   -5   -4    7     -0.23      0.00
   -4   -4    7      0.37      0.00
   -3   -4    7     -0.06      0.00
   -2   -4    7      0.09      0.00
   -1   -4    7      0.79      0.00
    0   -4    7     -0.07      0.00
    1   -4    7      0.52      0.00
    2   -4    7     -0.04      0.00
    3   -4    7     -0.03      0.00
    4   -4    7      0.07      0.00
    5   -4    7     -0.13      0.00
    6   -4    7      0.01      0.00
    7   -4    7     -0.12      0.00
    8   -4    7      0.05      0.00
    9   -4    7      0.29      0.00
   10   -4    7      0.05      0.00
   11   -4    7     -0.06      0.00
   12   -4    7      0.07      0.00
   13   -4    7     -0.02      0.00
   14   -4    7     -0.04      0.00
   15   -4    7     -0.15      0.00
  -16   -3    7     -0.49      0.00
  -15   -3    7      0.03      0.00
  -14   -3    7     -0.47      0.00
  -13   -3    7      0.12      0.00
  -12   -3    7     -0.45      0.00
  -11   -3    7      0.03      0.00
  -10   -3    7      0.23      0.00
   -9   -3    7     -0.11      0.00
   -8   -3    7      0.01      0.00
   -7   -3    7     -0.06      0.00
   -6   -3    7      0.14      0.00
   -5   -3    7      0.43      0.00
   -4   -3    7     -0.46      0.00
   -3   -3    7      0.68      0.00
   -2   -3    7     -0.08      0.00
   -1   -3    7     -0.52      0.00
    0   -3    7     -0.09      0.00
    3   -3    7     -0.36      0.00
    4   -3    7      0.09      0.00
    5   -3    7      0.22      0.00
    6   -3    7      0.04      0.00
    7   -3    7     -0.11      0.00
    8   -3    7     -0.32      0.00
    9   -3    7      0.02      0.00
   10   -3    7     -0.15      0.00
   11   -3    7      0.38      0.00
   12   -3    7     -0.16      0.00
   13   -3    7     -0.13      0.00
   14   -3    7     -0.10      0.00
  -16   -2    7     -0.26      0.00
  -15   -2    7      0.16      0.00
  -14   -2    7      0.19      0.00
  -13   -2    7     -0.05      0.00
  -12   -2    7      0.24      0.00
  -11   -2    7     -0.06      0.00
  -10   -2    7     -0.08      0.00
   -9   -2    7      0.06      0.00
   -8   -2    7     -0.03      0.00
   -7   -2    7     -0.46      0.00
   -6   -2    7     -0.59      0.00
   -5   -2    7      0.51      0.00
   -4   -2    7     -3.24      0.00
   -3   -2    7      1.18      0.00
   -2   -2    7     -0.61      0.00
   -1   -2    7      0.33      0.00
    0   -2    7      0.13      0.00
    1   -2    7     -0.11      0.00
    3   -2    7     -0.73      0.00
    4   -2    7      0.61      0.00
    5   -2    7     -0.08      0.00
    6   -2    7     -0.13      0.00
    7   -2    7      0.03      0.00
    8   -2    7      0.04      0.00
    9   -2    7     -0.03      0.00
   10   -2    7     -0.05      0.00
   11   -2    7     -0.07      0.00
   12   -2    7     -0.05      0.00
   13   -2    7      0.20      0.00
   14   -2    7      0.17      0.00
  -16   -1    7     -0.17      0.00
  -15   -1    7     -0.19      0.00
  -14   -1    7      0.07      0.00
  -13   -1    7     -0.38      0.00
  -12   -1    7      0.14      0.00
  -11   -1    7      0.26      0.00
  -10   -1    7     -0.26      0.00
   -9   -1    7      0.45      0.00
   -8   -1    7      0.06      0.00
   -7   -1    7     -0.09      0.00
   -6   -1    7     -0.58      0.00
   -5   -1    7      1.89      0.00
   -4   -1    7     -0.12      0.00
   -3   -1    7      0.44      0.00
   -2   -1    7     -0.26      0.00
   -1   -1    7     -0.16      0.00
    0   -1    7     -0.53      0.00
    1   -1    7     -0.18      0.00
    2   -1    7      0.34      0.00
    3   -1    7     -0.38      0.00
    4   -1    7      0.17      0.00
    5   -1    7      0.10      0.00
    6   -1    7      0.19      0.00
    7   -1    7      0.16      0.00
    8   -1    7      0.08      0.00
    9   -1    7      0.11      0.00
   10   -1    7      0.12      0.00
   11   -1    7     -0.08      0.00
   12   -1    7      0.05      0.00
   13   -1    7      0.06      0.00
   14   -1    7      0.23      0.00
  -17    0    7      0.14      0.00
  -16    0    7      0.33      0.00
  -15    0    7     -0.06      0.00
  -14    0    7      0.24      0.00
  -13    0    7     -0.05      0.00
  -12    0    7     -0.17      0.00
  -11    0    7     -0.20      0.00
  -10    0    7     -0.15      0.00
   -9    0    7      0.04      0.00
   -8    0    7      0.11      0.00
   -7    0    7      0.55      0.00
   -6    0    7      0.29      0.00
   -5    0    7      0.19      0.00
   -4    0    7     -0.07      0.00
   -3    0    7     -0.60      0.00
   -2    0    7      0.25      0.00
   -1    0    7     -0.16      0.00
    0    0    7     -0.66      0.00
    1    0    7      0.40      0.00
    2    0    7     -0.64      0.00
    3    0    7      0.42      0.00
    4    0    7     -0.38      0.00
    5    0    7      0.31      0.00
    6    0    7     -0.13      0.00
    7    0    7      0.16      0.00
    8    0    7      0.00      0.00
    9    0    7     -0.20      0.00
   10    0    7      0.23      0.00
   11    0    7      0.05      0.00
   12    0    7      0.05      0.00
   13    0    7      0.10      0.00
  -17    1    7      0.33      0.00
  -16    1    7     -0.29      0.00
  -15    1    7      0.09      0.00
  -14    1    7      0.11      0.00
  -13    1    7      0.02      0.00
  -12    1    7     -0.22      0.00
  -11    1    7      0.18      0.00
  -10    1    7     -0.27      0.00
   -9    1    7     -0.13      0.00
   -8    1    7      0.53      0.00
   -7    1    7     -1.08      0.00
   -6    1    7      0.54      0.00
   -5    1    7     -0.54      0.00
   -4    1    7      0.10      0.00
   -3    1    7      0.42      0.00
   -2    1    7      0.15      0.00
   -1    1    7      0.46      0.00
    0    1    7     -0.03      0.00
    1    1    7      0.25      0.00
    2    1    7     -0.24      0.00
    3    1    7      0.45      0.00
    4    1    7     -0.21      0.00
    5    1    7      0.08      0.00
    6    1    7      0.08      0.00
    7    1    7     -0.20      0.00
    8    1    7      0.45      0.00
    9    1    7     -0.21      0.00
   10    1    7      0.04      0.00
   11    1    7     -0.05      0.00
   12    1    7     -0.10      0.00
   13    1    7     -0.08      0.00
  -17    2    7      0.28      0.00
  -16    2    7     -0.06      0.00
  -15    2    7     -0.03      0.00
  -14    2    7      0.21      0.00
  -13    2    7      0.13      0.00
  -12    2    7      0.28      0.00
  -11    2    7     -0.25      0.00
  -10    2    7      0.26      0.00
   -9    2    7     -0.19      0.00
   -8    2    7     -0.06      0.00
   -7    2    7     -0.21      0.00
   -6    2    7      0.19      0.00
   -5    2    7     -0.15      0.00
   -4    2    7     -0.05      0.00
   -2    2    7     -0.14      0.00
   -1    2    7      0.06      0.00
    0    2    7      0.31      0.00
    1    2    7      0.09      0.00
    2    2    7     -0.35      0.00
    3    2    7     -0.03      0.00
    4    2    7     -0.11      0.00
    5    2    7      0.11      0.00
    6    2    7     -0.16      0.00
    7    2    7      0.00      0.00
    8    2    7      0.02      0.00
    9    2    7      0.11      0.00
   10    2    7     -0.05      0.00
   11    2    7     -0.05      0.00
   12    2    7      0.06      0.00
  -17    3    7      0.13      0.00
  -16    3    7     -0.12      0.00
  -15    3    7      0.02      0.00
  -14    3    7     -0.22      0.00
  -13    3    7      0.04      0.00
  -12    3    7      0.54      0.00
  -11    3    7     -0.11      0.00
  -10    3    7     -0.13      0.00
   -9    3    7      0.66      0.00
   -8    3    7     -0.73      0.00
   -6    3    7      0.06      0.00
   -5    3    7      0.13      0.00
   -4    3    7     -0.36      0.00
   -3    3    7     -0.16      0.00
   -2    3    7      0.20      0.00
   -1    3    7     -0.24      0.00
    0    3    7     -0.02      0.00
    1    3    7      0.04      0.00
    2    3    7      0.14      0.00
    3    3    7     -0.06      0.00
    4    3    7     -0.29      0.00
    5    3    7     -0.11      0.00
    6    3    7     -0.25      0.00
    7    3    7      0.07      0.00
    8    3    7     -0.60      0.00
    9    3    7      0.27      0.00
   10    3    7      0.13      0.00
   11    3    7     -0.43      0.00
  -17    4    7     -0.49      0.00
  -16    4    7      0.31      0.00
  -15    4    7     -0.51      0.00
  -14    4    7      0.09      0.00
  -13    4    7     -0.11      0.00
  -12    4    7     -0.27      0.00
  -11    4    7      0.19      0.00
  -10    4    7     -0.31      0.00
   -9    4    7      0.44      0.00
   -8    4    7      0.07      0.00
   -7    4    7      0.58      0.00
   -6    4    7      0.00      0.00
   -5    4    7     -0.15      0.00
   -4    4    7      0.15      0.00
   -3    4    7     -0.08      0.00
   -2    4    7     -0.11      0.00
   -1    4    7     -0.14      0.00
    0    4    7      0.02      0.00
    1    4    7     -0.18      0.00
    2    4    7     -0.01      0.00
    3    4    7      0.01      0.00
    4    4    7     -0.21      0.00
    5    4    7      0.18      0.00
    6    4    7      0.05      0.00
    7    4    7      0.02      0.00
    8    4    7     -0.02      0.00
    9    4    7     -0.10      0.00
   10    4    7      0.10      0.00
   11    4    7     -0.17      0.00
  -17    5    7      0.55      0.00
  -16    5    7      0.21      0.00
  -15    5    7     -0.17      0.00
  -14    5    7      0.00      0.00
  -13    5    7      0.08      0.00
  -12    5    7     -0.42      0.00
  -11    5    7      0.49      0.00
  -10    5    7     -0.19      0.00
   -9    5    7      0.08      0.00
   -8    5    7     -0.04      0.00
   -7    5    7     -0.07      0.00
   -6    5    7     -0.07      0.00
   -5    5    7      0.21      0.00
   -4    5    7     -0.20      0.00
   -3    5    7      0.19      0.00
   -2    5    7     -0.12      0.00
   -1    5    7      0.06      0.00
    0    5    7      0.04      0.00
    1    5    7     -0.21      0.00
    2    5    7      0.08      0.00
    3    5    7      0.50      0.00
    4    5    7     -0.07      0.00
    5    5    7      0.02      0.00
    6    5    7      0.21      0.00
    7    5    7     -0.33      0.00
    8    5    7     -0.04      0.00
    9    5    7      0.00      0.00
   10    5    7      0.11      0.00
  -17    6    7     -0.05      0.00
  -16    6    7     -0.07      0.00
  -15    6    7      0.29      0.00
  -14    6    7      0.17      0.00
  -13    6    7      0.09      0.00
  -12    6    7     -0.03      0.00
  -11    6    7     -0.27      0.00
  -10    6    7      0.15      0.00
   -9    6    7     -0.01      0.00
   -8    6    7     -0.05      0.00
   -7    6    7     -0.20      0.00
   -6    6    7      0.50      0.00
   -5    6    7     -0.23      0.00
   -4    6    7      0.37      0.00
   -3    6    7     -0.05      0.00
   -2    6    7     -0.23      0.00
   -1    6    7      0.14      0.00
    0    6    7      0.16      0.00
    1    6    7     -0.16      0.00
    2    6    7      0.10      0.00
    3    6    7      0.07      0.00
    4    6    7     -0.46      0.00
    5    6    7     -0.12      0.00
    6    6    7      0.47      0.00
    7    6    7     -0.19      0.00
    8    6    7     -0.04      0.00
    9    6    7      0.13      0.00
  -17    7    7      0.07      0.00
  -16    7    7     -0.18      0.00
  -15    7    7     -0.36      0.00
  -14    7    7      0.02      0.00
  -13    7    7     -0.06      0.00
  -12    7    7      0.09      0.00
  -11    7    7     -0.02      0.00
  -10    7    7     -0.16      0.00
   -9    7    7     -0.22      0.00
   -8    7    7      0.20      0.00
   -7    7    7     -0.25      0.00
   -6    7    7     -0.04      0.00
   -5    7    7     -0.42      0.00
   -4    7    7     -0.02      0.00
   -3    7    7      0.03      0.00
   -2    7    7      0.03      0.00
   -1    7    7      0.37      0.00
    0    7    7      0.06      0.00
    1    7    7     -0.29      0.00
    2    7    7      0.20      0.00
    3    7    7     -0.01      0.00
    4    7    7      0.18      0.00
    5    7    7     -0.20      0.00
    6    7    7      0.23      0.00
    7    7    7      0.17      0.00
    8    7    7     -0.20      0.00
  -16    8    7      0.26      0.00
  -15    8    7      0.09      0.00
  -14    8    7      0.13      0.00
  -13    8    7      0.13      0.00
  -12    8    7      0.02      0.00
  -11    8    7      0.01      0.00
  -10    8    7      0.15      0.00
   -9    8    7     -0.16      0.00
   -8    8    7      0.30      0.00
   -7    8    7     -0.36      0.00
   -6    8    7      0.07      0.00
   -5    8    7     -0.13      0.00
   -4    8    7      0.36      0.00
   -3    8    7     -0.31      0.00
   -2    8    7     -0.04      0.00
   -1    8    7     -0.29      0.00
    0    8    7     -0.17      0.00
    1    8    7     -0.17      0.00
    2    8    7      0.10      0.00
    3    8    7      0.18      0.00
    4    8    7      0.20      0.00
    5    8    7     -0.15      0.00
    6    8    7      0.01      0.00
    7    8    7     -0.01      0.00
  -16    9    7     -0.25      0.00
  -15    9    7      0.14      0.00
  -14    9    7     -0.63      0.00
  -13    9    7     -0.02      0.00
  -12    9    7     -0.08      0.00
  -11    9    7     -0.12      0.00
  -10    9    7      0.16      0.00
   -9    9    7     -0.38      0.00
   -8    9    7      0.00      0.00
   -7    9    7      0.00      0.00
   -6    9    7      0.39      0.00
   -5    9    7     -0.42      0.00
   -4    9    7      0.34      0.00
   -3    9    7      0.05      0.00
   -2    9    7     -0.68      0.00
   -1    9    7      1.22      0.00
    0    9    7      0.17      0.00
    1    9    7     -0.15      0.00
    2    9    7      0.32      0.00
    3    9    7      0.01      0.00
    4    9    7      0.02      0.00
    5    9    7      0.00      0.00
  -15   10    7      0.28      0.00
  -14   10    7      0.00      0.00
  -13   10    7      0.12      0.00
  -12   10    7      0.04      0.00
  -11   10    7      0.15      0.00
  -10   10    7     -0.15      0.00
   -9   10    7      0.37      0.00
   -8   10    7     -0.02      0.00
   -7   10    7     -0.14      0.00
   -6   10    7      0.26      0.00
   -5   10    7     -0.15      0.00
   -4   10    7      0.18      0.00
   -3   10    7      0.45      0.00
   -2   10    7     -0.02      0.00
   -1   10    7     -0.43      0.00
    0   10    7      0.21      0.00
    2   10    7     -0.17      0.00
    3   10    7     -0.11      0.00
    4   10    7     -0.03      0.00
  -14   11    7      0.09      0.00
  -13   11    7     -0.01      0.00
  -12   11    7     -0.08      0.00
  -11   11    7      0.04      0.00
  -10   11    7      0.02      0.00
   -9   11    7     -0.19      0.00
   -8   11    7      0.44      0.00
   -7   11    7     -0.27      0.00
   -6   11    7      0.21      0.00
   -5   11    7     -0.14      0.00
   -4   11    7     -0.22      0.00
   -3   11    7     -0.18      0.00
   -2   11    7     -0.24      0.00
   -1   11    7      0.00      0.00
    2   11    7     -0.09      0.00
  -13   12    7      0.03      0.00
  -12   12    7      0.07      0.00
  -11   12    7     -0.06      0.00
  -10   12    7      0.28      0.00
   -9   12    7      0.00      0.00
   -8   12    7      0.14      0.00
   -7   12    7     -0.03      0.00
   -6   12    7     -0.02      0.00
   -5   12    7      0.07      0.00
   -4   12    7      0.04      0.00
   -3   12    7      0.03      0.00
   -2   12    7      0.13      0.00
   -1   12    7     -0.33      0.00
    0   12    7      0.03      0.00
  -11   13    7      0.11      0.00
  -10   13    7     -0.23      0.00
   -9   13    7      0.17      0.00
   -8   13    7     -0.28      0.00
   -7   13    7      0.01      0.00
   -6   13    7      0.25      0.00
   -5   13    7     -0.57      0.00
   -4   13    7      0.47      0.00
   -3   13    7     -0.17      0.00
   -2   13    7     -0.14      0.00
    0  -17    8      0.07      0.00
    1  -17    8     -0.18      0.00
    2  -17    8      0.01      0.00
    3  -17    8     -0.27      0.00
    4  -17    8      0.16      0.00
    5  -17    8     -0.32      0.00
    6  -17    8      0.16      0.00
    7  -17    8      0.05      0.00
    8  -17    8      0.08      0.00
    9  -17    8      0.01      0.00
   -3  -16    8      0.15      0.00
   -2  -16    8     -0.25      0.00
   -1  -16    8     -0.17      0.00
    0  -16    8      0.21      0.00
    1  -16    8      0.00      0.00
    2  -16    8      0.01      0.00
    3  -16    8      0.02      0.00
    4  -16    8     -0.12      0.00
    5  -16    8      0.05      0.00
    6  -16    8     -0.21      0.00
    7  -16    8      0.11      0.00
    8  -16    8     -0.05      0.00
    9  -16    8     -0.27      0.00
   10  -16    8      0.11      0.00
   11  -16    8     -0.14      0.00
   -5  -15    8      0.13      0.00
   -4  -15    8     -0.14      0.00
   -3  -15    8      0.00      0.00
   -2  -15    8     -0.12      0.00
   -1  -15    8      0.43      0.00
    0  -15    8     -0.33      0.00
    1  -15    8      0.13      0.00
    2  -15    8     -0.32      0.00
    3  -15    8     -0.12      0.00
    4  -15    8      0.55      0.00
    5  -15    8     -0.08      0.00
    6  -15    8      0.13      0.00
    7  -15    8      0.11      0.00
    8  -15    8     -0.12      0.00
    9  -15    8      0.11      0.00
   10  -15    8     -0.14      0.00
   11  -15    8     -0.08      0.00
   12  -15    8      0.28      0.00
   -6  -14    8      0.35      0.00
   -5  -14    8     -0.05      0.00
   -4  -14    8      0.08      0.00
   -3  -14    8      0.24      0.00
   -1  -14    8     -0.35      0.00
    0  -14    8     -0.04      0.00
    1  -14    8     -0.02      0.00
    2  -14    8      0.20      0.00
    3  -14    8     -0.10      0.00
    4  -14    8      0.19      0.00
    5  -14    8     -0.23      0.00
    6  -14    8      0.12      0.00
    7  -14    8     -0.06      0.00
    8  -14    8     -0.18      0.00
    9  -14    8      0.48      0.00
   10  -14    8     -0.31      0.00
   11  -14    8     -0.01      0.00
   12  -14    8      0.06      0.00
   13  -14    8      0.01      0.00
   -8  -13    8      0.15      0.00
   -7  -13    8     -0.39      0.00
   -6  -13    8     -0.18      0.00
   -5  -13    8      0.12      0.00
   -4  -13    8     -0.33      0.00
   -3  -13    8      0.17      0.00
   -1  -13    8     -0.16      0.00
    0  -13    8      0.25      0.00
    1  -13    8      0.25      0.00
    2  -13    8      0.01      0.00
    3  -13    8      0.00      0.00
    4  -13    8     -0.43      0.00
    5  -13    8      0.36      0.00
    6  -13    8     -0.17      0.00
    7  -13    8      0.04      0.00
    8  -13    8     -0.17      0.00
    9  -13    8      0.01      0.00
   10  -13    8     -0.04      0.00
   11  -13    8      0.23      0.00
   12  -13    8      0.26      0.00
   13  -13    8      0.11      0.00
   14  -13    8     -0.38      0.00
   -9  -12    8     -0.15      0.00
   -8  -12    8      0.34      0.00
   -7  -12    8     -0.14      0.00
   -6  -12    8      0.52      0.00
   -5  -12    8      0.16      0.00
   -4  -12    8      0.00      0.00
   -3  -12    8     -0.17      0.00
   -1  -12    8     -0.19      0.00
    0  -12    8     -0.03      0.00
    1  -12    8     -0.19      0.00
    2  -12    8     -0.11      0.00
    3  -12    8      0.19      0.00
    4  -12    8      0.04      0.00
    5  -12    8     -0.21      0.00
    6  -12    8     -0.15      0.00
    7  -12    8      0.13      0.00
    8  -12    8      0.04      0.00
    9  -12    8      0.21      0.00
   10  -12    8     -0.01      0.00
   11  -12    8     -0.46      0.00
   12  -12    8     -0.46      0.00
   13  -12    8     -0.05      0.00
   14  -12    8     -0.07      0.00
  -10  -11    8     -0.34      0.00
   -9  -11    8      0.23      0.00
   -8  -11    8     -0.10      0.00
   -7  -11    8     -0.20      0.00
   -6  -11    8     -0.20      0.00
   -5  -11    8     -0.02      0.00
   -4  -11    8      0.11      0.00
   -3  -11    8      0.02      0.00
   -1  -11    8      0.05      0.00
    0  -11    8     -0.23      0.00
    1  -11    8      0.38      0.00
    2  -11    8     -0.31      0.00
    3  -11    8     -0.01      0.00
    4  -11    8      0.29      0.00
    5  -11    8     -0.45      0.00
    6  -11    8      0.25      0.00
    7  -11    8     -0.25      0.00
    8  -11    8      0.10      0.00
    9  -11    8     -0.55      0.00
   10  -11    8      0.28      0.00
   11  -11    8     -0.08      0.00
   12  -11    8      0.38      0.00
   13  -11    8      0.26      0.00
   14  -11    8      0.11      0.00
  -11  -10    8      0.09      0.00
  -10  -10    8     -0.11      0.00
   -9  -10    8      0.14      0.00
   -8  -10    8     -0.11      0.00
   -7  -10    8      0.01      0.00
   -6  -10    8     -0.02      0.00
   -5  -10    8      0.18      0.00
   -4  -10    8     -0.49      0.00
   -3  -10    8     -0.05      0.00
   -1  -10    8     -0.07      0.00
    0  -10    8      0.22      0.00
    1  -10    8     -0.14      0.00
    2  -10    8     -0.11      0.00
    3  -10    8     -0.33      0.00
    4  -10    8      0.09      0.00
    5  -10    8      0.53      0.00
    6  -10    8     -0.01      0.00
    7  -10    8     -0.06      0.00
    8  -10    8      0.13      0.00
    9  -10    8      0.32      0.00
   10  -10    8      0.00      0.00
   11  -10    8     -0.07      0.00
   12  -10    8      0.23      0.00
   13  -10    8     -0.50      0.00
   14  -10    8     -0.24      0.00
   15  -10    8      0.08      0.00
  -12   -9    8     -0.34      0.00
  -11   -9    8      0.35      0.00
  -10   -9    8     -0.67      0.00
   -9   -9    8      0.22      0.00
   -8   -9    8      0.03      0.00
   -7   -9    8     -0.26      0.00
   -6   -9    8      0.05      0.00
   -5   -9    8      0.12      0.00
   -4   -9    8     -0.26      0.00
   -3   -9    8      0.05      0.00
   -2   -9    8      0.32      0.00
    0   -9    8     -0.28      0.00
    1   -9    8      0.65      0.00
    2   -9    8     -0.23      0.00
    3   -9    8      0.22      0.00
    4   -9    8      0.17      0.00
    5   -9    8     -0.32      0.00
    6   -9    8     -0.02      0.00
    7   -9    8      0.18      0.00
    8   -9    8     -0.37      0.00
    9   -9    8      0.01      0.00
   10   -9    8      0.03      0.00
   11   -9    8     -0.46      0.00
   12   -9    8     -0.06      0.00
   13   -9    8      0.05      0.00
   14   -9    8      0.35      0.00
   15   -9    8     -0.01      0.00
  -13   -8    8      0.20      0.00
  -12   -8    8     -0.02      0.00
  -11   -8    8      0.06      0.00
  -10   -8    8      0.26      0.00
   -9   -8    8      0.10      0.00
   -8   -8    8      0.14      0.00
   -7   -8    8     -0.09      0.00
   -6   -8    8      0.25      0.00
   -5   -8    8      0.31      0.00
   -4   -8    8      0.15      0.00
   -3   -8    8      0.03      0.00
   -2   -8    8      0.45      0.00
    0   -8    8     -0.16      0.00
    1   -8    8      0.52      0.00
    2   -8    8     -0.06      0.00
    3   -8    8     -0.20      0.00
    4   -8    8      0.07      0.00
    5   -8    8     -0.25      0.00
    6   -8    8      0.30      0.00
    7   -8    8     -0.10      0.00
    8   -8    8      0.07      0.00
    9   -8    8      0.18      0.00
   10   -8    8      0.12      0.00
   11   -8    8      0.05      0.00
   12   -8    8      0.23      0.00
   13   -8    8      0.11      0.00
   14   -8    8      0.32      0.00
   15   -8    8     -0.82      0.00
  -13   -7    8     -0.32      0.00
  -12   -7    8      0.54      0.00
  -11   -7    8     -0.44      0.00
  -10   -7    8     -0.05      0.00
   -9   -7    8      0.12      0.00
   -8   -7    8      0.05      0.00
   -7   -7    8     -0.19      0.00
   -6   -7    8     -0.21      0.00
   -5   -7    8      0.01      0.00
   -4   -7    8     -0.51      0.00
   -3   -7    8     -0.26      0.00
   -2   -7    8      0.28      0.00
    0   -7    8     -0.03      0.00
    1   -7    8     -0.19      0.00
    2   -7    8     -0.19      0.00
    3   -7    8      0.26      0.00
    4   -7    8     -0.37      0.00
    5   -7    8      0.22      0.00
    6   -7    8      0.31      0.00
    7   -7    8     -0.37      0.00
    8   -7    8      0.31      0.00
    9   -7    8     -0.04      0.00
   10   -7    8      0.11      0.00
   11   -7    8      0.24      0.00
   12   -7    8     -0.35      0.00
   13   -7    8     -0.04      0.00
   14   -7    8     -0.13      0.00
   15   -7    8      0.21      0.00
  -14   -6    8      0.47      0.00
  -13   -6    8     -0.33      0.00
  -12   -6    8      0.27      0.00
  -11   -6    8      0.05      0.00
  -10   -6    8      0.02      0.00
   -9   -6    8      0.10      0.00
   -8   -6    8     -0.15      0.00
   -7   -6    8     -0.16      0.00
   -6   -6    8      0.13      0.00
   -5   -6    8      0.46      0.00
   -4   -6    8     -0.17      0.00
   -3   -6    8      0.24      0.00
   -2   -6    8      0.15      0.00
   -1   -6    8      0.22      0.00
    0   -6    8     -0.16      0.00
    1   -6    8     -0.09      0.00
    2   -6    8      0.44      0.00
    3   -6    8     -0.14      0.00
    4   -6    8      0.06      0.00
    5   -6    8      0.21      0.00
    6   -6    8     -0.22      0.00
    7   -6    8      0.05      0.00
    8   -6    8     -0.29      0.00
    9   -6    8     -0.16      0.00
   10   -6    8      0.39      0.00
   11   -6    8     -0.18      0.00
   12   -6    8     -0.33      0.00
   13   -6    8      0.19      0.00
   14   -6    8      0.00      0.00
   15   -6    8     -0.03      0.00
  -15   -5    8      0.24      0.00
  -14   -5    8     -0.37      0.00
  -13   -5    8      0.54      0.00
  -12   -5    8     -0.03      0.00
  -11   -5    8     -0.21      0.00
  -10   -5    8     -0.24      0.00
   -9   -5    8      0.13      0.00
   -8   -5    8     -0.13      0.00
   -7   -5    8      0.38      0.00
   -6   -5    8     -0.19      0.00
   -5   -5    8     -0.12      0.00
   -4   -5    8      0.20      0.00
   -3   -5    8     -0.02      0.00
   -2   -5    8     -0.36      0.00
   -1   -5    8      0.82      0.00
    0   -5    8     -0.32      0.00
    1   -5    8      0.13      0.00
    2   -5    8      0.30      0.00
    3   -5    8      0.03      0.00
    4   -5    8     -0.36      0.00
    5   -5    8     -0.07      0.00
    6   -5    8      0.02      0.00
    7   -5    8     -0.06      0.00
    8   -5    8      0.12      0.00
    9   -5    8     -0.25      0.00
   10   -5    8     -0.23      0.00
   11   -5    8      0.24      0.00
   12   -5    8      0.00      0.00
   13   -5    8      0.42      0.00
   14   -5    8     -0.36      0.00
  -15   -4    8     -0.13      0.00
  -14   -4    8     -0.20      0.00
  -13   -4    8      0.03      0.00
  -12   -4    8     -0.22      0.00
  -11   -4    8     -0.03      0.00
  -10   -4    8      0.40      0.00
   -9   -4    8      0.16      0.00
   -8   -4    8     -0.05      0.00
   -7   -4    8      0.05      0.00
   -6   -4    8     -0.03      0.00
   -5   -4    8      0.51      0.00
   -4   -4    8      0.07      0.00
   -3   -4    8     -0.13      0.00
   -2   -4    8      0.20      0.00
   -1   -4    8     -0.26      0.00
    0   -4    8     -0.16      0.00
    1   -4    8     -0.13      0.00
    2   -4    8     -0.17      0.00
    3   -4    8     -0.12      0.00
    4   -4    8     -0.07      0.00
    5   -4    8      0.11      0.00
    6   -4    8      0.27      0.00
    7   -4    8      0.11      0.00
    8   -4    8      0.06      0.00
    9   -4    8     -0.19      0.00
   10   -4    8      0.04      0.00
   11   -4    8      0.10      0.00
   12   -4    8     -0.31      0.00
   13   -4    8      0.12      0.00
   14   -4    8     -0.22      0.00
  -16   -3    8     -0.14      0.00
  -15   -3    8     -0.22      0.00
  -14   -3    8     -0.02      0.00
  -13   -3    8     -0.14      0.00
  -12   -3    8      0.15      0.00
  -11   -3    8      0.14      0.00
  -10   -3    8     -0.44      0.00
   -9   -3    8      0.04      0.00
   -8   -3    8     -0.07      0.00
   -7   -3    8     -0.27      0.00
   -6   -3    8     -0.31      0.00
   -5   -3    8     -0.09      0.00
   -4   -3    8     -0.99      0.00
   -3   -3    8     -0.25      0.00
   -2   -3    8     -0.19      0.00
   -1   -3    8      0.59      0.00
    0   -3    8     -0.34      0.00
    1   -3    8      0.07      0.00
    4   -3    8      0.28      0.00
    5   -3    8     -0.32      0.00
    6   -3    8     -0.55      0.00
    7   -3    8      0.12      0.00
    8   -3    8     -0.04      0.00
    9   -3    8     -0.04      0.00
   10   -3    8      0.08      0.00
   11   -3    8     -0.22      0.00
   12   -3    8     -0.08      0.00
   13   -3    8      0.17      0.00
   14   -3    8      0.20      0.00
  -16   -2    8     -0.01      0.00
  -15   -2    8      0.05      0.00
  -14   -2    8      0.00      0.00
  -13   -2    8     -0.11      0.00
  -12   -2    8      0.01      0.00
  -11   -2    8     -0.03      0.00
  -10   -2    8     -0.19      0.00
   -9   -2    8      0.42      0.00
   -8   -2    8     -0.06      0.00
   -7   -2    8      0.05      0.00
   -6   -2    8     -0.60      0.00
   -5   -2    8      0.15      0.00
   -4   -2    8      1.09      0.00
   -3   -2    8     -0.55      0.00
   -2   -2    8     -0.47      0.00
   -1   -2    8      0.58      0.00
    0   -2    8     -0.53      0.00
    1   -2    8      0.04      0.00
    2   -2    8     -0.08      0.00
    3   -2    8      0.08      0.00
    4   -2    8      0.12      0.00
    5   -2    8      0.32      0.00
    6   -2    8     -0.07      0.00
    7   -2    8      0.13      0.00
    8   -2    8      0.04      0.00
    9   -2    8      0.25      0.00
   10   -2    8      0.05      0.00
   11   -2    8      0.36      0.00
   12   -2    8      0.08      0.00
   13   -2    8     -0.02      0.00
  -16   -1    8      0.14      0.00
  -15   -1    8      0.09      0.00
  -14   -1    8      0.12      0.00
  -13   -1    8     -0.06      0.00
  -12   -1    8      0.13      0.00
  -11   -1    8     -0.14      0.00
  -10   -1    8     -0.01      0.00
   -9   -1    8      0.02      0.00
   -8   -1    8     -0.19      0.00
   -7   -1    8      0.56      0.00
   -6   -1    8      0.51      0.00
   -5   -1    8     -0.53      0.00
   -4   -1    8      0.39      0.00
   -3   -1    8      0.09      0.00
   -2   -1    8      0.14      0.00
   -1   -1    8     -0.38      0.00
    0   -1    8     -0.15      0.00
    1   -1    8      0.13      0.00
    2   -1    8     -0.72      0.00
    3   -1    8      0.15      0.00
    4   -1    8     -0.10      0.00
    5   -1    8      0.05      0.00
    6   -1    8     -0.01      0.00
    7   -1    8      0.09      0.00
    8   -1    8     -0.02      0.00
    9   -1    8     -0.31      0.00
   10   -1    8     -0.08      0.00
   11   -1    8     -0.15      0.00
   12   -1    8     -0.01      0.00
   13   -1    8      0.25      0.00
  -17    0    8      0.18      0.00
  -16    0    8     -0.07      0.00
  -15    0    8      0.15      0.00
  -14    0    8     -0.06      0.00
  -13    0    8     -0.01      0.00
  -12    0    8     -0.02      0.00
  -11    0    8     -0.19      0.00
  -10    0    8     -0.26      0.00
   -9    0    8     -0.21      0.00
   -8    0    8      0.12      0.00
   -7    0    8     -0.23      0.00
   -6    0    8      0.38      0.00
   -5    0    8      0.23      0.00
   -4    0    8      0.03      0.00
   -3    0    8     -0.02      0.00
   -2    0    8      0.42      0.00
   -1    0    8     -0.36      0.00
    0    0    8      0.30      0.00
    1    0    8      0.36      0.00
    2    0    8     -0.28      0.00
    3    0    8      0.42      0.00
    4    0    8     -0.07      0.00
    5    0    8      0.07      0.00
    6    0    8      0.33      0.00
    7    0    8     -0.38      0.00
    8    0    8      0.47      0.00
    9    0    8     -0.11      0.00
   10    0    8      0.19      0.00
   11    0    8     -0.09      0.00
   12    0    8     -0.06      0.00
   13    0    8     -0.01      0.00
  -17    1    8      0.04      0.00
  -16    1    8      0.06      0.00
  -15    1    8     -0.05      0.00
  -14    1    8      0.11      0.00
  -13    1    8     -0.03      0.00
  -12    1    8      0.64      0.00
  -11    1    8     -0.40      0.00
  -10    1    8      0.73      0.00
   -9    1    8     -0.03      0.00
   -8    1    8      0.20      0.00
   -7    1    8     -0.37      0.00
   -6    1    8      0.13      0.00
   -5    1    8     -0.45      0.00
   -4    1    8      0.07      0.00
   -2    1    8      0.30      0.00
   -1    1    8      0.08      0.00
    0    1    8      0.25      0.00
    2    1    8     -0.26      0.00
    3    1    8      0.11      0.00
    4    1    8     -0.15      0.00
    5    1    8     -0.01      0.00
    6    1    8     -0.05      0.00
    7    1    8     -0.11      0.00
    8    1    8      0.10      0.00
    9    1    8     -0.05      0.00
   10    1    8      0.07      0.00
   11    1    8      0.05      0.00
   12    1    8     -0.33      0.00
  -17    2    8     -0.16      0.00
  -16    2    8      0.12      0.00
  -15    2    8      0.01      0.00
  -14    2    8     -0.09      0.00
  -13    2    8      0.00      0.00
  -12    2    8      0.47      0.00
  -11    2    8      0.04      0.00
  -10    2    8     -0.08      0.00
   -9    2    8      0.04      0.00
   -8    2    8     -0.06      0.00
   -7    2    8     -0.67      0.00
   -6    2    8      0.46      0.00
   -5    2    8     -0.25      0.00
   -4    2    8     -0.01      0.00
   -3    2    8     -0.02      0.00
   -2    2    8      0.34      0.00
   -1    2    8     -0.38      0.00
    0    2    8     -0.10      0.00
    1    2    8     -0.21      0.00
    2    2    8      0.08      0.00
    3    2    8      0.10      0.00
    4    2    8     -0.35      0.00
    6    2    8     -0.16      0.00
    7    2    8      0.23      0.00
    8    2    8     -0.26      0.00
    9    2    8     -0.07      0.00
   10    2    8      0.06      0.00
   11    2    8      0.03      0.00
  -17    3    8     -0.33      0.00
  -16    3    8      0.09      0.00
  -15    3    8     -0.10      0.00
  -14    3    8     -0.17      0.00
  -13    3    8     -0.02      0.00
  -12    3    8     -0.47      0.00
  -11    3    8      0.10      0.00
  -10    3    8      0.03      0.00
   -9    3    8     -0.19      0.00
   -8    3    8      0.62      0.00
   -7    3    8     -0.10      0.00
   -6    3    8      0.24      0.00
   -5    3    8     -0.44      0.00
   -4    3    8      0.57      0.00
   -3    3    8     -0.77      0.00
   -2    3    8      0.16      0.00
   -1    3    8     -0.17      0.00
    0    3    8      0.21      0.00
    1    3    8     -0.15      0.00
    2    3    8     -0.08      0.00
    3    3    8     -0.02      0.00
    4    3    8     -0.04      0.00
    5    3    8      0.02      0.00
    6    3    8     -0.17      0.00
    7    3    8      0.05      0.00
    8    3    8      0.08      0.00
    9    3    8     -0.17      0.00
   10    3    8      0.13      0.00
   11    3    8      0.12      0.00
  -17    4    8      0.60      0.00
  -16    4    8     -0.27      0.00
  -15    4    8      0.16      0.00
  -14    4    8     -0.28      0.00
  -13    4    8      0.23      0.00
  -12    4    8     -0.45      0.00
  -11    4    8      0.36      0.00
  -10    4    8     -0.17      0.00
   -9    4    8     -0.11      0.00
   -8    4    8      0.13      0.00
   -7    4    8     -0.29      0.00
   -6    4    8      0.11      0.00
   -5    4    8     -0.09      0.00
   -4    4    8      0.19      0.00
   -3    4    8     -0.18      0.00
   -2    4    8      0.16      0.00
   -1    4    8      0.00      0.00
    0    4    8      0.07      0.00
    1    4    8     -0.09      0.00
    2    4    8     -0.04      0.00
    3    4    8      0.33      0.00
    4    4    8      0.05      0.00
    5    4    8      0.08      0.00
    6    4    8      0.02      0.00
    7    4    8     -0.10      0.00
    8    4    8     -0.12      0.00
    9    4    8      0.09      0.00
   10    4    8      0.05      0.00
  -17    5    8      0.13      0.00
  -16    5    8     -0.23      0.00
  -15    5    8      0.25      0.00
  -14    5    8      0.18      0.00
  -13    5    8      0.02      0.00
  -12    5    8      0.05      0.00
  -11    5    8     -0.25      0.00
  -10    5    8     -0.02      0.00
   -9    5    8      0.02      0.00
   -8    5    8      0.21      0.00
   -7    5    8     -0.02      0.00
   -6    5    8      0.55      0.00
   -5    5    8     -0.41      0.00
   -4    5    8      0.76      0.00
   -3    5    8     -0.39      0.00
   -2    5    8      0.15      0.00
   -1    5    8     -0.28      0.00
    0    5    8      0.04      0.00
    1    5    8     -0.11      0.00
    2    5    8      0.03      0.00
    3    5    8      0.04      0.00
    4    5    8     -0.33      0.00
    5    5    8     -0.06      0.00
    6    5    8      0.11      0.00
    7    5    8      0.11      0.00
    8    5    8      0.01      0.00
    9    5    8     -0.04      0.00
  -17    6    8      0.06      0.00
  -16    6    8     -0.13      0.00
  -15    6    8     -0.07      0.00
  -14    6    8     -0.12      0.00
  -13    6    8     -0.29      0.00
  -12    6    8      0.39      0.00
  -11    6    8      0.19      0.00
  -10    6    8     -0.28      0.00
   -9    6    8      0.06      0.00
   -8    6    8     -0.02      0.00
   -7    6    8     -0.04      0.00
   -6    6    8     -0.07      0.00
   -5    6    8     -0.26      0.00
   -4    6    8      0.22      0.00
   -3    6    8     -0.29      0.00
   -2    6    8      0.09      0.00
   -1    6    8      0.28      0.00
    0    6    8      0.02      0.00
    1    6    8      0.06      0.00
    2    6    8      0.06      0.00
    3    6    8     -0.24      0.00
    4    6    8      0.38      0.00
    5    6    8     -0.17      0.00
    6    6    8     -0.14      0.00
    7    6    8      0.05      0.00
    8    6    8     -0.27      0.00
  -16    7    8     -0.28      0.00
  -15    7    8      0.55      0.00
  -14    7    8     -0.04      0.00
  -13    7    8     -0.15      0.00
  -12    7    8      0.05      0.00
  -11    7    8      0.08      0.00
  -10    7    8     -0.18      0.00
   -9    7    8      0.01      0.00
   -8    7    8     -0.13      0.00
   -7    7    8     -0.15      0.00
   -6    7    8     -0.22      0.00
   -5    7    8     -0.06      0.00
   -4    7    8      0.20      0.00
   -3    7    8     -0.32      0.00
   -2    7    8      0.26      0.00
   -1    7    8     -0.14      0.00
    0    7    8      0.08      0.00
    1    7    8     -0.28      0.00
    2    7    8      0.30      0.00
    4    7    8      0.32      0.00
    5    7    8      0.16      0.00
    6    7    8      0.01      0.00
    7    7    8      0.24      0.00
  -16    8    8     -0.31      0.00
  -15    8    8      0.31      0.00
  -14    8    8     -0.15      0.00
  -13    8    8     -0.08      0.00
  -12    8    8     -0.10      0.00
  -11    8    8     -0.02      0.00
  -10    8    8      0.18      0.00
   -9    8    8     -0.45      0.00
   -8    8    8      0.51      0.00
   -7    8    8     -0.32      0.00
   -6    8    8      0.19      0.00
   -5    8    8     -0.25      0.00
   -4    8    8      0.23      0.00
   -3    8    8     -0.14      0.00
   -2    8    8     -0.32      0.00
   -1    8    8      0.40      0.00
    0    8    8     -0.12      0.00
    1    8    8     -0.06      0.00
    2    8    8      0.46      0.00
    3    8    8     -0.01      0.00
    4    8    8     -0.24      0.00
    5    8    8      0.17      0.00
    6    8    8      0.17      0.00
  -15    9    8     -0.05      0.00
  -14    9    8      0.00      0.00
  -13    9    8      0.10      0.00
  -12    9    8      0.14      0.00
  -11    9    8      0.15      0.00
  -10    9    8      0.03      0.00
   -9    9    8      0.02      0.00
   -8    9    8      0.11      0.00
   -7    9    8     -0.13      0.00
   -6    9    8     -0.09      0.00
   -5    9    8      0.21      0.00
   -4    9    8      0.07      0.00
   -3    9    8      0.20      0.00
   -2    9    8      0.15      0.00
   -1    9    8     -0.18      0.00
    0    9    8      0.23      0.00
    1    9    8     -0.03      0.00
    2    9    8      0.06      0.00
    3    9    8     -0.01      0.00
    4    9    8     -0.15      0.00
  -15   10    8      0.36      0.00
  -14   10    8     -0.07      0.00
  -13   10    8      0.03      0.00
  -12   10    8     -0.11      0.00
  -11   10    8      0.13      0.00
  -10   10    8     -0.36      0.00
   -9   10    8     -0.04      0.00
   -8   10    8      0.22      0.00
   -7   10    8      0.23      0.00
   -6   10    8     -0.15      0.00
   -5   10    8     -0.01      0.00
   -4   10    8      0.07      0.00
   -3   10    8     -0.48      0.00
   -2   10    8      0.11      0.00
   -1   10    8      0.08      0.00
    2   10    8     -0.12      0.00
    3   10    8      0.23      0.00
  -14   11    8     -0.09      0.00
  -13   11    8     -0.25      0.00
  -12   11    8      0.04      0.00
  -11   11    8      0.01      0.00
  -10   11    8      0.37      0.00
   -9   11    8     -0.16      0.00
   -8   11    8      0.30      0.00
   -7   11    8     -0.08      0.00
   -6   11    8      0.15      0.00
   -5   11    8     -0.18      0.00
   -4   11    8      0.13      0.00
   -3   11    8     -0.13      0.00
   -2   11    8      0.13      0.00
   -1   11    8     -0.42      0.00
  -12   12    8      0.10      0.00
  -11   12    8     -0.09      0.00
  -10   12    8      0.05      0.00
   -9   12    8     -0.08      0.00
   -8   12    8      0.25      0.00
   -7   12    8     -0.17      0.00
   -6   12    8      0.40      0.00
   -5   12    8     -0.11      0.00
   -4   12    8      0.31      0.00
   -3   12    8      0.08      0.00
   -2   12    8     -0.35      0.00
   -1   12    8      0.51      0.00
   -9   13    8     -0.24      0.00
   -8   13    8     -0.29      0.00
   -7   13    8     -0.14      0.00
   -6   13    8     -0.09      0.00
   -5   13    8     -0.04      0.00
    0  -17    9      0.19      0.00
    1  -17    9      0.05      0.00
    2  -17    9      0.48      0.00
    3  -17    9     -0.30      0.00
    4  -17    9      0.18      0.00
    5  -17    9      0.00      0.00
    6  -17    9     -0.05      0.00
    7  -17    9      0.36      0.00
    8  -17    9      0.14      0.00
    9  -17    9     -0.11      0.00
   -3  -16    9     -0.19      0.00
   -2  -16    9      0.31      0.00
   -1  -16    9      0.34      0.00
    0  -16    9     -0.31      0.00
    1  -16    9     -0.02      0.00
    2  -16    9     -0.29      0.00
    3  -16    9      0.15      0.00
    4  -16    9     -0.20      0.00
    5  -16    9      0.29      0.00
    6  -16    9     -0.30      0.00
    7  -16    9      0.27      0.00
    8  -16    9     -0.53      0.00
    9  -16    9      0.21      0.00
   10  -16    9     -0.33      0.00
   11  -16    9     -0.09      0.00
   -5  -15    9     -0.07      0.00
   -4  -15    9      0.24      0.00
   -3  -15    9      0.07      0.00
   -2  -15    9     -0.35      0.00
    0  -15    9      0.11      0.00
    1  -15    9     -0.08      0.00
    2  -15    9      0.07      0.00
    3  -15    9      0.43      0.00
    4  -15    9     -0.21      0.00
    5  -15    9      0.13      0.00
    6  -15    9      0.37      0.00
    7  -15    9     -0.15      0.00
    8  -15    9     -0.01      0.00
    9  -15    9      0.35      0.00
   10  -15    9      0.13      0.00
   11  -15    9     -0.25      0.00
   12  -15    9      0.05      0.00
   -6  -14    9     -0.10      0.00
   -5  -14    9      0.11      0.00
   -4  -14    9     -0.50      0.00
   -3  -14    9      0.01      0.00
   -2  -14    9      0.36      0.00
    0  -14    9      0.16      0.00
    1  -14    9     -0.22      0.00
    2  -14    9     -0.31      0.00
    3  -14    9      0.04      0.00
    4  -14    9     -0.38      0.00
    5  -14    9     -0.09      0.00
    6  -14    9     -0.26      0.00
    7  -14    9      0.13      0.00
    8  -14    9     -0.34      0.00
    9  -14    9     -0.05      0.00
   10  -14    9     -0.11      0.00
   11  -14    9      0.19      0.00
   12  -14    9      0.09      0.00
   13  -14    9      0.11      0.00
   -8  -13    9      0.30      0.00
   -7  -13    9     -0.06      0.00
   -6  -13    9      0.30      0.00
   -5  -13    9      0.36      0.00
   -4  -13    9     -0.14      0.00
   -3  -13    9      0.07      0.00
   -2  -13    9      0.28      0.00
    0  -13    9      0.40      0.00
    1  -13    9     -0.15      0.00
    2  -13    9     -0.11      0.00
    3  -13    9      0.56      0.00
    4  -13    9     -0.06      0.00
    5  -13    9      0.09      0.00
    6  -13    9     -0.16      0.00
    7  -13    9      0.27      0.00
    8  -13    9     -0.24      0.00
    9  -13    9      0.24      0.00
   10  -13    9      0.04      0.00
   11  -13    9      0.11      0.00
   12  -13    9     -0.55      0.00
   13  -13    9      0.14      0.00
   -9  -12    9      0.11      0.00
   -8  -12    9     -0.05      0.00
   -7  -12    9     -0.06      0.00
   -6  -12    9     -0.19      0.00
   -5  -12    9      0.05      0.00
   -3  -12    9      0.12      0.00
   -2  -12    9     -0.16      0.00
   -1  -12    9      0.11      0.00
    0  -12    9     -0.26      0.00
    1  -12    9      0.70      0.00
    2  -12    9     -0.72      0.00
    3  -12    9      0.04      0.00
    4  -12    9     -0.17      0.00
    5  -12    9     -0.18      0.00
    6  -12    9      0.11      0.00
    7  -12    9     -0.46      0.00
    8  -12    9      0.36      0.00
    9  -12    9     -0.60      0.00
   10  -12    9      0.02      0.00
   11  -12    9      0.24      0.00
   12  -12    9     -0.19      0.00
   13  -12    9      0.24      0.00
   14  -12    9      0.22      0.00
  -10  -11    9      0.31      0.00
   -9  -11    9     -0.06      0.00
   -8  -11    9     -0.10      0.00
   -7  -11    9      0.08      0.00
   -6  -11    9      0.03      0.00
   -5  -11    9      0.17      0.00
   -4  -11    9     -0.47      0.00
   -3  -11    9      0.19      0.00
   -2  -11    9     -0.15      0.00
   -1  -11    9      0.17      0.00
    0  -11    9     -0.18      0.00
    1  -11    9      0.17      0.00
    2  -11    9      0.16      0.00
    3  -11    9     -0.10      0.00
    4  -11    9     -0.15      0.00
    6  -11    9      0.18      0.00
    7  -11    9      0.19      0.00
    8  -11    9      0.46      0.00
    9  -11    9     -0.07      0.00
   10  -11    9     -0.02      0.00
   11  -11    9      0.16      0.00
   12  -11    9     -0.03      0.00
   13  -11    9     -0.25      0.00
   14  -11    9     -0.42      0.00
  -11  -10    9     -0.18      0.00
  -10  -10    9     -0.31      0.00
   -9  -10    9      0.12      0.00
   -8  -10    9     -0.07      0.00
   -7  -10    9     -0.26      0.00
   -6  -10    9      0.02      0.00
   -5  -10    9     -0.09      0.00
   -4  -10    9     -0.12      0.00
   -3  -10    9     -0.08      0.00
   -2  -10    9      0.46      0.00
    0  -10    9     -0.10      0.00
    1  -10    9      0.16      0.00
    2  -10    9     -0.01      0.00
    3  -10    9      0.22      0.00
    4  -10    9      0.28      0.00
    5  -10    9     -0.37      0.00
    6  -10    9     -0.22      0.00
    7  -10    9      0.22      0.00
    8  -10    9     -0.44      0.00
    9  -10    9     -0.24      0.00
   10  -10    9      0.39      0.00
   11  -10    9     -0.54      0.00
   12  -10    9     -0.05      0.00
   13  -10    9      0.05      0.00
   14  -10    9      0.17      0.00
  -12   -9    9      0.02      0.00
  -11   -9    9     -0.06      0.00
  -10   -9    9      0.08      0.00
   -9   -9    9      0.16      0.00
   -8   -9    9     -0.12      0.00
   -7   -9    9      0.03      0.00
   -6   -9    9     -0.11      0.00
   -5   -9    9      0.17      0.00
   -4   -9    9      0.26      0.00
   -3   -9    9     -0.32      0.00
   -2   -9    9      0.35      0.00
    0   -9    9     -0.09      0.00
    1   -9    9      0.14      0.00
    2   -9    9     -0.01      0.00
    3   -9    9     -0.06      0.00
    4   -9    9      0.27      0.00
    5   -9    9     -0.30      0.00
    6   -9    9      0.10      0.00
    7   -9    9      0.04      0.00
    8   -9    9      0.27      0.00
    9   -9    9     -0.05      0.00
   10   -9    9      0.43      0.00
   11   -9    9     -0.02      0.00
   12   -9    9      0.40      0.00
   13   -9    9     -0.09      0.00
   14   -9    9      0.10      0.00
  -13   -8    9      0.06      0.00
  -12   -8    9      0.12      0.00
  -11   -8    9     -0.25      0.00
  -10   -8    9     -0.20      0.00
   -9   -8    9      0.45      0.00
   -8   -8    9     -0.11      0.00
   -6   -8    9      0.10      0.00
   -5   -8    9     -0.11      0.00
   -4   -8    9     -0.34      0.00
   -3   -8    9     -0.08      0.00
   -2   -8    9     -0.34      0.00
   -1   -8    9     -0.26      0.00
    0   -8    9      0.03      0.00
    1   -8    9     -0.08      0.00
    2   -8    9     -0.41      0.00
    3   -8    9      0.16      0.00
    4   -8    9     -0.12      0.00
    5   -8    9      0.01      0.00
    6   -8    9      0.04      0.00
    7   -8    9     -0.06      0.00
    8   -8    9      0.25      0.00
    9   -8    9     -0.48      0.00
   10   -8    9     -0.11      0.00
   11   -8    9      0.17      0.00
   12   -8    9     -0.07      0.00
   13   -8    9      0.12      0.00
   14   -8    9     -0.20      0.00
  -13   -7    9     -0.21      0.00
  -12   -7    9      0.75      0.00
  -11   -7    9     -0.14      0.00
  -10   -7    9      0.14      0.00
   -9   -7    9      0.12      0.00
   -8   -7    9     -0.29      0.00
   -7   -7    9     -0.27      0.00
   -6   -7    9      0.15      0.00
   -5   -7    9      0.08      0.00
   -4   -7    9     -0.09      0.00
   -3   -7    9      0.40      0.00
   -2   -7    9     -0.10      0.00
   -1   -7    9      0.29      0.00
    0   -7    9      0.08      0.00
    1   -7    9      0.34      0.00
    2   -7    9     -0.32      0.00
    3   -7    9      0.28      0.00
    4   -7    9      0.07      0.00
    5   -7    9      0.08      0.00
    6   -7    9     -0.12      0.00
    7   -7    9      0.01      0.00
    8   -7    9     -0.13      0.00
    9   -7    9      0.21      0.00
   10   -7    9      0.14      0.00
   11   -7    9     -0.10      0.00
   12   -7    9      0.17      0.00
   13   -7    9      0.03      0.00
   14   -7    9     -0.28      0.00
  -14   -6    9     -0.50      0.00
  -13   -6    9      0.31      0.00
  -12   -6    9      0.21      0.00
  -11   -6    9     -0.56      0.00
  -10   -6    9     -0.06      0.00
   -9   -6    9      0.09      0.00
   -8   -6    9     -0.25      0.00
   -7   -6    9      0.60      0.00
   -6   -6    9     -0.15      0.00
   -5   -6    9     -0.27      0.00
   -4   -6    9      0.53      0.00
   -3   -6    9     -0.24      0.00
   -2   -6    9      0.05      0.00
   -1   -6    9     -0.15      0.00
    0   -6    9     -0.01      0.00
    1   -6    9      0.07      0.00
    2   -6    9     -0.01      0.00
    3   -6    9      0.15      0.00
    4   -6    9     -0.12      0.00
    5   -6    9      0.00      0.00
    6   -6    9     -0.12      0.00
    7   -6    9     -0.12      0.00
    8   -6    9      0.27      0.00
    9   -6    9      0.09      0.00
   10   -6    9     -0.70      0.00
   11   -6    9      0.10      0.00
   12   -6    9     -0.09      0.00
   13   -6    9      0.17      0.00
   14   -6    9      0.26      0.00
  -15   -5    9      0.11      0.00
  -14   -5    9     -0.08      0.00
  -13   -5    9     -0.04      0.00
  -12   -5    9     -0.26      0.00
  -11   -5    9      0.10      0.00
  -10   -5    9      0.34      0.00
   -9   -5    9      0.27      0.00
   -8   -5    9     -0.30      0.00
   -7   -5    9      0.25      0.00
   -6   -5    9     -0.15      0.00
   -5   -5    9      0.14      0.00
   -4   -5    9      0.06      0.00
   -3   -5    9     -0.34      0.00
   -2   -5    9      0.36      0.00
   -1   -5    9     -0.44      0.00
    0   -5    9      0.26      0.00
    1   -5    9     -0.11      0.00
    2   -5    9     -0.19      0.00
    3   -5    9     -0.03      0.00
    4   -5    9     -0.14      0.00
    5   -5    9      0.37      0.00
    6   -5    9     -0.06      0.00
    7   -5    9     -0.06      0.00
    8   -5    9      0.09      0.00
    9   -5    9      0.16      0.00
   10   -5    9     -0.05      0.00
   11   -5    9      0.26      0.00
   12   -5    9     -0.47      0.00
   13   -5    9      0.31      0.00
   14   -5    9     -0.12      0.00
  -15   -4    9     -0.20      0.00
  -14   -4    9     -0.43      0.00
  -13   -4    9      0.21      0.00
  -12   -4    9     -0.07      0.00
  -11   -4    9      0.18      0.00
  -10   -4    9     -0.32      0.00
   -9   -4    9      0.09      0.00
   -8   -4    9     -0.03      0.00
   -7   -4    9      0.16      0.00
   -6   -4    9     -0.12      0.00
   -5   -4    9     -0.05      0.00
   -4   -4    9     -0.22      0.00
   -3   -4    9      0.10      0.00
   -2   -4    9     -0.04      0.00
   -1   -4    9     -0.22      0.00
    0   -4    9     -0.07      0.00
    1   -4    9     -0.08      0.00
    3   -4    9     -0.29      0.00
    4   -4    9      0.09      0.00
    5   -4    9      0.00      0.00
    6   -4    9     -0.15      0.00
    7   -4    9     -0.30      0.00
    8   -4    9      0.21      0.00
    9   -4    9     -0.08      0.00
   10   -4    9      0.02      0.00
   11   -4    9      0.08      0.00
   12   -4    9     -0.16      0.00
   13   -4    9     -0.11      0.00
   14   -4    9      0.14      0.00
  -16   -3    9      0.04      0.00
  -15   -3    9      0.32      0.00
  -14   -3    9      0.03      0.00
  -13   -3    9      0.03      0.00
  -12   -3    9     -0.02      0.00
  -11   -3    9     -0.30      0.00
  -10   -3    9      0.13      0.00
   -9   -3    9     -0.07      0.00
   -8   -3    9     -0.17      0.00
   -7   -3    9      0.03      0.00
   -6   -3    9     -0.23      0.00
   -5   -3    9     -0.30      0.00
   -4   -3    9      0.47      0.00
   -3   -3    9     -0.15      0.00
   -2   -3    9     -0.47      0.00
   -1   -3    9      0.56      0.00
    0   -3    9     -0.22      0.00
    1   -3    9      0.43      0.00
    2   -3    9      0.28      0.00
    4   -3    9      0.09      0.00
    5   -3    9      0.40      0.00
    6   -3    9      0.05      0.00
    7   -3    9     -0.20      0.00
    8   -3    9      0.28      0.00
    9   -3    9     -0.18      0.00
   10   -3    9      0.17      0.00
   11   -3    9      0.35      0.00
   12   -3    9      0.24      0.00
   13   -3    9     -0.14      0.00
  -16   -2    9     -0.21      0.00
  -15   -2    9      0.28      0.00
  -14   -2    9      0.02      0.00
  -13   -2    9     -0.30      0.00
  -12   -2    9      0.31      0.00
  -11   -2    9     -0.13      0.00
  -10   -2    9     -0.04      0.00
   -9   -2    9     -0.04      0.00
   -8   -2    9     -0.15      0.00
   -7   -2    9      0.05      0.00
   -6   -2    9      0.71      0.00
   -5   -2    9     -0.62      0.00
   -4   -2    9     -0.28      0.00
   -3   -2    9      0.59      0.00
   -2   -2    9      0.27      0.00
   -1   -2    9     -0.21      0.00
    0   -2    9     -0.33      0.00
    1   -2    9      0.21      0.00
    2   -2    9     -0.31      0.00
    3   -2    9     -0.25      0.00
    4   -2    9     -0.21      0.00
    5   -2    9     -0.10      0.00
    6   -2    9     -0.27      0.00
    7   -2    9      0.16      0.00
    8   -2    9     -0.07      0.00
    9   -2    9     -0.32      0.00
   10   -2    9     -0.05      0.00
   11   -2    9     -0.58      0.00
   12   -2    9      0.07      0.00
   13   -2    9      0.07      0.00
  -16   -1    9     -0.06      0.00
  -15   -1    9     -0.03      0.00
  -14   -1    9      0.30      0.00
  -13   -1    9     -0.21      0.00
  -12   -1    9      0.04      0.00
  -11   -1    9     -0.02      0.00
  -10   -1    9     -0.14      0.00
   -9   -1    9     -0.11      0.00
   -8   -1    9      0.17      0.00
   -6   -1    9      0.05      0.00
   -4   -1    9     -0.29      0.00
   -3   -1    9      0.14      0.00
   -2   -1    9      0.13      0.00
   -1   -1    9     -0.06      0.00
    0   -1    9     -0.35      0.00
    1   -1    9      0.25      0.00
    2   -1    9     -0.04      0.00
    3   -1    9      0.18      0.00
    4   -1    9      0.07      0.00
    5   -1    9      0.16      0.00
    6   -1    9      0.11      0.00
    7   -1    9     -0.10      0.00
    8   -1    9      0.09      0.00
    9   -1    9      0.10      0.00
   10   -1    9      0.03      0.00
   11   -1    9     -0.02      0.00
   12   -1    9      0.25      0.00
  -16    0    9      0.30      0.00
  -15    0    9     -0.25      0.00
  -14    0    9      0.09      0.00
  -13    0    9      0.18      0.00
  -12    0    9     -0.16      0.00
  -11    0    9      0.24      0.00
  -10    0    9      0.33      0.00
   -9    0    9      0.07      0.00
   -8    0    9      0.09      0.00
   -7    0    9     -0.21      0.00
   -5    0    9     -0.30      0.00
   -4    0    9     -0.23      0.00
   -2    0    9     -0.07      0.00
   -1    0    9      0.27      0.00
    0    0    9      0.15      0.00
    1    0    9      0.24      0.00
    2    0    9      0.12      0.00
    3    0    9     -0.03      0.00
    4    0    9      0.14      0.00
    5    0    9     -0.01      0.00
    6    0    9     -0.13      0.00
    7    0    9      0.06      0.00
    8    0    9      0.03      0.00
    9    0    9     -0.07      0.00
   10    0    9      0.14      0.00
   11    0    9     -0.07      0.00
   12    0    9      0.04      0.00
  -17    1    9     -0.47      0.00
  -16    1    9     -0.09      0.00
  -15    1    9      0.09      0.00
  -14    1    9     -0.19      0.00
  -13    1    9      0.41      0.00
  -12    1    9     -0.04      0.00
  -11    1    9      0.66      0.00
  -10    1    9     -0.33      0.00
   -9    1    9      0.22      0.00
   -8    1    9     -0.03      0.00
   -7    1    9     -0.07      0.00
   -6    1    9      0.21      0.00
   -5    1    9      0.02      0.00
   -4    1    9     -0.20      0.00
   -3    1    9      0.51      0.00
   -2    1    9      0.11      0.00
   -1    1    9     -0.04      0.00
    0    1    9      0.10      0.00
    1    1    9     -0.28      0.00
    2    1    9      0.13      0.00
    3    1    9     -0.02      0.00
    4    1    9     -0.21      0.00
    5    1    9      0.28      0.00
    6    1    9     -0.26      0.00
    7    1    9      0.26      0.00
    8    1    9      0.02      0.00
    9    1    9      0.04      0.00
   10    1    9     -0.08      0.00
   11    1    9     -0.08      0.00
  -17    2    9      0.07      0.00
  -16    2    9     -0.13      0.00
  -15    2    9      0.22      0.00
  -14    2    9      0.10      0.00
  -13    2    9     -0.16      0.00
  -12    2    9     -0.34      0.00
  -11    2    9     -0.35      0.00
  -10    2    9      0.15      0.00
   -9    2    9     -0.23      0.00
   -8    2    9      0.14      0.00
   -7    2    9      0.27      0.00
   -6    2    9     -0.46      0.00
   -5    2    9      0.09      0.00
   -4    2    9      0.21      0.00
   -3    2    9     -0.72      0.00
   -2    2    9     -0.09      0.00
   -1    2    9     -0.19      0.00
    0    2    9     -0.14      0.00
    1    2    9     -0.01      0.00
    2    2    9     -0.07      0.00
    3    2    9     -0.21      0.00
    4    2    9      0.03      0.00
    5    2    9      0.21      0.00
    6    2    9     -0.25      0.00
    7    2    9      0.07      0.00
    8    2    9      0.17      0.00
    9    2    9     -0.03      0.00
   10    2    9      0.21      0.00
   11    2    9     -0.12      0.00
  -17    3    9      0.34      0.00
  -16    3    9     -0.09      0.00
  -15    3    9     -0.56      0.00
  -14    3    9      0.19      0.00
  -13    3    9     -0.25      0.00
  -12    3    9     -0.10      0.00
  -11    3    9      0.06      0.00
  -10    3    9      0.23      0.00
   -9    3    9     -0.27      0.00
   -8    3    9     -0.27      0.00
   -7    3    9      0.36      0.00
   -6    3    9     -0.41      0.00
   -5    3    9      0.08      0.00
   -4    3    9      0.17      0.00
   -3    3    9     -0.08      0.00
   -2    3    9      0.31      0.00
   -1    3    9      0.10      0.00
    0    3    9      0.06      0.00
    1    3    9      0.09      0.00
    2    3    9      0.22      0.00
    3    3    9     -0.11      0.00
    4    3    9     -0.10      0.00
    5    3    9      0.14      0.00
    6    3    9      0.08      0.00
    7    3    9     -0.35      0.00
    8    3    9      0.03      0.00
    9    3    9     -0.04      0.00
   10    3    9      0.08      0.00
  -17    4    9      0.21      0.00
  -16    4    9      0.00      0.00
  -15    4    9     -0.04      0.00
  -14    4    9      0.18      0.00
  -13    4    9      0.21      0.00
  -12    4    9     -0.15      0.00
  -11    4    9     -0.25      0.00
  -10    4    9      0.09      0.00
   -9    4    9     -0.26      0.00
   -8    4    9     -0.05      0.00
   -7    4    9      0.33      0.00
   -6    4    9      0.15      0.00
   -5    4    9     -0.30      0.00
   -3    4    9     -0.39      0.00
   -2    4    9      0.20      0.00
   -1    4    9     -0.21      0.00
    0    4    9     -0.10      0.00
    1    4    9     -0.35      0.00
    2    4    9      0.36      0.00
    3    4    9     -0.01      0.00
    4    4    9     -0.19      0.00
    5    4    9      0.08      0.00
    6    4    9      0.13      0.00
    7    4    9     -0.07      0.00
    8    4    9      0.21      0.00
    9    4    9      0.11      0.00
  -17    5    9     -0.03      0.00
  -16    5    9      0.16      0.00
  -15    5    9     -0.14      0.00
  -14    5    9     -0.15      0.00
  -13    5    9     -0.07      0.00
  -12    5    9     -0.03      0.00
  -11    5    9      0.35      0.00
  -10    5    9      0.00      0.00
   -9    5    9      0.41      0.00
   -8    5    9     -0.12      0.00
   -7    5    9      0.35      0.00
   -6    5    9     -0.19      0.00
   -5    5    9      0.30      0.00
   -4    5    9      0.34      0.00
   -3    5    9     -0.20      0.00
   -2    5    9      0.17      0.00
   -1    5    9      0.16      0.00
    0    5    9      0.02      0.00
    1    5    9     -0.01      0.00
    2    5    9      0.06      0.00
    3    5    9     -0.11      0.00
    4    5    9     -0.03      0.00
    5    5    9     -0.07      0.00
    6    5    9     -0.13      0.00
    7    5    9     -0.37      0.00
    8    5    9     -0.26      0.00
  -16    6    9     -0.25      0.00
  -15    6    9      0.14      0.00
  -14    6    9      0.30      0.00
  -13    6    9     -0.06      0.00
  -12    6    9     -0.09      0.00
  -11    6    9      0.14      0.00
  -10    6    9     -0.27      0.00
   -9    6    9     -0.02      0.00
   -8    6    9     -0.37      0.00
   -7    6    9      0.06      0.00
   -6    6    9     -0.46      0.00
   -5    6    9      0.13      0.00
   -4    6    9     -0.13      0.00
   -3    6    9     -0.33      0.00
   -2    6    9      0.26      0.00
   -1    6    9     -0.06      0.00
    0    6    9      0.15      0.00
    1    6    9     -0.19      0.00
    2    6    9      0.22      0.00
    3    6    9     -0.06      0.00
    4    6    9     -0.07      0.00
    5    6    9      0.10      0.00
    6    6    9      0.43      0.00
    7    6    9      0.12      0.00
  -16    7    9     -0.08      0.00
  -15    7    9     -0.16      0.00
  -14    7    9      0.33      0.00
  -13    7    9     -0.06      0.00
  -12    7    9     -0.15      0.00
  -11    7    9      0.07      0.00
  -10    7    9     -0.04      0.00
   -9    7    9     -0.36      0.00
   -8    7    9      0.57      0.00
   -7    7    9     -0.16      0.00
   -6    7    9     -0.08      0.00
   -5    7    9     -0.04      0.00
   -4    7    9      0.09      0.00
   -3    7    9     -0.14      0.00
   -2    7    9     -0.06      0.00
   -1    7    9      0.05      0.00
    0    7    9     -0.19      0.00
    1    7    9     -0.22      0.00
    3    7    9      0.37      0.00
    4    7    9     -0.38      0.00
    5    7    9      0.18      0.00
    6    7    9     -0.26      0.00
  -16    8    9     -0.03      0.00
  -15    8    9     -0.06      0.00
  -14    8    9      0.10      0.00
  -13    8    9     -0.02      0.00
  -12    8    9      0.13      0.00
  -11    8    9      0.18      0.00
  -10    8    9      0.27      0.00
   -9    8    9     -0.09      0.00
   -8    8    9     -0.04      0.00
   -7    8    9      0.03      0.00
   -6    8    9     -0.23      0.00
   -5    8    9     -0.02      0.00
   -4    8    9      0.12      0.00
   -3    8    9     -0.04      0.00
   -2    8    9     -0.23      0.00
   -1    8    9      0.16      0.00
    0    8    9      0.23      0.00
    1    8    9     -0.07      0.00
    2    8    9      0.10      0.00
    3    8    9      0.18      0.00
    4    8    9     -0.06      0.00
    5    8    9      0.07      0.00
  -15    9    9     -0.02      0.00
  -14    9    9      0.05      0.00
  -13    9    9     -0.24      0.00
  -12    9    9      0.17      0.00
  -11    9    9     -0.11      0.00
  -10    9    9     -0.13      0.00
   -9    9    9      0.06      0.00
   -8    9    9     -0.21      0.00
   -7    9    9      0.37      0.00
   -6    9    9     -0.17      0.00
   -5    9    9     -0.02      0.00
   -4    9    9     -0.03      0.00
   -3    9    9      0.05      0.00
   -2    9    9     -0.18      0.00
   -1    9    9      0.33      0.00
    2    9    9     -0.25      0.00
    3    9    9     -0.14      0.00
  -14   10    9      0.15      0.00
  -13   10    9     -0.19      0.00
  -12   10    9     -0.22      0.00
  -11   10    9      0.07      0.00
  -10   10    9      0.00      0.00
   -9   10    9      0.02      0.00
   -8   10    9     -0.15      0.00
   -7   10    9      0.04      0.00
   -6   10    9      0.19      0.00
   -5   10    9      0.09      0.00
   -4   10    9     -0.21      0.00
   -3   10    9      0.22      0.00
   -2   10    9     -0.29      0.00
   -1   10    9     -0.24      0.00
    1   10    9      0.23      0.00
    2   10    9     -0.07      0.00
  -13   11    9     -0.12      0.00
  -12   11    9      0.19      0.00
  -11   11    9     -0.25      0.00
  -10   11    9      0.23      0.00
   -9   11    9      0.15      0.00
   -8   11    9      0.70      0.00
   -7   11    9     -0.15      0.00
   -6   11    9      0.33      0.00
   -5   11    9      0.14      0.00
   -4   11    9      0.33      0.00
   -3   11    9      0.20      0.00
   -2   11    9     -0.17      0.00
   -1   11    9      0.39      0.00
  -11   12    9     -0.12      0.00
  -10   12    9      0.13      0.00
   -9   12    9     -0.50      0.00
   -8   12    9     -0.31      0.00
   -7   12    9     -0.07      0.00
   -6   12    9     -0.24      0.00
   -5   12    9     -0.08      0.00
   -4   12    9      0.14      0.00
   -3   12    9      0.05      0.00
    0  -17   10      0.18      0.00
    1  -17   10     -0.37      0.00
    2  -17   10      0.02      0.00
    3  -17   10      0.13      0.00
    4  -17   10     -0.13      0.00
    5  -17   10     -0.04      0.00
    6  -17   10     -0.05      0.00
    7  -17   10     -0.12      0.00
    8  -17   10     -0.22      0.00
   -3  -16   10     -0.18      0.00
   -2  -16   10     -0.34      0.00
    0  -16   10      0.44      0.00
    1  -16   10     -0.14      0.00
    2  -16   10     -0.13      0.00
    3  -16   10      0.30      0.00
    4  -16   10     -0.26      0.00
    5  -16   10      0.35      0.00
    6  -16   10      0.09      0.00
    7  -16   10      0.22      0.00
    8  -16   10     -0.27      0.00
    9  -16   10      0.46      0.00
   10  -16   10     -0.25      0.00
   -5  -15   10      0.00      0.00
   -4  -15   10     -0.25      0.00
   -3  -15   10      0.18      0.00
   -2  -15   10      0.21      0.00
    0  -15   10     -0.34      0.00
    1  -15   10      0.02      0.00
    2  -15   10     -0.61      0.00
    3  -15   10      0.21      0.00
    4  -15   10     -0.36      0.00
    5  -15   10      0.27      0.00
    6  -15   10     -0.58      0.00
    7  -15   10      0.53      0.00
    8  -15   10     -0.28      0.00
    9  -15   10     -0.04      0.00
   10  -15   10     -0.08      0.00
   11  -15   10      0.12      0.00
   -6  -14   10     -0.15      0.00
   -5  -14   10      0.20      0.00
   -4  -14   10     -0.22      0.00
   -3  -14   10      0.16      0.00
   -2  -14   10     -0.38      0.00
    0  -14   10      0.22      0.00
    1  -14   10     -0.15      0.00
    2  -14   10      0.03      0.00
    3  -14   10      0.07      0.00
    4  -14   10     -0.18      0.00
    5  -14   10      0.07      0.00
    6  -14   10     -0.27      0.00
    7  -14   10     -0.13      0.00
    8  -14   10     -0.21      0.00
    9  -14   10      0.01      0.00
   10  -14   10      0.02      0.00
   11  -14   10     -0.11      0.00
   12  -14   10      0.02      0.00
   -8  -13   10     -0.14      0.00
   -7  -13   10      0.25      0.00
   -6  -13   10      0.06      0.00
   -5  -13   10     -0.29      0.00
   -4  -13   10      0.67      0.00
   -3  -13   10     -0.13      0.00
   -2  -13   10      0.37      0.00
    0  -13   10     -0.09      0.00
    1  -13   10      0.75      0.00
    2  -13   10     -0.16      0.00
    3  -13   10     -0.03      0.00
    4  -13   10      0.06      0.00
    5  -13   10     -0.01      0.00
    6  -13   10      0.03      0.00
    7  -13   10     -0.15      0.00
    8  -13   10      0.39      0.00
    9  -13   10      0.00      0.00
   10  -13   10     -0.01      0.00
   11  -13   10     -0.07      0.00
   12  -13   10      0.29      0.00
   13  -13   10     -0.15      0.00
   -9  -12   10     -0.16      0.00
   -8  -12   10     -0.21      0.00
   -7  -12   10      0.01      0.00
   -6  -12   10      0.14      0.00
   -5  -12   10      0.10      0.00
   -4  -12   10     -0.40      0.00
   -3  -12   10      0.30      0.00
   -2  -12   10      0.01      0.00
   -1  -12   10      0.34      0.00
    0  -12   10     -0.46      0.00
    1  -12   10      0.09      0.00
    2  -12   10      0.12      0.00
    3  -12   10     -0.10      0.00
    4  -12   10     -0.09      0.00
    5  -12   10      0.14      0.00
    6  -12   10     -0.01      0.00
    7  -12   10      0.12      0.00
    8  -12   10      0.10      0.00
    9  -12   10     -0.16      0.00
   10  -12   10     -0.12      0.00
   11  -12   10     -0.33      0.00
   12  -12   10      0.21      0.00
   13  -12   10     -0.23      0.00
  -10  -11   10     -0.01      0.00
   -9  -11   10      0.24      0.00
   -8  -11   10      0.04      0.00
   -7  -11   10      0.04      0.00
   -6  -11   10     -0.03      0.00
   -5  -11   10      0.25      0.00
   -4  -11   10     -0.27      0.00
   -3  -11   10      0.03      0.00
   -2  -11   10      0.22      0.00
    0  -11   10      0.16      0.00
    1  -11   10      0.15      0.00
    2  -11   10     -0.04      0.00
    3  -11   10      0.09      0.00
    4  -11   10      0.51      0.00
    5  -11   10     -0.06      0.00
    6  -11   10     -0.05      0.00
    7  -11   10      0.06      0.00
    8  -11   10     -0.23      0.00
    9  -11   10      0.37      0.00
   10  -11   10      0.20      0.00
   11  -11   10     -0.18      0.00
   12  -11   10     -0.08      0.00
   13  -11   10      0.28      0.00
  -11  -10   10     -0.19      0.00
  -10  -10   10     -0.02      0.00
   -9  -10   10     -0.15      0.00
   -8  -10   10     -0.07      0.00
   -7  -10   10     -0.27      0.00
   -6  -10   10     -0.51      0.00
   -5  -10   10      0.22      0.00
   -4  -10   10     -0.20      0.00
   -3  -10   10     -0.38      0.00
   -2  -10   10      0.40      0.00
    0  -10   10      0.19      0.00
    1  -10   10     -0.11      0.00
    2  -10   10     -0.01      0.00
    3  -10   10     -0.36      0.00
    4  -10   10      0.00      0.00
    5  -10   10      0.16      0.00
    6  -10   10     -0.07      0.00
    7  -10   10     -0.04      0.00
    8  -10   10      0.08      0.00
    9  -10   10      0.23      0.00
   10  -10   10     -0.10      0.00
   11  -10   10      0.25      0.00
   12  -10   10      0.19      0.00
   13  -10   10     -0.14      0.00
   14  -10   10      0.26      0.00
  -12   -9   10      0.16      0.00
  -11   -9   10     -0.21      0.00
  -10   -9   10      0.17      0.00
   -9   -9   10     -0.06      0.00
   -7   -9   10     -0.04      0.00
   -6   -9   10      0.39      0.00
   -5   -9   10      0.04      0.00
   -4   -9   10     -0.17      0.00
   -3   -9   10     -0.09      0.00
    0   -9   10      0.39      0.00
    1   -9   10      0.05      0.00
    2   -9   10      0.08      0.00
    3   -9   10      0.09      0.00
    4   -9   10     -0.24      0.00
    5   -9   10      0.34      0.00
    6   -9   10     -0.12      0.00
    7   -9   10     -0.10      0.00
    8   -9   10      0.21      0.00
   10   -9   10     -0.13      0.00
   11   -9   10     -0.17      0.00
   12   -9   10      0.04      0.00
   13   -9   10      0.04      0.00
   14   -9   10      0.52      0.00
  -13   -8   10     -0.43      0.00
  -11   -8   10     -0.18      0.00
  -10   -8   10      0.08      0.00
   -9   -8   10      0.29      0.00
   -8   -8   10     -0.25      0.00
   -7   -8   10     -0.12      0.00
   -5   -8   10     -0.12      0.00
   -4   -8   10     -0.10      0.00
   -3   -8   10      0.02      0.00
   -2   -8   10      0.35      0.00
   -1   -8   10     -0.15      0.00
    0   -8   10      0.09      0.00
    1   -8   10     -0.02      0.00
    2   -8   10     -0.10      0.00
    3   -8   10      0.15      0.00
    4   -8   10     -0.39      0.00
    5   -8   10      0.22      0.00
    6   -8   10      0.06      0.00
    7   -8   10     -0.47      0.00
    8   -8   10     -0.11      0.00
    9   -8   10      0.09      0.00
   10   -8   10      0.29      0.00
   11   -8   10     -0.18      0.00
   12   -8   10      0.15      0.00
   13   -8   10      0.17      0.00
   14   -8   10     -0.22      0.00
  -13   -7   10      0.76      0.00
  -12   -7   10     -0.43      0.00
  -11   -7   10      0.04      0.00
  -10   -7   10     -0.17      0.00
   -9   -7   10      0.12      0.00
   -8   -7   10     -0.19      0.00
   -7   -7   10      0.21      0.00
   -6   -7   10      0.07      0.00
   -5   -7   10     -0.16      0.00
   -4   -7   10      0.32      0.00
   -3   -7   10     -0.22      0.00
   -2   -7   10      0.29      0.00
   -1   -7   10     -0.19      0.00
    0   -7   10     -0.26      0.00
    1   -7   10     -0.08      0.00
    2   -7   10      0.30      0.00
    3   -7   10     -0.16      0.00
    4   -7   10     -0.02      0.00
    5   -7   10      0.19      0.00
    6   -7   10      0.07      0.00
    7   -7   10     -0.03      0.00
    8   -7   10      0.29      0.00
    9   -7   10     -0.11      0.00
   10   -7   10      0.10      0.00
   11   -7   10      0.01      0.00
   12   -7   10     -0.53      0.00
   13   -7   10     -0.03      0.00
   14   -7   10      0.14      0.00
  -14   -6   10     -0.30      0.00
  -13   -6   10      0.32      0.00
  -12   -6   10     -0.41      0.00
  -11   -6   10     -0.10      0.00
  -10   -6   10      0.47      0.00
   -9   -6   10     -0.12      0.00
   -8   -6   10     -0.10      0.00
   -7   -6   10      0.05      0.00
   -6   -6   10     -0.13      0.00
   -5   -6   10      0.35      0.00
   -4   -6   10     -0.31      0.00
   -3   -6   10     -0.21      0.00
   -2   -6   10      0.17      0.00
   -1   -6   10      0.18      0.00
    0   -6   10     -0.19      0.00
    1   -6   10      0.29      0.00
    2   -6   10     -0.02      0.00
    3   -6   10     -0.01      0.00
    4   -6   10     -0.12      0.00
    5   -6   10      0.02      0.00
    6   -6   10      0.00      0.00
    7   -6   10      0.10      0.00
    8   -6   10     -0.24      0.00
    9   -6   10     -0.09      0.00
   10   -6   10      0.19      0.00
   11   -6   10      0.04      0.00
   12   -6   10     -0.10      0.00
   13   -6   10      0.30      0.00
   14   -6   10     -0.32      0.00
  -15   -5   10     -0.24      0.00
  -14   -5   10     -0.37      0.00
  -13   -5   10      0.36      0.00
  -12   -5   10      0.22      0.00
  -11   -5   10     -0.09      0.00
  -10   -5   10      0.03      0.00
   -9   -5   10      0.06      0.00
   -8   -5   10      0.26      0.00
   -7   -5   10      0.21      0.00
   -6   -5   10     -0.12      0.00
   -5   -5   10      0.10      0.00
   -3   -5   10     -0.13      0.00
   -2   -5   10      0.33      0.00
   -1   -5   10     -0.48      0.00
    0   -5   10     -0.13      0.00
    1   -5   10     -0.33      0.00
    2   -5   10      0.01      0.00
    3   -5   10     -0.47      0.00
    4   -5   10      0.09      0.00
    5   -5   10     -0.21      0.00
    6   -5   10      0.15      0.00
    7   -5   10      0.14      0.00
    8   -5   10      0.03      0.00
    9   -5   10      0.06      0.00
   10   -5   10     -0.11      0.00
   11   -5   10      0.04      0.00
   12   -5   10      0.40      0.00
   13   -5   10     -0.35      0.00
  -15   -4   10      0.26      0.00
  -14   -4   10      0.13      0.00
  -13   -4   10     -0.10      0.00
  -12   -4   10     -0.18      0.00
  -11   -4   10     -0.11      0.00
  -10   -4   10      0.29      0.00
   -9   -4   10     -0.45      0.00
   -8   -4   10      0.11      0.00
   -7   -4   10     -0.25      0.00
   -6   -4   10      0.09      0.00
   -5   -4   10      0.05      0.00
   -4   -4   10      0.42      0.00
   -3   -4   10     -0.35      0.00
   -2   -4   10      0.25      0.00
   -1   -4   10      0.41      0.00
    0   -4   10     -0.12      0.00
    1   -4   10      0.17      0.00
    3   -4   10     -0.08      0.00
    4   -4   10      0.16      0.00
    5   -4   10      0.12      0.00
    6   -4   10     -0.04      0.00
    7   -4   10     -0.01      0.00
    8   -4   10      0.12      0.00
    9   -4   10     -0.16      0.00
   10   -4   10      0.13      0.00
   11   -4   10     -0.20      0.00
   12   -4   10      0.43      0.00
   13   -4   10     -0.25      0.00
  -15   -3   10      0.32      0.00
  -14   -3   10     -0.11      0.00
  -13   -3   10     -0.08      0.00
  -12   -3   10      0.11      0.00
  -11   -3   10     -0.20      0.00
  -10   -3   10     -0.09      0.00
   -9   -3   10     -0.11      0.00
   -8   -3   10     -0.32      0.00
   -7   -3   10      0.05      0.00
   -6   -3   10      0.00      0.00
   -5   -3   10     -0.08      0.00
   -4   -3   10     -0.41      0.00
   -3   -3   10     -0.13      0.00
   -2   -3   10      0.48      0.00
   -1   -3   10     -0.08      0.00
    0   -3   10     -0.05      0.00
    1   -3   10      0.09      0.00
    2   -3   10     -0.11      0.00
    4   -3   10     -0.01      0.00
    5   -3   10     -0.30      0.00
    6   -3   10     -0.25      0.00
    7   -3   10     -0.12      0.00
    8   -3   10     -0.07      0.00
    9   -3   10     -0.03      0.00
   10   -3   10      0.24      0.00
   11   -3   10     -0.93      0.00
   12   -3   10      0.36      0.00
   13   -3   10     -0.30      0.00
  -16   -2   10      0.05      0.00
  -15   -2   10     -0.29      0.00
  -14   -2   10      0.18      0.00
  -13   -2   10     -0.03      0.00
  -12   -2   10     -0.03      0.00
  -11   -2   10     -0.22      0.00
  -10   -2   10      0.22      0.00
   -9   -2   10      0.07      0.00
   -8   -2   10      0.03      0.00
   -7   -2   10      0.39      0.00
   -6   -2   10     -0.77      0.00
   -4   -2   10     -0.14      0.00
   -3   -2   10      0.09      0.00
   -2   -2   10     -0.26      0.00
   -1   -2   10      0.44      0.00
    0   -2   10     -0.59      0.00
    1   -2   10      0.35      0.00
    2   -2   10     -0.33      0.00
    3   -2   10      0.20      0.00
    4   -2   10      0.05      0.00
    6   -2   10      0.24      0.00
    7   -2   10     -0.27      0.00
    8   -2   10     -0.07      0.00
    9   -2   10     -0.06      0.00
   10   -2   10      0.00      0.00
   11   -2   10     -0.06      0.00
   12   -2   10      0.38      0.00
  -16   -1   10      0.59      0.00
  -15   -1   10     -0.25      0.00
  -14   -1   10      0.11      0.00
  -13   -1   10      0.40      0.00
  -12   -1   10     -0.24      0.00
  -11   -1   10      0.14      0.00
  -10   -1   10      0.39      0.00
   -9   -1   10     -0.15      0.00
   -8   -1   10      0.10      0.00
   -7   -1   10     -0.09      0.00
   -6   -1   10     -0.38      0.00
   -5   -1   10     -0.18      0.00
   -4   -1   10     -0.26      0.00
   -3   -1   10      0.06      0.00
   -2   -1   10     -0.33      0.00
   -1   -1   10      0.25      0.00
    0   -1   10     -0.10      0.00
    1   -1   10      0.32      0.00
    2   -1   10     -0.10      0.00
    3   -1   10      0.05      0.00
    4   -1   10      0.08      0.00
    5   -1   10     -0.02      0.00
    6   -1   10      0.28      0.00
    7   -1   10     -0.12      0.00
    8   -1   10      0.14      0.00
    9   -1   10     -0.11      0.00
   10   -1   10      0.16      0.00
   11   -1   10     -0.08      0.00
   12   -1   10     -0.10      0.00
  -16    0   10     -0.07      0.00
  -15    0   10     -0.34      0.00
  -14    0   10     -0.25      0.00
  -13    0   10      0.28      0.00
  -12    0   10      0.02      0.00
  -11    0   10      0.41      0.00
  -10    0   10     -0.16      0.00
   -9    0   10      0.10      0.00
   -8    0   10      0.16      0.00
   -7    0   10      0.03      0.00
   -6    0   10      0.18      0.00
   -5    0   10      0.13      0.00
   -4    0   10     -0.20      0.00
   -3    0   10      0.23      0.00
   -2    0   10      0.21      0.00
   -1    0   10     -0.17      0.00
    0    0   10      0.14      0.00
    1    0   10     -0.15      0.00
    2    0   10      0.19      0.00
    3    0   10      0.03      0.00
    4    0   10     -0.06      0.00
    5    0   10      0.02      0.00
    6    0   10      0.21      0.00
    7    0   10     -0.07      0.00
    8    0   10      0.12      0.00
    9    0   10      0.30      0.00
   10    0   10     -0.20      0.00
   11    0   10      0.27      0.00
  -16    1   10     -0.07      0.00
  -15    1   10      0.46      0.00
  -14    1   10     -0.05      0.00
  -13    1   10      0.41      0.00
  -12    1   10     -0.26      0.00
  -11    1   10     -0.38      0.00
  -10    1   10      0.15      0.00
   -9    1   10     -0.21      0.00
   -8    1   10      0.05      0.00
   -7    1   10      0.12      0.00
   -6    1   10     -0.28      0.00
   -5    1   10      0.10      0.00
   -4    1   10      0.32      0.00
   -3    1   10     -0.85      0.00
   -2    1   10      0.27      0.00
   -1    1   10     -0.27      0.00
    0    1   10     -0.23      0.00
    1    1   10     -0.07      0.00
    2    1   10      0.01      0.00
    3    1   10     -0.11      0.00
    4    1   10      0.01      0.00
    5    1   10      0.05      0.00
    6    1   10     -0.04      0.00
    7    1   10      0.15      0.00
    8    1   10     -0.04      0.00
    9    1   10      0.12      0.00
   10    1   10      0.12      0.00
   11    1   10      0.11      0.00
  -17    2   10      0.33      0.00
  -16    2   10     -0.01      0.00
  -15    2   10     -0.55      0.00
  -14    2   10     -0.21      0.00
  -13    2   10     -0.33      0.00
  -12    2   10     -0.20      0.00
  -11    2   10     -0.10      0.00
  -10    2   10      0.00      0.00
   -9    2   10      0.02      0.00
   -8    2   10     -0.38      0.00
   -7    2   10      0.38      0.00
   -6    2   10     -0.37      0.00
   -5    2   10      0.13      0.00
   -4    2   10     -0.02      0.00
   -3    2   10      0.04      0.00
   -2    2   10      0.14      0.00
   -1    2   10      0.12      0.00
    0    2   10      0.05      0.00
    1    2   10     -0.12      0.00
    2    2   10      0.18      0.00
    3    2   10      0.03      0.00
    4    2   10     -0.40      0.00
    5    2   10      0.07      0.00
    6    2   10      0.15      0.00
    7    2   10     -0.14      0.00
    8    2   10     -0.02      0.00
    9    2   10      0.02      0.00
   10    2   10     -0.20      0.00
  -17    3   10      0.06      0.00
  -16    3   10      0.12      0.00
  -15    3   10      0.34      0.00
  -14    3   10     -0.22      0.00
  -13    3   10      0.52      0.00
  -12    3   10     -0.02      0.00
  -11    3   10      0.06      0.00
  -10    3   10     -0.36      0.00
   -9    3   10      0.34      0.00
   -8    3   10     -0.40      0.00
   -7    3   10      0.00      0.00
   -6    3   10      0.04      0.00
   -5    3   10      0.01      0.00
   -4    3   10     -0.23      0.00
   -3    3   10      0.16      0.00
   -2    3   10     -0.28      0.00
   -1    3   10      0.38      0.00
    0    3   10      0.05      0.00
    1    3   10     -0.38      0.00
    2    3   10      0.22      0.00
    3    3   10      0.20      0.00
    4    3   10     -0.07      0.00
    5    3   10     -0.06      0.00
    6    3   10      0.10      0.00
    7    3   10     -0.01      0.00
    8    3   10     -0.17      0.00
    9    3   10      0.54      0.00
  -16    4   10      0.35      0.00
  -15    4   10      0.04      0.00
  -14    4   10     -0.41      0.00
  -13    4   10      0.04      0.00
  -12    4   10     -0.07      0.00
  -11    4   10      0.26      0.00
  -10    4   10     -0.25      0.00
   -9    4   10      0.69      0.00
   -8    4   10      0.15      0.00
   -7    4   10      0.02      0.00
   -6    4   10     -0.04      0.00
   -5    4   10      0.45      0.00
   -4    4   10      0.13      0.00
   -3    4   10      0.20      0.00
   -2    4   10     -0.13      0.00
   -1    4   10      0.14      0.00
    0    4   10      0.13      0.00
    1    4   10      0.04      0.00
    2    4   10     -0.04      0.00
    3    4   10      0.16      0.00
    4    4   10      0.08      0.00
    5    4   10     -0.01      0.00
    6    4   10     -0.20      0.00
    7    4   10      0.09      0.00
    8    4   10     -0.83      0.00
  -16    5   10     -0.21      0.00
  -15    5   10      0.23      0.00
  -14    5   10      0.02      0.00
  -13    5   10     -0.01      0.00
  -12    5   10      0.38      0.00
  -11    5   10     -0.17      0.00
  -10    5   10     -0.04      0.00
   -9    5   10     -0.21      0.00
   -8    5   10     -0.03      0.00
   -7    5   10     -0.02      0.00
   -6    5   10     -0.01      0.00
   -5    5   10      0.03      0.00
   -4    5   10      0.02      0.00
   -3    5   10     -0.10      0.00
   -2    5   10     -0.05      0.00
   -1    5   10      0.13      0.00
    0    5   10     -0.34      0.00
    1    5   10      0.18      0.00
    2    5   10     -0.17      0.00
    3    5   10     -0.21      0.00
    4    5   10      0.00      0.00
    5    5   10     -0.58      0.00
    6    5   10      0.35      0.00
    7    5   10      0.20      0.00
  -16    6   10      0.20      0.00
  -15    6   10     -0.21      0.00
  -14    6   10      0.27      0.00
  -13    6   10     -0.32      0.00
  -12    6   10      0.29      0.00
  -11    6   10     -0.22      0.00
  -10    6   10     -0.20      0.00
   -9    6   10     -0.13      0.00
   -8    6   10      0.22      0.00
   -7    6   10     -0.16      0.00
   -6    6   10     -0.09      0.00
   -5    6   10     -0.12      0.00
   -4    6   10     -0.04      0.00
   -3    6   10     -0.09      0.00
   -2    6   10     -0.14      0.00
   -1    6   10      0.10      0.00
    0    6   10     -0.16      0.00
    1    6   10     -0.09      0.00
    2    6   10      0.06      0.00
    3    6   10      0.02      0.00
    4    6   10      0.45      0.00
    5    6   10     -0.17      0.00
    6    6   10      0.03      0.00
  -16    7   10      0.29      0.00
  -15    7   10      0.06      0.00
  -14    7   10      0.18      0.00
  -13    7   10     -0.12      0.00
  -12    7   10      0.10      0.00
  -11    7   10      0.24      0.00
  -10    7   10      0.07      0.00
   -9    7   10      0.29      0.00
   -8    7   10     -0.26      0.00
   -7    7   10      0.22      0.00
   -6    7   10     -0.29      0.00
   -5    7   10      0.05      0.00
   -4    7   10      0.12      0.00
   -3    7   10     -0.31      0.00
   -2    7   10     -0.05      0.00
   -1    7   10      0.03      0.00
    0    7   10      0.03      0.00
    2    7   10     -0.06      0.00
    3    7   10     -0.05      0.00
    4    7   10      0.05      0.00
    5    7   10     -0.01      0.00
  -15    8   10     -0.10      0.00
  -14    8   10     -0.36      0.00
  -13    8   10      0.00      0.00
  -12    8   10      0.17      0.00
  -11    8   10     -0.29      0.00
  -10    8   10      0.15      0.00
   -9    8   10     -0.07      0.00
   -8    8   10      0.05      0.00
   -7    8   10     -0.05      0.00
   -6    8   10     -0.19      0.00
   -5    8   10     -0.08      0.00
   -4    8   10     -0.16      0.00
   -3    8   10      0.08      0.00
   -2    8   10      0.06      0.00
   -1    8   10      0.11      0.00
    0    8   10     -0.07      0.00
    1    8   10      0.08      0.00
    2    8   10     -0.29      0.00
    3    8   10     -0.06      0.00
    4    8   10      0.10      0.00
  -14    9   10      0.11      0.00
  -13    9   10     -0.05      0.00
  -12    9   10     -0.09      0.00
  -11    9   10      0.05      0.00
  -10    9   10     -0.06      0.00
   -9    9   10     -0.44      0.00
   -8    9   10      0.29      0.00
   -7    9   10     -0.41      0.00
   -6    9   10      0.19      0.00
   -5    9   10      0.45      0.00
   -4    9   10     -0.19      0.00
   -3    9   10      0.15      0.00
   -2    9   10     -0.09      0.00
   -1    9   10     -0.39      0.00
    1    9   10      0.29      0.00
    2    9   10      0.01      0.00
  -13   10   10      0.05      0.00
  -12   10   10     -0.08      0.00
  -11   10   10     -0.07      0.00
  -10   10   10      0.27      0.00
   -9   10   10     -0.31      0.00
   -8   10   10      1.48      0.00
   -7   10   10     -0.33      0.00
   -6   10   10      0.27      0.00
   -5   10   10      0.26      0.00
   -4   10   10     -0.03      0.00
   -3   10   10      0.34      0.00
   -2   10   10      0.02      0.00
   -1   10   10      0.49      0.00
  -11   11   10      0.00      0.00
  -10   11   10      0.36      0.00
   -9   11   10     -0.98      0.00
   -8   11   10     -0.05      0.00
   -7   11   10     -0.12      0.00
   -6   11   10     -0.22      0.00
   -5   11   10      0.09      0.00
   -4   11   10     -0.12      0.00
   -3   11   10      0.38      0.00
   -2   11   10     -0.01      0.00
    0  -17   11      0.81      0.00
    1  -17   11     -0.28      0.00
    2  -17   11      0.03      0.00
    3  -17   11      0.04      0.00
    4  -17   11     -0.48      0.00
    5  -17   11      0.46      0.00
    6  -17   11     -0.24      0.00
    7  -17   11      0.36      0.00
    8  -17   11      0.06      0.00
   -3  -16   11      0.05      0.00
   -2  -16   11      0.63      0.00
    0  -16   11     -0.44      0.00
    1  -16   11      0.04      0.00
    2  -16   11     -0.23      0.00
    3  -16   11      0.23      0.00
    4  -16   11      0.00      0.00
    5  -16   11      0.09      0.00
    6  -16   11      0.11      0.00
    7  -16   11      0.22      0.00
    8  -16   11      0.05      0.00
    9  -16   11     -0.30      0.00
   10  -16   11      0.07      0.00
   -5  -15   11     -0.20      0.00
   -4  -15   11      0.07      0.00
   -3  -15   11      0.03      0.00
   -2  -15   11     -0.92      0.00
    1  -15   11     -0.30      0.00
    2  -15   11      0.04      0.00
    3  -15   11     -0.50      0.00
    4  -15   11     -0.17      0.00
    5  -15   11     -0.28      0.00
    6  -15   11     -0.26      0.00
    7  -15   11     -0.27      0.00
    8  -15   11     -0.38      0.00
    9  -15   11     -0.01      0.00
   10  -15   11      0.18      0.00
   11  -15   11     -0.20      0.00
   -6  -14   11      0.19      0.00
   -5  -14   11     -0.52      0.00
   -4  -14   11      0.09      0.00
   -3  -14   11      0.23      0.00
   -2  -14   11      0.03      0.00
    0  -14   11     -0.12      0.00
    1  -14   11      0.31      0.00
    2  -14   11      0.28      0.00
    3  -14   11      0.17      0.00
    4  -14   11      0.25      0.00
    5  -14   11      0.06      0.00
    6  -14   11      0.02      0.00
    7  -14   11      0.08      0.00
    8  -14   11      0.31      0.00
    9  -14   11     -0.01      0.00
   10  -14   11      0.39      0.00
   11  -14   11     -0.30      0.00
   12  -14   11      0.25      0.00
   -8  -13   11      0.00      0.00
   -7  -13   11     -0.13      0.00
   -6  -13   11      0.18      0.00
   -5  -13   11      0.31      0.00
   -4  -13   11     -0.20      0.00
   -2  -13   11      0.11      0.00
    0  -13   11      0.16      0.00
    1  -13   11     -0.31      0.00
    2  -13   11      0.34      0.00
    3  -13   11     -0.26      0.00
    4  -13   11      0.08      0.00
    5  -13   11     -0.21      0.00
    6  -13   11      0.16      0.00
    7  -13   11     -0.04      0.00
    8  -13   11     -0.03      0.00
    9  -13   11     -0.68      0.00
   10  -13   11      0.31      0.00
   11  -13   11     -0.33      0.00
   12  -13   11     -0.05      0.00
   -9  -12   11     -0.08      0.00
   -8  -12   11      0.27      0.00
   -7  -12   11     -0.01      0.00
   -6  -12   11      0.12      0.00
   -5  -12   11      0.21      0.00
   -4  -12   11      0.20      0.00
   -3  -12   11     -0.29      0.00
   -2  -12   11      0.07      0.00
    0  -12   11      0.20      0.00
    1  -12   11      0.23      0.00
    2  -12   11      0.01      0.00
    3  -12   11     -0.01      0.00
    4  -12   11      0.22      0.00
    5  -12   11      0.21      0.00
    6  -12   11     -0.15      0.00
    7  -12   11      0.05      0.00
    8  -12   11     -0.08      0.00
    9  -12   11      0.18      0.00
   10  -12   11      0.32      0.00
   11  -12   11     -0.06      0.00
   12  -12   11     -0.35      0.00
   13  -12   11      0.31      0.00
  -10  -11   11      0.11      0.00
   -9  -11   11     -0.04      0.00
   -8  -11   11     -0.04      0.00
   -7  -11   11      0.03      0.00
   -5  -11   11      0.14      0.00
   -4  -11   11     -0.39      0.00
   -3  -11   11     -0.13      0.00
   -2  -11   11      0.11      0.00
    0  -11   11     -0.23      0.00
    1  -11   11     -0.02      0.00
    2  -11   11      0.02      0.00
    3  -11   11     -0.29      0.00
    4  -11   11      0.00      0.00
    5  -11   11     -0.09      0.00
    6  -11   11      0.24      0.00
    7  -11   11      0.34      0.00
    8  -11   11      0.18      0.00
    9  -11   11     -0.11      0.00
   10  -11   11      0.29      0.00
   11  -11   11      0.15      0.00
   12  -11   11      0.25      0.00
   13  -11   11     -0.25      0.00
  -11  -10   11      0.34      0.00
  -10  -10   11     -0.32      0.00
   -9  -10   11     -0.01      0.00
   -8  -10   11     -0.13      0.00
   -7  -10   11     -0.10      0.00
   -6  -10   11      0.36      0.00
   -5  -10   11     -0.08      0.00
   -4  -10   11      0.00      0.00
   -3  -10   11      0.16      0.00
   -2  -10   11     -0.10      0.00
    0  -10   11     -0.16      0.00
    1  -10   11      0.17      0.00
    2  -10   11      0.15      0.00
    3  -10   11      0.09      0.00
    4  -10   11      0.26      0.00
    5  -10   11     -0.36      0.00
    6  -10   11     -0.05      0.00
    7  -10   11     -0.01      0.00
    8  -10   11     -0.05      0.00
    9  -10   11     -0.34      0.00
   10  -10   11      0.12      0.00
   11  -10   11     -0.37      0.00
   12  -10   11      0.31      0.00
   13  -10   11     -0.44      0.00
  -12   -9   11     -0.18      0.00
  -11   -9   11     -0.11      0.00
  -10   -9   11      0.15      0.00
   -9   -9   11      0.08      0.00
   -8   -9   11      0.28      0.00
   -6   -9   11      0.25      0.00
   -5   -9   11     -0.09      0.00
   -4   -9   11     -0.22      0.00
   -3   -9   11     -0.11      0.00
   -2   -9   11      0.00      0.00
   -1   -9   11      0.16      0.00
    0   -9   11     -0.05      0.00
    1   -9   11     -0.17      0.00
    2   -9   11     -0.30      0.00
    3   -9   11      0.25      0.00
    4   -9   11     -0.21      0.00
    5   -9   11      0.07      0.00
    6   -9   11      0.03      0.00
    7   -9   11     -0.17      0.00
    8   -9   11     -0.23      0.00
    9   -9   11      0.03      0.00
   10   -9   11     -0.15      0.00
   11   -9   11      0.04      0.00
   12   -9   11      0.21      0.00
   13   -9   11      0.10      0.00
  -13   -8   11      0.44      0.00
  -12   -8   11     -0.07      0.00
  -11   -8   11     -0.44      0.00
  -10   -8   11      0.30      0.00
   -9   -8   11     -0.22      0.00
   -8   -8   11      0.03      0.00
   -7   -8   11     -0.04      0.00
   -6   -8   11      0.07      0.00
   -5   -8   11      0.02      0.00
   -4   -8   11      0.20      0.00
   -3   -8   11     -0.27      0.00
   -2   -8   11      0.30      0.00
   -1   -8   11     -0.22      0.00
    0   -8   11     -0.09      0.00
    1   -8   11     -0.02      0.00
    2   -8   11     -0.02      0.00
    3   -8   11     -0.19      0.00
    4   -8   11      0.29      0.00
    5   -8   11     -0.19      0.00
    6   -8   11     -0.02      0.00
    7   -8   11      0.23      0.00
    8   -8   11      0.12      0.00
    9   -8   11     -0.06      0.00
   10   -8   11     -0.05      0.00
   11   -8   11      0.43      0.00
   12   -8   11     -0.36      0.00
   13   -8   11     -0.09      0.00
  -13   -7   11      0.09      0.00
  -12   -7   11      0.16      0.00
  -11   -7   11     -0.11      0.00
  -10   -7   11      0.05      0.00
   -9   -7   11      0.05      0.00
   -8   -7   11     -0.34      0.00
   -7   -7   11      0.13      0.00
   -6   -7   11     -0.34      0.00
   -5   -7   11      0.26      0.00
   -4   -7   11      0.13      0.00
   -3   -7   11     -0.24      0.00
   -2   -7   11      0.20      0.00
   -1   -7   11      0.06      0.00
    0   -7   11      0.05      0.00
    1   -7   11      0.22      0.00
    2   -7   11     -0.12      0.00
    3   -7   11      0.02      0.00
    4   -7   11      0.20      0.00
    5   -7   11     -0.20      0.00
    6   -7   11     -0.09      0.00
    7   -7   11      0.26      0.00
    8   -7   11      0.01      0.00
    9   -7   11      0.17      0.00
   10   -7   11     -0.26      0.00
   11   -7   11      0.10      0.00
   12   -7   11     -0.21      0.00
   13   -7   11      0.32      0.00
  -14   -6   11     -0.24      0.00
  -13   -6   11      0.48      0.00
  -12   -6   11     -0.08      0.00
  -11   -6   11      0.44      0.00
  -10   -6   11     -0.14      0.00
   -9   -6   11      0.20      0.00
   -8   -6   11      0.43      0.00
   -7   -6   11      0.26      0.00
   -6   -6   11     -0.07      0.00
   -5   -6   11      0.10      0.00
   -4   -6   11     -0.10      0.00
   -3   -6   11     -0.04      0.00
   -2   -6   11     -0.09      0.00
   -1   -6   11     -0.07      0.00
    0   -6   11     -0.15      0.00
    1   -6   11     -0.01      0.00
    2   -6   11     -0.16      0.00
    3   -6   11     -0.23      0.00
    4   -6   11      0.06      0.00
    5   -6   11      0.06      0.00
    6   -6   11     -0.08      0.00
    7   -6   11     -0.24      0.00
    8   -6   11      0.36      0.00
    9   -6   11      0.10      0.00
   10   -6   11     -0.34      0.00
   11   -6   11      0.28      0.00
   12   -6   11     -0.13      0.00
   13   -6   11      0.13      0.00
  -14   -5   11      0.23      0.00
  -13   -5   11     -0.13      0.00
  -12   -5   11     -0.43      0.00
  -11   -5   11      0.13      0.00
  -10   -5   11      0.41      0.00
   -9   -5   11     -0.70      0.00
   -8   -5   11      0.47      0.00
   -7   -5   11     -0.56      0.00
   -6   -5   11      0.24      0.00
   -5   -5   11      0.10      0.00
   -4   -5   11      0.25      0.00
   -3   -5   11      0.36      0.00
   -2   -5   11     -0.23      0.00
    0   -5   11     -0.58      0.00
    1   -5   11      0.38      0.00
    2   -5   11     -0.02      0.00
    3   -5   11     -0.05      0.00
    4   -5   11     -0.10      0.00
    5   -5   11      0.07      0.00
    6   -5   11      0.04      0.00
    7   -5   11     -0.24      0.00
    8   -5   11      0.12      0.00
    9   -5   11     -0.24      0.00
   10   -5   11      0.26      0.00
   11   -5   11     -0.17      0.00
   12   -5   11     -0.08      0.00
   13   -5   11     -0.05      0.00
  -15   -4   11     -0.07      0.00
  -14   -4   11     -0.19      0.00
  -13   -4   11      0.11      0.00
  -12   -4   11      0.08      0.00
  -11   -4   11     -0.45      0.00
  -10   -4   11     -0.07      0.00
   -9   -4   11     -0.10      0.00
   -8   -4   11     -0.19      0.00
   -7   -4   11      0.01      0.00
   -6   -4   11     -0.01      0.00
   -5   -4   11     -0.05      0.00
   -4   -4   11     -0.01      0.00
   -3   -4   11     -0.24      0.00
   -2   -4   11      0.02      0.00
   -1   -4   11      0.00      0.00
    0   -4   11      0.13      0.00
    1   -4   11      0.07      0.00
    2   -4   11      0.12      0.00
    4   -4   11      0.23      0.00
    5   -4   11      0.03      0.00
    6   -4   11     -0.15      0.00
    7   -4   11     -0.10      0.00
    8   -4   11     -0.07      0.00
    9   -4   11     -0.24      0.00
   10   -4   11      0.68      0.00
   11   -4   11     -0.54      0.00
   12   -4   11      0.07      0.00
  -15   -3   11     -0.01      0.00
  -14   -3   11     -0.17      0.00
  -13   -3   11      0.01      0.00
  -12   -3   11      0.05      0.00
  -11   -3   11     -0.19      0.00
  -10   -3   11      0.01      0.00
   -9   -3   11      0.07      0.00
   -8   -3   11     -0.05      0.00
   -7   -3   11      0.36      0.00
   -6   -3   11     -0.70      0.00
   -5   -3   11      0.07      0.00
   -4   -3   11      0.42      0.00
   -3   -3   11     -0.32      0.00
   -2   -3   11     -0.06      0.00
   -1   -3   11      0.22      0.00
    0   -3   11     -0.29      0.00
    1   -3   11      0.38      0.00
    2   -3   11     -0.10      0.00
    3   -3   11      0.26      0.00
    4   -3   11     -0.12      0.00
    5   -3   11     -0.01      0.00
    6   -3   11      0.00      0.00
    7   -3   11      0.14      0.00
    8   -3   11     -0.17      0.00
    9   -3   11     -0.32      0.00
   10   -3   11     -0.16      0.00
   11   -3   11      0.28      0.00
   12   -3   11     -0.04      0.00
  -16   -2   11      0.19      0.00
  -15   -2   11      0.10      0.00
  -14   -2   11      0.14      0.00
  -13   -2   11      0.12      0.00
  -12   -2   11      0.04      0.00
  -11   -2   11      0.25      0.00
  -10   -2   11      0.20      0.00
   -9   -2   11     -0.26      0.00
   -8   -2   11      0.32      0.00
   -7   -2   11     -0.20      0.00
   -6   -2   11      0.16      0.00
   -5   -2   11     -0.39      0.00
   -4   -2   11     -0.04      0.00
   -3   -2   11      0.02      0.00
   -2   -2   11     -0.09      0.00
   -1   -2   11      0.16      0.00
    0   -2   11     -0.31      0.00
    1   -2   11      0.28      0.00
    2   -2   11     -0.12      0.00
    3   -2   11     -0.08      0.00
    4   -2   11      0.09      0.00
    5   -2   11     -0.05      0.00
    8   -2   11     -0.20      0.00
    9   -2   11      0.10      0.00
   10   -2   11     -0.05      0.00
   11   -2   11     -0.08      0.00
   12   -2   11     -0.04      0.00
  -16   -1   11      0.03      0.00
  -15   -1   11     -0.40      0.00
  -14   -1   11     -0.05      0.00
  -13   -1   11     -0.17      0.00
  -12   -1   11      0.19      0.00
  -11   -1   11      0.21      0.00
  -10   -1   11     -0.06      0.00
   -9   -1   11      0.04      0.00
   -8   -1   11      0.13      0.00
   -7   -1   11      0.22      0.00
   -6   -1   11     -0.19      0.00
   -5   -1   11      0.46      0.00
   -4   -1   11     -0.40      0.00
   -3   -1   11      0.34      0.00
   -2   -1   11     -0.28      0.00
   -1   -1   11      0.09      0.00
    0   -1   11     -0.10      0.00
    1   -1   11     -0.32      0.00
    2   -1   11      0.18      0.00
    3   -1   11     -0.11      0.00
    4   -1   11      0.23      0.00
    5   -1   11      0.01      0.00
    6   -1   11     -0.08      0.00
    7   -1   11      0.22      0.00
    8   -1   11      0.03      0.00
    9   -1   11      0.31      0.00
   10   -1   11     -0.11      0.00
   11   -1   11      0.32      0.00
  -16    0   11     -0.17      0.00
  -15    0   11      0.46      0.00
  -14    0   11     -0.09      0.00
  -13    0   11      0.16      0.00
  -12    0   11     -0.07      0.00
  -11    0   11     -0.05      0.00
  -10    0   11     -0.08      0.00
   -9    0   11     -0.04      0.00
   -8    0   11     -0.30      0.00
   -7    0   11      0.18      0.00
   -6    0   11     -0.29      0.00
   -5    0   11      0.18      0.00
   -4    0   11      0.06      0.00
   -3    0   11     -0.27      0.00
   -2    0   11     -0.13      0.00
   -1    0   11      0.15      0.00
    0    0   11     -0.20      0.00
    1    0   11      0.12      0.00
    2    0   11     -0.07      0.00
    3    0   11      0.04      0.00
    4    0   11      0.10      0.00
    5    0   11      0.07      0.00
    6    0   11     -0.17      0.00
    7    0   11      0.21      0.00
    8    0   11     -0.11      0.00
    9    0   11      0.06      0.00
   10    0   11      0.07      0.00
   11    0   11      0.11      0.00
  -16    1   11     -0.11      0.00
  -15    1   11     -0.19      0.00
  -14    1   11      0.23      0.00
  -13    1   11     -0.90      0.00
  -12    1   11      0.22      0.00
  -11    1   11     -0.21      0.00
  -10    1   11     -0.11      0.00
   -9    1   11     -0.09      0.00
   -7    1   11     -0.01      0.00
   -6    1   11      0.06      0.00
   -5    1   11      0.09      0.00
   -4    1   11      0.00      0.00
   -3    1   11      0.16      0.00
   -2    1   11     -0.13      0.00
   -1    1   11      0.10      0.00
    0    1   11     -0.18      0.00
    1    1   11      0.08      0.00
    2    1   11     -0.26      0.00
    3    1   11     -0.02      0.00
    4    1   11     -0.25      0.00
    5    1   11     -0.11      0.00
    6    1   11      0.14      0.00
    7    1   11     -0.03      0.00
    8    1   11      0.03      0.00
    9    1   11      0.16      0.00
   10    1   11     -0.49      0.00
  -16    2   11     -0.27      0.00
  -15    2   11      0.41      0.00
  -14    2   11      0.06      0.00
  -13    2   11     -0.03      0.00
  -12    2   11      0.23      0.00
  -11    2   11     -0.02      0.00
  -10    2   11     -0.16      0.00
   -9    2   11     -0.11      0.00
   -8    2   11      0.06      0.00
   -7    2   11     -0.44      0.00
   -6    2   11     -0.02      0.00
   -5    2   11     -0.14      0.00
   -4    2   11     -0.05      0.00
   -3    2   11      0.00      0.00
   -2    2   11     -0.04      0.00
   -1    2   11      0.32      0.00
    0    2   11      0.04      0.00
    1    2   11      0.14      0.00
    2    2   11     -0.11      0.00
    3    2   11      0.05      0.00
    4    2   11      0.16      0.00
    5    2   11     -0.15      0.00
    6    2   11      0.08      0.00
    7    2   11     -0.07      0.00
    8    2   11     -0.09      0.00
    9    2   11      0.35      0.00
  -16    3   11      0.19      0.00
  -15    3   11      0.05      0.00
  -14    3   11      0.10      0.00
  -13    3   11     -0.04      0.00
  -12    3   11     -0.06      0.00
  -11    3   11      0.52      0.00
  -10    3   11     -0.19      0.00
   -9    3   11      0.31      0.00
   -8    3   11      0.41      0.00
   -7    3   11      0.06      0.00
   -6    3   11     -0.09      0.00
   -5    3   11      0.19      0.00
   -4    3   11      0.17      0.00
   -3    3   11      0.04      0.00
   -2    3   11      0.19      0.00
   -1    3   11     -0.17      0.00
    0    3   11      0.16      0.00
    1    3   11      0.27      0.00
    2    3   11      0.10      0.00
    3    3   11      0.15      0.00
    4    3   11      0.17      0.00
    5    3   11      0.20      0.00
    6    3   11     -0.16      0.00
    7    3   11      0.15      0.00
    8    3   11     -0.34      0.00
  -16    4   11     -0.21      0.00
  -15    4   11     -0.14      0.00
  -14    4   11      0.03      0.00
  -13    4   11     -0.11      0.00
  -12    4   11     -0.06      0.00
  -11    4   11      0.18      0.00
  -10    4   11      0.04      0.00
   -9    4   11     -0.47      0.00
   -8    4   11      0.12      0.00
   -7    4   11      0.10      0.00
   -6    4   11     -0.04      0.00
   -5    4   11      0.21      0.00
   -4    4   11     -0.04      0.00
   -3    4   11     -0.06      0.00
   -2    4   11      0.10      0.00
   -1    4   11      0.11      0.00
    0    4   11     -0.71      0.00
    1    4   11      0.47      0.00
    2    4   11     -0.49      0.00
    3    4   11      0.03      0.00
    4    4   11     -0.25      0.00
    5    4   11     -0.50      0.00
    6    4   11     -0.03      0.00
    7    4   11      0.00      0.00
  -16    5   11      0.39      0.00
  -15    5   11     -0.26      0.00
  -14    5   11      0.36      0.00
  -13    5   11     -0.15      0.00
  -12    5   11     -0.03      0.00
  -11    5   11      0.10      0.00
  -10    5   11     -0.35      0.00
   -9    5   11      0.01      0.00
   -8    5   11      0.06      0.00
   -7    5   11     -0.03      0.00
   -6    5   11     -0.07      0.00
   -5    5   11      0.11      0.00
   -4    5   11     -0.12      0.00
   -3    5   11     -0.06      0.00
   -2    5   11     -0.25      0.00
   -1    5   11      0.29      0.00
    0    5   11     -0.40      0.00
    1    5   11      0.21      0.00
    2    5   11     -0.28      0.00
    3    5   11      0.07      0.00
    4    5   11      0.33      0.00
    5    5   11      0.11      0.00
    6    5   11     -0.01      0.00
  -16    6   11     -0.19      0.00
  -15    6   11      0.23      0.00
  -14    6   11      0.16      0.00
  -13    6   11      0.02      0.00
  -12    6   11     -0.34      0.00
  -11    6   11      0.66      0.00
  -10    6   11     -0.43      0.00
   -9    6   11      0.51      0.00
   -8    6   11     -0.34      0.00
   -7    6   11      0.17      0.00
   -6    6   11     -0.38      0.00
   -5    6   11      0.13      0.00
   -4    6   11     -0.01      0.00
   -3    6   11     -0.10      0.00
   -2    6   11     -0.05      0.00
   -1    6   11      0.19      0.00
    1    6   11      0.04      0.00
    2    6   11      0.11      0.00
    3    6   11     -0.20      0.00
    4    6   11     -0.05      0.00
    5    6   11     -0.06      0.00
  -15    7   11      0.19      0.00
  -14    7   11     -0.54      0.00
  -13    7   11      0.28      0.00
  -12    7   11     -0.20      0.00
  -11    7   11      0.01      0.00
  -10    7   11      0.06      0.00
   -9    7   11     -0.21      0.00
   -8    7   11      0.24      0.00
   -7    7   11     -0.13      0.00
   -6    7   11      0.00      0.00
   -5    7   11     -0.25      0.00
   -4    7   11     -0.08      0.00
   -3    7   11     -0.01      0.00
   -2    7   11      0.00      0.00
   -1    7   11     -0.16      0.00
    0    7   11      0.11      0.00
    1    7   11     -0.21      0.00
    2    7   11      0.03      0.00
    3    7   11     -0.15      0.00
    4    7   11      0.11      0.00
  -14    8   11      0.22      0.00
  -13    8   11     -0.23      0.00
  -12    8   11      0.19      0.00
  -11    8   11      0.09      0.00
  -10    8   11      0.12      0.00
   -9    8   11     -0.40      0.00
   -8    8   11      0.24      0.00
   -7    8   11     -0.31      0.00
   -6    8   11      0.07      0.00
   -5    8   11      0.22      0.00
   -4    8   11      0.10      0.00
   -3    8   11     -0.11      0.00
   -2    8   11      0.22      0.00
   -1    8   11     -0.37      0.00
    0    8   11      0.11      0.00
    1    8   11      0.13      0.00
    2    8   11      0.02      0.00
    3    8   11      0.44      0.00
  -13    9   11     -0.02      0.00
  -12    9   11     -0.23      0.00
  -11    9   11     -0.08      0.00
  -10    9   11      0.18      0.00
   -9    9   11     -0.28      0.00
   -8    9   11      0.87      0.00
   -7    9   11     -0.02      0.00
   -6    9   11      0.18      0.00
   -5    9   11      0.09      0.00
   -4    9   11     -0.09      0.00
   -3    9   11      0.12      0.00
   -2    9   11      0.06      0.00
   -1    9   11      0.50      0.00
    1    9   11      0.10      0.00
  -12   10   11     -0.05      0.00
  -11   10   11     -0.13      0.00
  -10   10   11      0.49      0.00
   -9   10   11     -0.81      0.00
   -8   10   11     -0.17      0.00
   -7   10   11     -0.16      0.00
   -6   10   11     -0.06      0.00
   -5   10   11      0.04      0.00
   -4   10   11     -0.08      0.00
   -3   10   11      0.34      0.00
   -2   10   11     -0.05      0.00
   -9   11   11      0.15      0.00
   -8   11   11      0.19      0.00
   -7   11   11     -0.31      0.00
   -6   11   11      0.53      0.00
   -5   11   11     -0.09      0.00
    1  -17   12     -0.07      0.00
    2  -17   12      0.18      0.00
    3  -17   12     -0.07      0.00
    4  -17   12      0.32      0.00
    5  -17   12     -0.09      0.00
    6  -17   12      0.17      0.00
    7  -17   12      0.11      0.00
   -3  -16   12      0.09      0.00
   -2  -16   12     -1.45      0.00
   -1  -16   12      0.71      0.00
    1  -16   12     -0.12      0.00
    2  -16   12     -0.03      0.00
    3  -16   12     -0.50      0.00
    4  -16   12     -0.06      0.00
    5  -16   12     -0.11      0.00
    6  -16   12     -0.45      0.00
    7  -16   12      0.05      0.00
    8  -16   12     -0.22      0.00
    9  -16   12     -0.08      0.00
   -5  -15   12     -0.41      0.00
   -4  -15   12     -0.33      0.00
   -3  -15   12      0.45      0.00
   -2  -15   12     -0.06      0.00
   -1  -15   12      0.29      0.00
    0  -15   12     -0.31      0.00
    1  -15   12      0.16      0.00
    2  -15   12     -0.06      0.00
    3  -15   12      0.11      0.00
    4  -15   12      0.07      0.00
    5  -15   12      0.17      0.00
    6  -15   12     -0.09      0.00
    7  -15   12     -0.03      0.00
    8  -15   12      0.21      0.00
    9  -15   12     -0.06      0.00
   10  -15   12      0.21      0.00
   -6  -14   12     -0.09      0.00
   -5  -14   12      0.25      0.00
   -4  -14   12      0.09      0.00
   -3  -14   12     -0.03      0.00
   -2  -14   12      0.17      0.00
   -1  -14   12     -0.12      0.00
    1  -14   12     -0.07      0.00
    2  -14   12      0.28      0.00
    3  -14   12     -0.15      0.00
    4  -14   12      0.26      0.00
    5  -14   12     -0.38      0.00
    6  -14   12      0.27      0.00
    7  -14   12     -0.09      0.00
    8  -14   12      0.02      0.00
    9  -14   12     -0.54      0.00
   10  -14   12      0.27      0.00
   11  -14   12     -0.21      0.00
   -8  -13   12      0.05      0.00
   -7  -13   12      0.11      0.00
   -6  -13   12      0.31      0.00
   -5  -13   12     -0.02      0.00
   -4  -13   12      0.63      0.00
   -3  -13   12     -0.34      0.00
   -2  -13   12      0.18      0.00
   -1  -13   12      0.06      0.00
    0  -13   12     -0.13      0.00
    1  -13   12      0.41      0.00
    2  -13   12      0.02      0.00
    3  -13   12     -0.20      0.00
    4  -13   12      0.18      0.00
    5  -13   12      0.09      0.00
    6  -13   12     -0.08      0.00
    7  -13   12     -0.33      0.00
    8  -13   12      0.27      0.00
    9  -13   12      0.02      0.00
   10  -13   12      0.01      0.00
   11  -13   12     -0.25      0.00
   12  -13   12     -0.06      0.00
   -9  -12   12     -0.14      0.00
   -8  -12   12      0.36      0.00
   -7  -12   12      0.01      0.00
   -6  -12   12     -0.39      0.00
   -5  -12   12     -0.03      0.00
   -4  -12   12     -0.66      0.00
   -3  -12   12      0.20      0.00
   -2  -12   12     -0.07      0.00
   -1  -12   12     -0.11      0.00
    0  -12   12     -0.11      0.00
    1  -12   12     -0.13      0.00
    2  -12   12      0.09      0.00
    3  -12   12     -0.15      0.00
    4  -12   12      0.23      0.00
    5  -12   12     -0.24      0.00
    6  -12   12      0.33      0.00
    7  -12   12      0.21      0.00
    8  -12   12      0.32      0.00
    9  -12   12     -0.05      0.00
   10  -12   12      0.12      0.00
   11  -12   12      0.10      0.00
   12  -12   12      0.27      0.00
  -10  -11   12      0.03      0.00
   -9  -11   12     -0.32      0.00
   -8  -11   12     -0.05      0.00
   -7  -11   12     -0.25      0.00
   -6  -11   12      0.28      0.00
   -5  -11   12      0.20      0.00
   -4  -11   12     -0.27      0.00
   -3  -11   12      0.42      0.00
   -2  -11   12     -0.12      0.00
   -1  -11   12      0.03      0.00
    0  -11   12     -0.18      0.00
    1  -11   12      0.09      0.00
    2  -11   12     -0.05      0.00
    3  -11   12     -0.01      0.00
    4  -11   12      0.20      0.00
    5  -11   12      0.00      0.00
    6  -11   12     -0.20      0.00
    7  -11   12     -0.23      0.00
    8  -11   12      0.17      0.00
    9  -11   12     -0.08      0.00
   10  -11   12      0.01      0.00
   11  -11   12     -0.09      0.00
   12  -11   12      0.20      0.00
  -11  -10   12     -0.21      0.00
  -10  -10   12      0.13      0.00
   -9  -10   12      0.04      0.00
   -8  -10   12      0.25      0.00
   -7  -10   12     -0.22      0.00
   -6  -10   12      0.00      0.00
   -5  -10   12      0.21      0.00
   -4  -10   12     -0.46      0.00
   -3  -10   12     -0.11      0.00
   -2  -10   12     -0.14      0.00
   -1  -10   12     -0.08      0.00
    0  -10   12      0.09      0.00
    1  -10   12     -0.07      0.00
    2  -10   12     -0.16      0.00
    3  -10   12     -0.04      0.00
    4  -10   12     -0.29      0.00
    5  -10   12      0.45      0.00
    6  -10   12     -0.07      0.00
    7  -10   12     -0.39      0.00
    8  -10   12      0.16      0.00
    9  -10   12     -0.13      0.00
   10  -10   12     -0.19      0.00
   11  -10   12     -0.23      0.00
   12  -10   12     -0.04      0.00
   13  -10   12      0.24      0.00
  -12   -9   12     -0.34      0.00
  -11   -9   12     -0.09      0.00
  -10   -9   12     -0.15      0.00
   -9   -9   12     -0.01      0.00
   -8   -9   12     -0.02      0.00
   -7   -9   12     -0.11      0.00
   -6   -9   12      0.20      0.00
   -5   -9   12      0.06      0.00
   -4   -9   12      0.14      0.00
   -2   -9   12      0.00      0.00
   -1   -9   12      0.12      0.00
    0   -9   12     -0.40      0.00
    1   -9   12      0.37      0.00
    2   -9   12     -0.09      0.00
    3   -9   12     -0.09      0.00
    4   -9   12      0.01      0.00
    5   -9   12      0.05      0.00
    6   -9   12     -0.01      0.00
    7   -9   12     -0.06      0.00
    8   -9   12      0.17      0.00
    9   -9   12     -0.34      0.00
   10   -9   12      0.46      0.00
   11   -9   12     -0.06      0.00
   12   -9   12      0.03      0.00
   13   -9   12      0.14      0.00
  -12   -8   12     -0.02      0.00
  -11   -8   12      0.26      0.00
  -10   -8   12     -0.08      0.00
   -9   -8   12     -0.10      0.00
   -8   -8   12     -0.13      0.00
   -7   -8   12     -0.09      0.00
   -6   -8   12     -0.26      0.00
   -5   -8   12     -0.10      0.00
   -4   -8   12      0.23      0.00
   -3   -8   12      0.00      0.00
   -2   -8   12     -0.02      0.00
   -1   -8   12      0.15      0.00
    0   -8   12     -0.31      0.00
    1   -8   12      0.25      0.00
    2   -8   12     -0.19      0.00
    3   -8   12      0.00      0.00
    4   -8   12     -0.08      0.00
    5   -8   12      0.02      0.00
    6   -8   12     -0.04      0.00
    7   -8   12      0.24      0.00
    8   -8   12     -0.03      0.00
    9   -8   12      0.26      0.00
   10   -8   12      0.19      0.00
   11   -8   12     -0.26      0.00
   12   -8   12     -0.22      0.00
   13   -8   12      0.09      0.00
  -13   -7   12      0.18      0.00
  -12   -7   12      0.11      0.00
  -11   -7   12     -0.04      0.00
   -9   -7   12     -0.16      0.00
   -8   -7   12      0.41      0.00
   -7   -7   12      0.34      0.00
   -6   -7   12      0.10      0.00
   -5   -7   12      0.11      0.00
   -4   -7   12     -0.13      0.00
   -3   -7   12     -0.17      0.00
   -2   -7   12      0.12      0.00
   -1   -7   12      0.04      0.00
    0   -7   12     -0.10      0.00
    1   -7   12      0.22      0.00
    2   -7   12      0.06      0.00
    3   -7   12     -0.04      0.00
    4   -7   12     -0.03      0.00
    5   -7   12      0.40      0.00
    6   -7   12     -0.15      0.00
    7   -7   12     -0.15      0.00
    8   -7   12     -0.01      0.00
    9   -7   12      0.08      0.00
   10   -7   12      0.02      0.00
   11   -7   12      0.20      0.00
   12   -7   12     -0.25      0.00
  -14   -6   12      0.35      0.00
  -13   -6   12     -0.18      0.00
  -12   -6   12      0.09      0.00
  -11   -6   12     -0.24      0.00
  -10   -6   12      0.64      0.00
   -9   -6   12     -0.27      0.00
   -8   -6   12      0.11      0.00
   -7   -6   12     -0.26      0.00
   -6   -6   12      0.00      0.00
   -5   -6   12     -0.04      0.00
   -4   -6   12      0.12      0.00
   -3   -6   12      0.30      0.00
   -2   -6   12     -0.02      0.00
   -1   -6   12      0.38      0.00
    0   -6   12     -0.28      0.00
    1   -6   12      0.24      0.00
    2   -6   12     -0.21      0.00
    3   -6   12      0.38      0.00
    4   -6   12     -0.89      0.00
    5   -6   12      0.00      0.00
    6   -6   12     -0.08      0.00
    7   -6   12      0.10      0.00
    8   -6   12     -0.26      0.00
    9   -6   12     -0.24      0.00
   10   -6   12     -0.11      0.00
   11   -6   12      0.01      0.00
   12   -6   12      0.11      0.00
  -14   -5   12     -0.56      0.00
  -13   -5   12      0.16      0.00
  -12   -5   12      0.11      0.00
  -11   -5   12     -0.60      0.00
  -10   -5   12     -0.19      0.00
   -9   -5   12     -0.06      0.00
   -8   -5   12     -0.24      0.00
   -7   -5   12      0.35      0.00
   -6   -5   12     -0.15      0.00
   -5   -5   12      0.47      0.00
   -4   -5   12     -0.21      0.00
   -3   -5   12      0.08      0.00
   -2   -5   12     -0.08      0.00
   -1   -5   12     -0.08      0.00
    0   -5   12      0.12      0.00
    1   -5   12      0.00      0.00
    2   -5   12     -0.22      0.00
    3   -5   12      0.13      0.00
    4   -5   12      0.14      0.00
    5   -5   12      0.17      0.00
    6   -5   12     -0.06      0.00
    7   -5   12      0.11      0.00
    8   -5   12      0.04      0.00
    9   -5   12     -0.16      0.00
   10   -5   12      0.35      0.00
   11   -5   12     -0.10      0.00
   12   -5   12      0.34      0.00
  -15   -4   12      0.36      0.00
  -14   -4   12     -0.40      0.00
  -13   -4   12      0.07      0.00
  -12   -4   12     -0.08      0.00
  -11   -4   12      0.09      0.00
  -10   -4   12      0.08      0.00
   -9   -4   12     -0.17      0.00
   -8   -4   12     -0.25      0.00
   -7   -4   12      0.62      0.00
   -6   -4   12     -1.08      0.00
   -5   -4   12      0.06      0.00
   -4   -4   12     -0.11      0.00
   -3   -4   12      0.00      0.00
   -2   -4   12      0.00      0.00
   -1   -4   12      0.24      0.00
    0   -4   12     -0.20      0.00
    1   -4   12      0.32      0.00
    2   -4   12      0.10      0.00
    3   -4   12      0.35      0.00
    4   -4   12      0.11      0.00
    5   -4   12     -0.10      0.00
    6   -4   12     -0.09      0.00
    7   -4   12      0.00      0.00
    8   -4   12      0.25      0.00
    9   -4   12     -0.27      0.00
   10   -4   12     -0.25      0.00
   11   -4   12      0.07      0.00
   12   -4   12     -0.03      0.00
  -15   -3   12      0.03      0.00
  -14   -3   12      0.25      0.00
  -13   -3   12      0.04      0.00
  -12   -3   12     -0.14      0.00
  -11   -3   12      0.05      0.00
  -10   -3   12      0.45      0.00
   -9   -3   12     -0.43      0.00
   -8   -3   12      0.02      0.00
   -7   -3   12     -0.06      0.00
   -6   -3   12      0.35      0.00
   -5   -3   12     -0.04      0.00
   -4   -3   12     -0.25      0.00
   -3   -3   12     -0.02      0.00
   -2   -3   12     -0.11      0.00
   -1   -3   12      0.00      0.00
    0   -3   12     -0.23      0.00
    1   -3   12      0.12      0.00
    2   -3   12      0.03      0.00
    3   -3   12     -0.27      0.00
    4   -3   12      0.19      0.00
    5   -3   12      0.13      0.00
    6   -3   12     -0.13      0.00
    7   -3   12      0.07      0.00
    8   -3   12      0.02      0.00
    9   -3   12      0.24      0.00
   10   -3   12     -0.15      0.00
   11   -3   12     -0.14      0.00
  -15   -2   12     -0.64      0.00
  -14   -2   12      0.39      0.00
  -13   -2   12     -0.16      0.00
  -12   -2   12      0.18      0.00
  -11   -2   12     -0.21      0.00
  -10   -2   12      0.49      0.00
   -9   -2   12     -0.19      0.00
   -8   -2   12      0.43      0.00
   -7   -2   12     -0.05      0.00
   -6   -2   12     -0.06      0.00
   -5   -2   12      0.27      0.00
   -4   -2   12     -0.27      0.00
   -3   -2   12      0.22      0.00
   -2   -2   12     -0.29      0.00
   -1   -2   12      0.06      0.00
    0   -2   12      0.07      0.00
    1   -2   12     -0.30      0.00
    2   -2   12     -0.04      0.00
    3   -2   12     -0.07      0.00
    4   -2   12     -0.12      0.00
    5   -2   12      0.22      0.00
    6   -2   12      0.00      0.00
    7   -2   12     -0.13      0.00
    8   -2   12      0.04      0.00
    9   -2   12      0.28      0.00
   10   -2   12     -0.14      0.00
   11   -2   12      0.28      0.00
  -16   -1   12      0.11      0.00
  -15   -1   12     -0.19      0.00
  -14   -1   12      0.15      0.00
  -13   -1   12     -0.06      0.00
  -12   -1   12     -0.25      0.00
  -11   -1   12      0.14      0.00
  -10   -1   12     -0.11      0.00
   -9   -1   12     -0.03      0.00
   -8   -1   12     -0.27      0.00
   -7   -1   12     -0.13      0.00
   -6   -1   12     -0.09      0.00
   -5   -1   12      0.04      0.00
   -4   -1   12      0.00      0.00
   -3   -1   12      0.02      0.00
   -2   -1   12     -0.02      0.00
   -1   -1   12     -0.03      0.00
    0   -1   12     -0.06      0.00
    1   -1   12      0.07      0.00
    2   -1   12      0.06      0.00
    3   -1   12      0.05      0.00
    4   -1   12     -0.02      0.00
    5   -1   12      0.07      0.00
    7   -1   12     -0.02      0.00
    8   -1   12     -0.09      0.00
    9   -1   12      0.07      0.00
   10   -1   12      0.20      0.00
  -16    0   12     -0.26      0.00
  -15    0   12     -0.03      0.00
  -14    0   12      0.24      0.00
  -13    0   12     -0.11      0.00
  -12    0   12     -0.37      0.00
  -11    0   12      0.46      0.00
  -10    0   12     -0.55      0.00
   -9    0   12      0.25      0.00
   -8    0   12      0.38      0.00
   -7    0   12     -0.09      0.00
   -6    0   12      0.28      0.00
   -5    0   12      0.14      0.00
   -4    0   12      0.01      0.00
   -3    0   12      0.15      0.00
   -2    0   12      0.02      0.00
   -1    0   12     -0.07      0.00
    0    0   12     -0.09      0.00
    1    0   12     -0.06      0.00
    2    0   12      0.01      0.00
    3    0   12     -0.20      0.00
    4    0   12     -0.11      0.00
    5    0   12     -0.47      0.00
    6    0   12      0.24      0.00
    7    0   12     -0.25      0.00
    8    0   12      0.02      0.00
    9    0   12      0.04      0.00
   10    0   12     -0.38      0.00
  -16    1   12     -0.43      0.00
  -15    1   12      0.32      0.00
  -14    1   12     -0.20      0.00
  -13    1   12      0.54      0.00
  -12    1   12     -0.38      0.00
  -11    1   12      0.15      0.00
  -10    1   12      0.00      0.00
   -9    1   12     -0.35      0.00
   -8    1   12      0.02      0.00
   -7    1   12     -0.31      0.00
   -6    1   12      0.02      0.00
   -5    1   12     -0.28      0.00
   -4    1   12     -0.02      0.00
   -3    1   12     -0.06      0.00
   -2    1   12     -0.06      0.00
   -1    1   12      0.21      0.00
    0    1   12     -0.04      0.00
    1    1   12      0.05      0.00
    2    1   12     -0.11      0.00
    3    1   12      0.02      0.00
    4    1   12      0.03      0.00
    5    1   12      0.00      0.00
    6    1   12      0.13      0.00
    7    1   12     -0.07      0.00
    8    1   12      0.04      0.00
    9    1   12      0.14      0.00
  -16    2   12      0.39      0.00
  -15    2   12     -0.29      0.00
  -14    2   12      0.10      0.00
  -13    2   12      0.17      0.00
  -12    2   12      0.10      0.00
  -11    2   12     -0.14      0.00
  -10    2   12      0.46      0.00
   -9    2   12     -0.07      0.00
   -8    2   12      0.18      0.00
   -7    2   12      0.18      0.00
   -6    2   12      0.10      0.00
   -5    2   12     -0.08      0.00
   -4    2   12      0.12      0.00
   -3    2   12      0.14      0.00
   -2    2   12     -0.04      0.00
   -1    2   12      0.29      0.00
    0    2   12     -0.12      0.00
    1    2   12      0.11      0.00
    2    2   12      0.39      0.00
    3    2   12      0.06      0.00
    4    2   12      0.12      0.00
    5    2   12      0.05      0.00
    6    2   12      0.10      0.00
    7    2   12     -0.11      0.00
    8    2   12      0.19      0.00
  -16    3   12      0.47      0.00
  -15    3   12     -0.30      0.00
  -14    3   12     -0.11      0.00
  -13    3   12      0.04      0.00
  -12    3   12     -0.04      0.00
  -11    3   12     -0.25      0.00
  -10    3   12      0.51      0.00
   -9    3   12     -0.31      0.00
   -8    3   12     -0.04      0.00
   -7    3   12     -0.05      0.00
   -6    3   12     -0.04      0.00
   -5    3   12      0.05      0.00
   -4    3   12     -0.05      0.00
   -3    3   12     -0.17      0.00
   -2    3   12     -0.04      0.00
   -1    3   12      0.27      0.00
    0    3   12     -0.41      0.00
    1    3   12      0.26      0.00
    2    3   12     -0.14      0.00
    3    3   12      0.03      0.00
    4    3   12      0.11      0.00
    5    3   12     -0.54      0.00
    6    3   12      0.24      0.00
    7    3   12     -0.22      0.00
  -16    4   12      0.50      0.00
  -15    4   12     -0.24      0.00
  -14    4   12     -0.17      0.00
  -13    4   12      0.32      0.00
  -12    4   12     -0.21      0.00
  -11    4   12     -0.12      0.00
  -10    4   12     -0.07      0.00
   -9    4   12     -0.02      0.00
   -8    4   12      0.14      0.00
   -7    4   12     -0.02      0.00
   -6    4   12      0.33      0.00
   -5    4   12      0.01      0.00
   -4    4   12      0.39      0.00
   -3    4   12     -0.31      0.00
   -2    4   12     -0.07      0.00
   -1    4   12      0.02      0.00
    0    4   12     -0.19      0.00
    1    4   12     -0.01      0.00
    2    4   12     -0.34      0.00
    3    4   12     -0.14      0.00
    4    4   12      0.32      0.00
    5    4   12     -0.03      0.00
    6    4   12      0.23      0.00
  -15    5   12      0.06      0.00
  -14    5   12      0.27      0.00
  -13    5   12     -0.03      0.00
  -12    5   12      0.00      0.00
  -11    5   12      0.08      0.00
  -10    5   12     -0.03      0.00
   -9    5   12      0.02      0.00
   -8    5   12     -0.07      0.00
   -7    5   12     -0.16      0.00
   -6    5   12     -0.36      0.00
   -5    5   12     -0.07      0.00
   -4    5   12      0.00      0.00
   -3    5   12     -0.04      0.00
   -2    5   12      0.26      0.00
   -1    5   12      0.03      0.00
    0    5   12      0.17      0.00
    1    5   12     -0.08      0.00
    2    5   12      0.39      0.00
    3    5   12     -0.24      0.00
    4    5   12      0.12      0.00
    5    5   12     -0.55      0.00
  -15    6   12     -0.10      0.00
  -14    6   12     -0.18      0.00
  -13    6   12      0.08      0.00
  -12    6   12      0.03      0.00
  -11    6   12     -0.25      0.00
  -10    6   12      0.24      0.00
   -9    6   12     -0.42      0.00
   -8    6   12      0.26      0.00
   -7    6   12     -0.03      0.00
   -6    6   12      0.05      0.00
   -5    6   12      0.06      0.00
   -4    6   12     -0.04      0.00
   -3    6   12      0.03      0.00
   -2    6   12     -0.01      0.00
   -1    6   12     -0.44      0.00
    0    6   12      0.24      0.00
    1    6   12     -0.32      0.00
    2    6   12     -0.09      0.00
    3    6   12     -0.09      0.00
    4    6   12      0.03      0.00
  -14    7   12      0.09      0.00
  -13    7   12     -0.18      0.00
  -12    7   12      0.18      0.00
  -11    7   12      0.13      0.00
  -10    7   12      0.08      0.00
   -9    7   12      0.09      0.00
   -8    7   12      0.26      0.00
   -7    7   12     -0.25      0.00
   -6    7   12      0.07      0.00
   -5    7   12      0.19      0.00
   -4    7   12     -0.16      0.00
   -3    7   12     -0.13      0.00
   -2    7   12      0.29      0.00
   -1    7   12     -0.09      0.00
    0    7   12      0.10      0.00
    1    7   12      0.26      0.00
    2    7   12     -0.23      0.00
    3    7   12      0.59      0.00
  -13    8   12     -0.07      0.00
  -12    8   12     -0.17      0.00
  -11    8   12      0.13      0.00
  -10    8   12     -0.06      0.00
   -9    8   12     -0.34      0.00
   -8    8   12      0.64      0.00
   -7    8   12     -0.38      0.00
   -6    8   12      0.07      0.00
   -5    8   12      0.05      0.00
   -4    8   12     -0.37      0.00
   -3    8   12      0.17      0.00
   -2    8   12     -0.21      0.00
    0    8   12      0.28      0.00
    1    8   12      0.07      0.00
  -12    9   12     -0.12      0.00
  -11    9   12      0.03      0.00
  -10    9   12      0.02      0.00
   -9    9   12     -0.38      0.00
   -8    9   12      0.03      0.00
   -7    9   12     -0.33      0.00
   -6    9   12      0.05      0.00
   -5    9   12     -0.03      0.00
   -4    9   12      0.05      0.00
   -3    9   12      0.39      0.00
   -2    9   12     -0.17      0.00
  -10   10   12     -0.12      0.00
   -9   10   12      0.00      0.00
   -8   10   12      0.47      0.00
   -7   10   12     -0.51      0.00
   -6   10   12      0.76      0.00
   -5   10   12     -0.31      0.00
   -4   10   12      0.35      0.00
    1  -17   13     -0.06      0.00
    2  -17   13      0.15      0.00
    3  -17   13     -0.29      0.00
    4  -17   13      0.23      0.00
    5  -17   13     -0.40      0.00
    6  -17   13     -0.10      0.00
   -2  -16   13      0.06      0.00
   -1  -16   13      0.30      0.00
    1  -16   13      0.15      0.00
    2  -16   13     -0.16      0.00
    3  -16   13      0.13      0.00
    4  -16   13     -0.39      0.00
    5  -16   13      0.39      0.00
    6  -16   13      0.10      0.00
    7  -16   13      0.05      0.00
    8  -16   13     -0.11      0.00
   -4  -15   13      0.03      0.00
   -3  -15   13     -0.21      0.00
   -2  -15   13      0.07      0.00
   -1  -15   13     -0.29      0.00
    0  -15   13      0.34      0.00
    1  -15   13     -0.26      0.00
    2  -15   13     -0.02      0.00
    3  -15   13      0.20      0.00
    4  -15   13     -0.02      0.00
    5  -15   13     -0.53      0.00
    6  -15   13      0.16      0.00
    7  -15   13     -0.14      0.00
    8  -15   13     -0.18      0.00
    9  -15   13     -0.41      0.00
   -6  -14   13      0.40      0.00
   -5  -14   13     -0.17      0.00
   -4  -14   13      0.66      0.00
   -3  -14   13     -0.31      0.00
   -2  -14   13      0.21      0.00
   -1  -14   13      0.19      0.00
    1  -14   13      0.25      0.00
    2  -14   13      0.20      0.00
    3  -14   13     -0.21      0.00
    4  -14   13      0.14      0.00
    5  -14   13      0.22      0.00
    6  -14   13     -0.14      0.00
    7  -14   13      0.00      0.00
    8  -14   13      0.18      0.00
    9  -14   13      0.05      0.00
   10  -14   13      0.10      0.00
   -7  -13   13     -0.34      0.00
   -6  -13   13      0.17      0.00
   -5  -13   13     -0.09      0.00
   -4  -13   13     -0.40      0.00
   -3  -13   13      0.29      0.00
   -2  -13   13     -0.39      0.00
   -1  -13   13      0.24      0.00
    0  -13   13      0.16      0.00
    1  -13   13     -0.38      0.00
    2  -13   13      0.33      0.00
    3  -13   13     -0.04      0.00
    4  -13   13      0.05      0.00
    5  -13   13     -0.03      0.00
    6  -13   13     -0.05      0.00
    7  -13   13      0.32      0.00
    8  -13   13     -0.36      0.00
    9  -13   13     -0.25      0.00
   10  -13   13      0.30      0.00
   11  -13   13     -0.30      0.00
   -9  -12   13     -0.21      0.00
   -8  -12   13      0.02      0.00
   -7  -12   13     -0.23      0.00
   -6  -12   13      0.19      0.00
   -5  -12   13      0.16      0.00
   -4  -12   13     -0.09      0.00
   -3  -12   13      0.12      0.00
   -2  -12   13     -0.12      0.00
   -1  -12   13      0.24      0.00
    0  -12   13     -0.23      0.00
    1  -12   13      0.10      0.00
    2  -12   13     -0.11      0.00
    3  -12   13     -0.01      0.00
    4  -12   13     -0.03      0.00
    5  -12   13      0.22      0.00
    6  -12   13     -0.02      0.00
    7  -12   13      0.06      0.00
    8  -12   13      0.16      0.00
    9  -12   13      0.13      0.00
   10  -12   13      0.32      0.00
   11  -12   13     -0.04      0.00
  -10  -11   13     -0.16      0.00
   -9  -11   13      0.18      0.00
   -8  -11   13      0.06      0.00
   -7  -11   13     -0.10      0.00
   -6  -11   13     -0.10      0.00
   -5  -11   13      0.00      0.00
   -4  -11   13      0.01      0.00
   -3  -11   13     -0.17      0.00
   -2  -11   13     -0.09      0.00
   -1  -11   13     -0.14      0.00
    0  -11   13      0.09      0.00
    1  -11   13      0.02      0.00
    2  -11   13     -0.04      0.00
    3  -11   13     -0.01      0.00
    4  -11   13     -0.15      0.00
    5  -11   13     -0.13      0.00
    6  -11   13      0.13      0.00
    7  -11   13     -0.15      0.00
    8  -11   13     -0.20      0.00
    9  -11   13      0.02      0.00
   10  -11   13     -0.22      0.00
   11  -11   13     -0.07      0.00
   12  -11   13     -0.19      0.00
  -11  -10   13     -0.16      0.00
  -10  -10   13     -0.02      0.00
   -9  -10   13     -0.21      0.00
   -8  -10   13      0.03      0.00
   -7  -10   13     -0.12      0.00
   -6  -10   13      0.12      0.00
   -5  -10   13     -0.10      0.00
   -4  -10   13      0.13      0.00
   -3  -10   13      0.24      0.00
   -2  -10   13      0.02      0.00
   -1  -10   13      0.22      0.00
    0  -10   13     -0.28      0.00
    1  -10   13      0.07      0.00
    2  -10   13     -0.06      0.00
    3  -10   13      0.24      0.00
    4  -10   13     -0.17      0.00
    5  -10   13      0.02      0.00
    6  -10   13      0.01      0.00
    8  -10   13     -0.26      0.00
    9  -10   13     -0.08      0.00
   10  -10   13      0.24      0.00
   11  -10   13      0.13      0.00
   12  -10   13      0.16      0.00
  -11   -9   13     -0.15      0.00
  -10   -9   13      0.28      0.00
   -9   -9   13     -0.27      0.00
   -8   -9   13     -0.03      0.00
   -7   -9   13      0.06      0.00
   -6   -9   13     -0.20      0.00
   -5   -9   13     -0.06      0.00
   -4   -9   13      0.14      0.00
   -3   -9   13     -0.11      0.00
   -2   -9   13      0.01      0.00
   -1   -9   13     -0.16      0.00
    0   -9   13      0.03      0.00
    1   -9   13     -0.08      0.00
    2   -9   13     -0.22      0.00
    3   -9   13      0.18      0.00
    4   -9   13     -0.13      0.00
    5   -9   13      0.03      0.00
    6   -9   13     -0.23      0.00
    7   -9   13      0.43      0.00
    8   -9   13     -0.20      0.00
    9   -9   13      0.19      0.00
   10   -9   13     -0.14      0.00
   11   -9   13     -0.08      0.00
   12   -9   13     -0.04      0.00
  -12   -8   13      0.18      0.00
  -11   -8   13     -0.20      0.00
  -10   -8   13      0.34      0.00
   -9   -8   13     -0.10      0.00
   -8   -8   13      0.01      0.00
   -7   -8   13      0.22      0.00
   -6   -8   13      0.13      0.00
   -5   -8   13      0.17      0.00
   -4   -8   13     -0.29      0.00
   -3   -8   13     -0.07      0.00
   -2   -8   13      0.15      0.00
   -1   -8   13      0.21      0.00
    0   -8   13      0.11      0.00
    1   -8   13      0.02      0.00
    2   -8   13      0.17      0.00
    3   -8   13     -0.22      0.00
    4   -8   13      0.36      0.00
    5   -8   13     -0.01      0.00
    6   -8   13      0.09      0.00
    7   -8   13     -0.32      0.00
    8   -8   13      0.34      0.00
    9   -8   13     -0.12      0.00
   10   -8   13      0.14      0.00
   11   -8   13      0.32      0.00
   12   -8   13     -0.17      0.00
  -13   -7   13      0.10      0.00
  -12   -7   13      0.18      0.00
  -11   -7   13     -0.04      0.00
   -9   -7   13      0.26      0.00
   -8   -7   13      0.23      0.00
   -7   -7   13     -0.22      0.00
   -6   -7   13     -0.04      0.00
   -5   -7   13     -0.13      0.00
   -4   -7   13      0.03      0.00
   -3   -7   13      0.29      0.00
   -2   -7   13     -0.24      0.00
   -1   -7   13     -0.05      0.00
    0   -7   13      0.08      0.00
    1   -7   13     -0.16      0.00
    2   -7   13      0.26      0.00
    3   -7   13      0.20      0.00
    4   -7   13     -0.42      0.00
    5   -7   13     -0.40      0.00
    6   -7   13      0.01      0.00
    7   -7   13     -0.13      0.00
    8   -7   13      0.11      0.00
    9   -7   13     -0.20      0.00
   10   -7   13     -0.37      0.00
   11   -7   13     -0.12      0.00
   12   -7   13      0.09      0.00
  -13   -6   13     -0.22      0.00
  -12   -6   13      0.19      0.00
  -11   -6   13     -0.24      0.00
  -10   -6   13     -0.31      0.00
   -9   -6   13     -0.25      0.00
   -8   -6   13      0.05      0.00
   -7   -6   13     -0.08      0.00
   -6   -6   13      0.32      0.00
   -5   -6   13      0.24      0.00
   -4   -6   13     -0.01      0.00
   -3   -6   13     -0.07      0.00
   -2   -6   13     -0.02      0.00
   -1   -6   13      0.10      0.00
    0   -6   13      0.13      0.00
    1   -6   13      0.04      0.00
    2   -6   13     -0.33      0.00
    3   -6   13     -0.24      0.00
    4   -6   13      0.38      0.00
    5   -6   13      0.21      0.00
    6   -6   13     -0.18      0.00
    7   -6   13      0.10      0.00
    8   -6   13     -0.06      0.00
    9   -6   13      0.08      0.00
   10   -6   13      0.21      0.00
   11   -6   13     -0.18      0.00
   12   -6   13      0.22      0.00
  -14   -5   13     -0.22      0.00
  -13   -5   13      0.00      0.00
  -12   -5   13     -0.58      0.00
  -11   -5   13      0.34      0.00
  -10   -5   13     -0.15      0.00
   -9   -5   13     -0.04      0.00
   -8   -5   13     -0.28      0.00
   -7   -5   13      0.43      0.00
   -6   -5   13     -0.69      0.00
   -5   -5   13     -0.14      0.00
   -4   -5   13     -0.02      0.00
   -3   -5   13     -0.06      0.00
   -2   -5   13      0.14      0.00
   -1   -5   13      0.12      0.00
    0   -5   13     -0.18      0.00
    1   -5   13      0.06      0.00
    2   -5   13      0.19      0.00
    3   -5   13      0.10      0.00
    4   -5   13     -0.02      0.00
    5   -5   13      0.26      0.00
    6   -5   13     -0.15      0.00
    7   -5   13      0.06      0.00
    8   -5   13     -0.06      0.00
    9   -5   13     -0.01      0.00
   10   -5   13      0.19      0.00
   11   -5   13     -0.10      0.00
  -14   -4   13      0.04      0.00
  -13   -4   13      0.54      0.00
  -12   -4   13     -0.35      0.00
  -11   -4   13      0.03      0.00
  -10   -4   13      0.18      0.00
   -9   -4   13      0.24      0.00
   -8   -4   13     -0.62      0.00
   -7   -4   13      0.11      0.00
   -6   -4   13      0.18      0.00
   -5   -4   13      0.17      0.00
   -4   -4   13      0.13      0.00
   -3   -4   13     -0.33      0.00
   -2   -4   13      0.21      0.00
   -1   -4   13     -0.37      0.00
    0   -4   13      0.00      0.00
    1   -4   13      0.09      0.00
    2   -4   13      0.10      0.00
    3   -4   13     -0.06      0.00
    4   -4   13      0.09      0.00
    5   -4   13      0.11      0.00
    7   -4   13      0.09      0.00
    8   -4   13     -0.20      0.00
    9   -4   13      0.19      0.00
   10   -4   13      0.08      0.00
   11   -4   13     -0.27      0.00
  -15   -3   13     -0.18      0.00
  -14   -3   13     -0.08      0.00
  -13   -3   13      0.18      0.00
  -12   -3   13      0.01      0.00
  -11   -3   13     -0.21      0.00
  -10   -3   13     -0.10      0.00
   -9   -3   13      0.11      0.00
   -8   -3   13      0.47      0.00
   -7   -3   13     -0.20      0.00
   -6   -3   13     -0.01      0.00
   -5   -3   13     -0.19      0.00
   -4   -3   13      0.10      0.00
   -3   -3   13     -0.32      0.00
   -2   -3   13     -0.24      0.00
   -1   -3   13      0.07      0.00
    0   -3   13      0.01      0.00
    1   -3   13     -0.03      0.00
    2   -3   13     -0.21      0.00
    3   -3   13      0.23      0.00
    4   -3   13     -0.30      0.00
    5   -3   13     -0.19      0.00
    6   -3   13      0.29      0.00
    7   -3   13      0.04      0.00
    8   -3   13     -0.15      0.00
    9   -3   13      0.05      0.00
   10   -3   13      0.19      0.00
   11   -3   13      0.04      0.00
  -15   -2   13     -0.16      0.00
  -14   -2   13      0.12      0.00
  -13   -2   13     -0.17      0.00
  -12   -2   13      0.19      0.00
  -11   -2   13      0.10      0.00
  -10   -2   13      0.26      0.00
   -9   -2   13     -0.34      0.00
   -7   -2   13     -0.32      0.00
   -6   -2   13      0.16      0.00
   -5   -2   13     -0.16      0.00
   -4   -2   13      0.19      0.00
   -3   -2   13      0.33      0.00
   -2   -2   13      0.06      0.00
   -1   -2   13      0.26      0.00
    0   -2   13     -0.11      0.00
    1   -2   13     -0.09      0.00
    2   -2   13      0.06      0.00
    3   -2   13     -0.09      0.00
    4   -2   13      0.26      0.00
    5   -2   13     -0.43      0.00
    6   -2   13      0.42      0.00
    7   -2   13      0.12      0.00
    8   -2   13     -0.30      0.00
    9   -2   13      0.18      0.00
   10   -2   13      0.12      0.00
  -15   -1   13     -0.27      0.00
  -14   -1   13      0.26      0.00
  -13   -1   13     -0.10      0.00
  -12   -1   13     -0.12      0.00
  -11   -1   13     -0.02      0.00
  -10   -1   13     -0.24      0.00
   -9   -1   13     -0.10      0.00
   -8   -1   13      0.31      0.00
   -7   -1   13     -0.18      0.00
   -6   -1   13      0.33      0.00
   -5   -1   13     -0.12      0.00
   -4   -1   13      0.13      0.00
   -3   -1   13     -0.04      0.00
   -2   -1   13     -0.09      0.00
   -1   -1   13      0.04      0.00
    0   -1   13     -0.12      0.00
    1   -1   13      0.08      0.00
    2   -1   13     -0.11      0.00
    3   -1   13     -0.06      0.00
    4   -1   13      0.44      0.00
    5   -1   13     -0.97      0.00
    6   -1   13      0.32      0.00
    7   -1   13     -0.29      0.00
    8   -1   13     -0.12      0.00
    9   -1   13      0.17      0.00
  -15    0   13      0.14      0.00
  -14    0   13     -0.13      0.00
  -13    0   13      0.37      0.00
  -12    0   13      0.07      0.00
  -11    0   13      0.08      0.00
  -10    0   13      0.31      0.00
   -9    0   13     -0.15      0.00
   -8    0   13     -0.12      0.00
   -7    0   13      0.03      0.00
   -6    0   13      0.09      0.00
   -5    0   13     -0.26      0.00
   -4    0   13      0.13      0.00
   -3    0   13     -0.11      0.00
   -2    0   13     -0.18      0.00
   -1    0   13      0.14      0.00
    0    0   13     -0.05      0.00
    1    0   13      0.04      0.00
    2    0   13     -0.29      0.00
    3    0   13     -0.13      0.00
    4    0   13      0.06      0.00
    5    0   13     -0.10      0.00
    6    0   13      0.13      0.00
    7    0   13     -0.06      0.00
    8    0   13     -0.20      0.00
    9    0   13      0.16      0.00
  -16    1   13      0.08      0.00
  -15    1   13      0.01      0.00
  -14    1   13     -0.45      0.00
  -13    1   13      0.05      0.00
  -12    1   13      0.16      0.00
  -11    1   13     -0.51      0.00
  -10    1   13      0.14      0.00
   -9    1   13      0.13      0.00
   -8    1   13     -0.35      0.00
   -7    1   13      0.30      0.00
   -6    1   13     -0.12      0.00
   -5    1   13     -0.08      0.00
   -4    1   13      0.16      0.00
   -3    1   13     -0.15      0.00
   -2    1   13      0.00      0.00
   -1    1   13      0.19      0.00
    0    1   13     -0.07      0.00
    1    1   13     -0.18      0.00
    2    1   13      0.40      0.00
    4    1   13      0.08      0.00
    5    1   13      0.09      0.00
    6    1   13      0.26      0.00
    7    1   13     -0.14      0.00
    8    1   13      0.32      0.00
  -15    2   13      0.36      0.00
  -14    2   13     -0.09      0.00
  -13    2   13     -0.05      0.00
  -12    2   13      0.29      0.00
  -11    2   13     -0.23      0.00
  -10    2   13      0.29      0.00
   -9    2   13      0.04      0.00
   -8    2   13      0.15      0.00
   -7    2   13     -0.26      0.00
   -6    2   13     -0.01      0.00
   -5    2   13      0.02      0.00
   -4    2   13      0.00      0.00
   -3    2   13      0.01      0.00
   -2    2   13     -0.01      0.00
   -1    2   13      0.00      0.00
    0    2   13      0.35      0.00
    1    2   13     -0.05      0.00
    2    2   13      0.16      0.00
    3    2   13     -0.01      0.00
    4    2   13      0.19      0.00
    5    2   13     -0.46      0.00
    6    2   13      0.27      0.00
    7    2   13     -0.04      0.00
  -15    3   13     -0.14      0.00
  -14    3   13     -0.18      0.00
  -13    3   13      0.14      0.00
  -12    3   13     -0.18      0.00
  -11    3   13      0.00      0.00
  -10    3   13     -0.07      0.00
   -9    3   13     -0.21      0.00
   -8    3   13      0.46      0.00
   -7    3   13      0.06      0.00
   -6    3   13      0.09      0.00
   -5    3   13      0.34      0.00
   -4    3   13      0.05      0.00
   -3    3   13      0.07      0.00
   -2    3   13     -0.09      0.00
   -1    3   13     -0.28      0.00
    0    3   13      0.12      0.00
    1    3   13     -0.22      0.00
    2    3   13     -0.04      0.00
    3    3   13     -0.14      0.00
    4    3   13      0.10      0.00
    5    3   13      0.26      0.00
    6    3   13      0.05      0.00
  -15    4   13     -0.02      0.00
  -14    4   13      0.26      0.00
  -13    4   13     -0.23      0.00
  -12    4   13      0.08      0.00
  -11    4   13      0.17      0.00
  -10    4   13     -0.21      0.00
   -9    4   13      0.01      0.00
   -8    4   13     -0.15      0.00
   -7    4   13     -0.09      0.00
   -6    4   13     -0.38      0.00
   -5    4   13     -0.18      0.00
   -4    4   13     -0.01      0.00
   -3    4   13     -0.14      0.00
   -2    4   13      0.34      0.00
   -1    4   13      0.02      0.00
    0    4   13      0.07      0.00
    1    4   13     -0.25      0.00
    2    4   13      0.36      0.00
    3    4   13     -0.08      0.00
    4    4   13     -0.12      0.00
    5    4   13     -0.46      0.00
  -15    5   13     -0.04      0.00
  -14    5   13     -0.13      0.00
  -13    5   13     -0.03      0.00
  -12    5   13      0.17      0.00
  -11    5   13     -0.06      0.00
  -10    5   13     -0.14      0.00
   -9    5   13     -0.26      0.00
   -8    5   13      0.00      0.00
   -7    5   13     -0.15      0.00
   -6    5   13      0.41      0.00
   -5    5   13     -0.28      0.00
   -4    5   13      0.42      0.00
   -3    5   13      0.09      0.00
   -2    5   13     -0.03      0.00
   -1    5   13     -0.07      0.00
    0    5   13      0.22      0.00
    1    5   13     -0.23      0.00
    2    5   13      0.05      0.00
    3    5   13     -0.12      0.00
    4    5   13      0.36      0.00
  -14    6   13      0.09      0.00
  -13    6   13     -0.19      0.00
  -12    6   13      0.07      0.00
  -11    6   13      0.11      0.00
  -10    6   13     -0.05      0.00
   -9    6   13      0.62      0.00
   -8    6   13      0.02      0.00
   -7    6   13      0.15      0.00
   -6    6   13      0.13      0.00
   -5    6   13      0.03      0.00
   -4    6   13      0.07      0.00
   -3    6   13     -0.48      0.00
   -2    6   13      0.35      0.00
   -1    6   13     -0.08      0.00
    0    6   13      0.04      0.00
    1    6   13      0.20      0.00
    2    6   13     -0.13      0.00
    3    6   13     -0.01      0.00
  -13    7   13     -0.15      0.00
  -12    7   13      0.01      0.00
  -11    7   13      0.30      0.00
  -10    7   13     -0.06      0.00
   -9    7   13     -0.28      0.00
   -8    7   13      0.11      0.00
   -7    7   13     -0.16      0.00
   -6    7   13     -0.20      0.00
   -5    7   13     -0.24      0.00
   -4    7   13     -0.01      0.00
   -3    7   13     -0.29      0.00
   -2    7   13     -0.07      0.00
   -1    7   13     -0.06      0.00
    0    7   13      0.00      0.00
    1    7   13      0.30      0.00
  -12    8   13     -0.07      0.00
  -11    8   13     -0.20      0.00
  -10    8   13      0.07      0.00
   -9    8   13     -0.25      0.00
   -8    8   13      0.06      0.00
   -7    8   13     -0.05      0.00
   -6    8   13     -0.12      0.00
   -5    8   13     -0.05      0.00
   -4    8   13     -0.02      0.00
   -3    8   13      0.23      0.00
   -2    8   13      0.00      0.00
  -10    9   13      0.21      0.00
   -9    9   13     -0.25      0.00
   -8    9   13      0.33      0.00
   -7    9   13     -0.24      0.00
   -6    9   13      0.40      0.00
   -5    9   13      0.09      0.00
   -4    9   13     -0.07      0.00
   -3    9   13      0.00      0.00
   -2  -16   14      0.00      0.00
   -1  -16   14     -0.01      0.00
    0  -16   14      0.14      0.00
    1  -16   14     -0.18      0.00
    2  -16   14     -0.35      0.00
    3  -16   14      0.17      0.00
    4  -16   14      0.04      0.00
    5  -16   14     -0.51      0.00
    6  -16   14     -0.15      0.00
    7  -16   14      0.12      0.00
   -4  -15   14      0.43      0.00
   -3  -15   14     -0.19      0.00
   -2  -15   14     -0.04      0.00
   -1  -15   14      0.20      0.00
    1  -15   14      0.09      0.00
    2  -15   14      0.17      0.00
    3  -15   14     -0.48      0.00
    4  -15   14      0.14      0.00
    5  -15   14      0.33      0.00
    6  -15   14     -0.35      0.00
    7  -15   14      0.00      0.00
    8  -15   14      0.17      0.00
    9  -15   14      0.08      0.00
   -6  -14   14      0.17      0.00
   -5  -14   14      0.02      0.00
   -4  -14   14      0.04      0.00
   -3  -14   14      0.31      0.00
   -2  -14   14     -0.33      0.00
   -1  -14   14      0.16      0.00
    1  -14   14     -0.51      0.00
    2  -14   14      0.63      0.00
    3  -14   14     -0.15      0.00
    4  -14   14      0.17      0.00
    5  -14   14     -0.11      0.00
    6  -14   14      0.13      0.00
    7  -14   14     -0.08      0.00
    8  -14   14     -0.22      0.00
    9  -14   14     -0.43      0.00
   -7  -13   14     -0.20      0.00
   -6  -13   14      0.34      0.00
   -5  -13   14     -0.29      0.00
   -4  -13   14      0.01      0.00
   -3  -13   14      0.15      0.00
   -2  -13   14     -0.33      0.00
   -1  -13   14      0.19      0.00
    1  -13   14      0.09      0.00
    2  -13   14      0.03      0.00
    3  -13   14     -0.16      0.00
    4  -13   14      0.07      0.00
    5  -13   14      0.13      0.00
    7  -13   14      0.03      0.00
    8  -13   14      0.26      0.00
    9  -13   14      0.28      0.00
   10  -13   14     -0.07      0.00
   -8  -12   14      0.28      0.00
   -7  -12   14     -0.26      0.00
   -6  -12   14      0.11      0.00
   -5  -12   14     -0.03      0.00
   -4  -12   14     -0.19      0.00
   -3  -12   14      0.49      0.00
   -2  -12   14     -0.33      0.00
   -1  -12   14      0.09      0.00
    0  -12   14      0.12      0.00
    1  -12   14      0.03      0.00
    2  -12   14     -0.08      0.00
    3  -12   14      0.15      0.00
    4  -12   14     -0.06      0.00
    5  -12   14     -0.07      0.00
    6  -12   14     -0.07      0.00
    7  -12   14     -0.04      0.00
    8  -12   14      0.00      0.00
    9  -12   14      0.02      0.00
   10  -12   14     -0.13      0.00
   11  -12   14      0.06      0.00
   -9  -11   14     -0.19      0.00
   -8  -11   14      0.02      0.00
   -7  -11   14     -0.10      0.00
   -6  -11   14      0.10      0.00
   -5  -11   14      0.00      0.00
   -4  -11   14     -0.26      0.00
   -3  -11   14      0.32      0.00
   -2  -11   14      0.08      0.00
   -1  -11   14      0.24      0.00
    0  -11   14     -0.17      0.00
    1  -11   14     -0.15      0.00
    2  -11   14      0.09      0.00
    3  -11   14      0.00      0.00
    4  -11   14     -0.29      0.00
    5  -11   14      0.30      0.00
    6  -11   14     -0.07      0.00
    7  -11   14     -0.01      0.00
    8  -11   14      0.23      0.00
    9  -11   14     -0.18      0.00
   10  -11   14      0.26      0.00
   11  -11   14     -0.02      0.00
  -10  -10   14      0.01      0.00
   -9  -10   14     -0.13      0.00
   -8  -10   14      0.02      0.00
   -7  -10   14     -0.08      0.00
   -6  -10   14     -0.05      0.00
   -5  -10   14      0.02      0.00
   -4  -10   14      0.18      0.00
   -3  -10   14     -0.16      0.00
   -2  -10   14     -0.17      0.00
   -1  -10   14     -0.16      0.00
    0  -10   14      0.09      0.00
    1  -10   14      0.02      0.00
    2  -10   14     -0.07      0.00
    3  -10   14      0.14      0.00
    4  -10   14     -0.05      0.00
    5  -10   14      0.29      0.00
    6  -10   14     -0.26      0.00
    7  -10   14      0.22      0.00
    8  -10   14     -0.17      0.00
    9  -10   14      0.25      0.00
   10  -10   14     -0.32      0.00
   11  -10   14     -0.36      0.00
  -11   -9   14     -0.11      0.00
  -10   -9   14      0.11      0.00
   -9   -9   14     -0.05      0.00
   -8   -9   14     -0.28      0.00
   -7   -9   14      0.11      0.00
   -6   -9   14      0.01      0.00
   -5   -9   14      0.01      0.00
   -4   -9   14     -0.15      0.00
   -3   -9   14     -0.14      0.00
   -2   -9   14      0.10      0.00
   -1   -9   14      0.39      0.00
    0   -9   14     -0.01      0.00
    1   -9   14      0.04      0.00
    2   -9   14      0.04      0.00
    3   -9   14     -0.19      0.00
    4   -9   14     -0.08      0.00
    5   -9   14      0.21      0.00
    6   -9   14     -0.10      0.00
    7   -9   14     -0.31      0.00
    8   -9   14      0.03      0.00
    9   -9   14      0.01      0.00
   10   -9   14      0.36      0.00
   11   -9   14      0.16      0.00
  -12   -8   14      0.03      0.00
  -11   -8   14      0.20      0.00
  -10   -8   14      0.11      0.00
   -9   -8   14      0.42      0.00
   -8   -8   14      0.31      0.00
   -7   -8   14      0.05      0.00
   -6   -8   14     -0.09      0.00
   -5   -8   14     -0.18      0.00
   -4   -8   14      0.15      0.00
   -3   -8   14      0.25      0.00
   -2   -8   14     -0.35      0.00
   -1   -8   14     -0.21      0.00
    0   -8   14     -0.09      0.00
    1   -8   14     -0.20      0.00
    2   -8   14      0.33      0.00
    3   -8   14      0.25      0.00
    4   -8   14     -0.40      0.00
    5   -8   14      0.04      0.00
    6   -8   14     -0.03      0.00
    7   -8   14      0.00      0.00
    8   -8   14      0.11      0.00
    9   -8   14     -0.02      0.00
   10   -8   14     -0.06      0.00
   11   -8   14     -0.10      0.00
  -13   -7   14     -0.01      0.00
  -12   -7   14     -0.10      0.00
  -11   -7   14      0.32      0.00
  -10   -7   14     -0.17      0.00
   -9   -7   14     -0.23      0.00
   -8   -7   14      0.16      0.00
   -7   -7   14     -0.22      0.00
   -6   -7   14      0.23      0.00
   -5   -7   14      0.13      0.00
   -4   -7   14     -0.15      0.00
   -3   -7   14     -0.13      0.00
   -2   -7   14     -0.07      0.00
   -1   -7   14      0.32      0.00
    0   -7   14      0.09      0.00
    1   -7   14      0.19      0.00
    2   -7   14     -0.14      0.00
    3   -7   14     -0.28      0.00
    4   -7   14      0.29      0.00
    5   -7   14      0.04      0.00
    7   -7   14     -0.07      0.00
    8   -7   14     -0.16      0.00
    9   -7   14      0.02      0.00
   10   -7   14     -0.04      0.00
   11   -7   14      0.02      0.00
  -13   -6   14      0.42      0.00
  -12   -6   14     -0.99      0.00
  -11   -6   14      0.15      0.00
  -10   -6   14     -0.16      0.00
   -9   -6   14     -0.20      0.00
   -8   -6   14     -0.05      0.00
   -7   -6   14      0.17      0.00
   -6   -6   14     -0.12      0.00
   -5   -6   14     -0.18      0.00
   -4   -6   14      0.23      0.00
   -3   -6   14      0.04      0.00
   -2   -6   14     -0.12      0.00
   -1   -6   14      0.18      0.00
    0   -6   14     -0.47      0.00
    1   -6   14     -0.15      0.00
    2   -6   14      0.24      0.00
    3   -6   14     -0.26      0.00
    4   -6   14      0.00      0.00
    5   -6   14     -0.07      0.00
    6   -6   14      0.19      0.00
    7   -6   14      0.20      0.00
    8   -6   14     -0.20      0.00
    9   -6   14     -0.06      0.00
   10   -6   14      0.08      0.00
   11   -6   14      0.30      0.00
  -14   -5   14     -0.05      0.00
  -13   -5   14      0.47      0.00
  -12   -5   14     -0.03      0.00
  -11   -5   14     -0.11      0.00
  -10   -5   14      0.20      0.00
   -9   -5   14      0.03      0.00
   -8   -5   14     -0.18      0.00
   -7   -5   14     -0.21      0.00
   -6   -5   14      0.19      0.00
   -5   -5   14     -0.14      0.00
   -4   -5   14      0.41      0.00
   -3   -5   14     -0.15      0.00
   -2   -5   14      0.16      0.00
   -1   -5   14      0.01      0.00
    0   -5   14     -0.03      0.00
    1   -5   14      0.11      0.00
    2   -5   14      0.14      0.00
    3   -5   14     -0.04      0.00
    4   -5   14      0.46      0.00
    5   -5   14     -0.38      0.00
    6   -5   14      0.08      0.00
    7   -5   14      0.04      0.00
    8   -5   14      0.04      0.00
    9   -5   14     -0.15      0.00
   10   -5   14     -0.02      0.00
  -14   -4   14     -0.06      0.00
  -13   -4   14      0.00      0.00
  -12   -4   14     -0.01      0.00
  -11   -4   14     -0.04      0.00
  -10   -4   14     -0.41      0.00
   -9   -4   14     -0.18      0.00
   -8   -4   14      0.48      0.00
   -7   -4   14     -0.02      0.00
   -6   -4   14     -0.03      0.00
   -5   -4   14     -0.38      0.00
   -4   -4   14      0.31      0.00
   -3   -4   14     -0.61      0.00
   -2   -4   14     -0.07      0.00
   -1   -4   14     -0.07      0.00
    0   -4   14      0.05      0.00
    1   -4   14     -0.02      0.00
    2   -4   14     -0.17      0.00
    3   -4   14      0.21      0.00
    4   -4   14     -0.02      0.00
    5   -4   14     -0.24      0.00
    6   -4   14      0.14      0.00
    7   -4   14      0.06      0.00
    8   -4   14      0.33      0.00
    9   -4   14     -0.20      0.00
   10   -4   14      0.23      0.00
  -14   -3   14      0.18      0.00
  -13   -3   14     -0.23      0.00
  -12   -3   14      0.28      0.00
  -11   -3   14      0.11      0.00
  -10   -3   14      1.06      0.00
   -9   -3   14     -0.68      0.00
   -8   -3   14      0.33      0.00
   -7   -3   14      0.07      0.00
   -6   -3   14      0.01      0.00
   -5   -3   14     -0.20      0.00
   -4   -3   14      0.24      0.00
   -3   -3   14      0.22      0.00
   -2   -3   14      0.32      0.00
   -1   -3   14      0.13      0.00
    0   -3   14      0.10      0.00
    1   -3   14     -0.09      0.00
    2   -3   14     -0.03      0.00
    3   -3   14     -0.21      0.00
    4   -3   14      0.14      0.00
    5   -3   14      0.09      0.00
    6   -3   14     -0.13      0.00
    7   -3   14      0.28      0.00
    8   -3   14     -0.35      0.00
    9   -3   14      0.27      0.00
   10   -3   14      0.00      0.00
  -15   -2   14     -0.14      0.00
  -14   -2   14      0.19      0.00
  -13   -2   14      0.19      0.00
  -12   -2   14     -0.17      0.00
  -11   -2   14     -0.31      0.00
  -10   -2   14     -0.04      0.00
   -9   -2   14     -0.24      0.00
   -8   -2   14     -0.24      0.00
   -7   -2   14      0.11      0.00
   -6   -2   14      0.00      0.00
   -5   -2   14      0.21      0.00
   -4   -2   14     -0.11      0.00
   -3   -2   14      0.06      0.00
   -2   -2   14     -0.16      0.00
   -1   -2   14     -0.07      0.00
    0   -2   14      0.11      0.00
    1   -2   14      0.12      0.00
    2   -2   14     -0.21      0.00
    3   -2   14      0.29      0.00
    4   -2   14      0.03      0.00
    5   -2   14     -0.21      0.00
    6   -2   14     -0.15      0.00
    7   -2   14     -0.19      0.00
    8   -2   14     -0.06      0.00
    9   -2   14      0.03      0.00
  -15   -1   14      0.21      0.00
  -14   -1   14     -0.22      0.00
  -13   -1   14      0.06      0.00
  -12   -1   14     -0.01      0.00
  -11   -1   14      0.31      0.00
  -10   -1   14      0.05      0.00
   -9   -1   14      0.39      0.00
   -8   -1   14     -0.11      0.00
   -7   -1   14      0.13      0.00
   -6   -1   14      0.04      0.00
   -5   -1   14     -0.12      0.00
   -4   -1   14      0.00      0.00
   -3   -1   14      0.05      0.00
   -2   -1   14     -0.33      0.00
   -1   -1   14     -0.03      0.00
    0   -1   14      0.09      0.00
    1   -1   14     -0.27      0.00
    2   -1   14      0.13      0.00
    3   -1   14     -0.34      0.00
    4   -1   14     -0.19      0.00
    5   -1   14     -0.05      0.00
    6   -1   14      0.14      0.00
    7   -1   14     -0.19      0.00
    8   -1   14     -0.23      0.00
    9   -1   14     -0.07      0.00
  -15    0   14      0.03      0.00
  -14    0   14     -0.16      0.00
  -13    0   14     -0.13      0.00
  -12    0   14      0.00      0.00
  -11    0   14     -0.29      0.00
  -10    0   14     -0.02      0.00
   -9    0   14     -0.08      0.00
   -8    0   14      0.03      0.00
   -7    0   14     -0.21      0.00
   -6    0   14      0.09      0.00
   -5    0   14     -0.37      0.00
   -4    0   14      0.12      0.00
   -3    0   14     -0.07      0.00
   -2    0   14     -0.33      0.00
   -1    0   14      0.33      0.00
    0    0   14     -0.23      0.00
    1    0   14     -0.39      0.00
    2    0   14      0.54      0.00
    3    0   14     -0.12      0.00
    4    0   14      0.03      0.00
    5    0   14      0.17      0.00
    6    0   14      0.31      0.00
    7    0   14     -0.03      0.00
    8    0   14      0.21      0.00
  -15    1   14      0.05      0.00
  -14    1   14      0.36      0.00
  -13    1   14     -0.35      0.00
  -12    1   14      0.46      0.00
  -11    1   14     -0.29      0.00
  -10    1   14      0.28      0.00
   -9    1   14     -0.21      0.00
   -8    1   14      0.26      0.00
   -7    1   14     -0.24      0.00
   -6    1   14      0.25      0.00
   -5    1   14     -0.11      0.00
   -4    1   14      0.10      0.00
   -3    1   14      0.52      0.00
   -2    1   14     -0.36      0.00
   -1    1   14      0.33      0.00
    0    1   14      0.28      0.00
    2    1   14      0.02      0.00
    3    1   14      0.22      0.00
    4    1   14     -0.01      0.00
    5    1   14     -0.23      0.00
    6    1   14      0.09      0.00
    7    1   14      0.09      0.00
  -15    2   14     -0.13      0.00
  -14    2   14      0.09      0.00
  -13    2   14      0.21      0.00
  -12    2   14     -0.26      0.00
  -11    2   14      0.18      0.00
  -10    2   14     -0.11      0.00
   -9    2   14     -0.19      0.00
   -8    2   14      0.20      0.00
   -7    2   14      0.45      0.00
   -6    2   14     -0.14      0.00
   -5    2   14      0.27      0.00
   -4    2   14     -0.03      0.00
   -3    2   14      0.02      0.00
   -2    2   14      0.09      0.00
   -1    2   14     -0.07      0.00
    0    2   14     -0.13      0.00
    1    2   14      0.07      0.00
    2    2   14     -0.02      0.00
    3    2   14      0.14      0.00
    4    2   14     -0.09      0.00
    5    2   14      0.15      0.00
    6    2   14      0.24      0.00
  -15    3   14     -0.22      0.00
  -14    3   14      0.24      0.00
  -13    3   14     -0.44      0.00
  -12    3   14     -0.06      0.00
  -11    3   14      0.18      0.00
  -10    3   14     -0.07      0.00
   -9    3   14      0.21      0.00
   -8    3   14     -0.39      0.00
   -7    3   14      0.05      0.00
   -6    3   14     -0.26      0.00
   -5    3   14     -0.22      0.00
   -4    3   14      0.18      0.00
   -3    3   14     -0.66      0.00
   -2    3   14      0.39      0.00
   -1    3   14     -0.16      0.00
    0    3   14     -0.04      0.00
    1    3   14     -0.18      0.00
    2    3   14     -0.12      0.00
    3    3   14      0.18      0.00
    4    3   14     -0.24      0.00
    5    3   14     -0.30      0.00
  -14    4   14      0.03      0.00
  -13    4   14     -0.14      0.00
  -12    4   14      0.23      0.00
  -11    4   14     -0.08      0.00
  -10    4   14     -0.21      0.00
   -9    4   14     -0.18      0.00
   -8    4   14     -0.28      0.00
   -7    4   14     -0.17      0.00
   -6    4   14      0.28      0.00
   -5    4   14     -0.15      0.00
   -4    4   14      0.22      0.00
   -3    4   14      0.34      0.00
   -2    4   14     -0.11      0.00
   -1    4   14      0.34      0.00
    0    4   14      0.21      0.00
    1    4   14      0.15      0.00
    2    4   14     -0.15      0.00
    3    4   14      0.17      0.00
    4    4   14      0.35      0.00
  -14    5   14      0.11      0.00
  -13    5   14      0.19      0.00
  -12    5   14     -0.22      0.00
  -11    5   14      0.25      0.00
  -10    5   14     -0.25      0.00
   -9    5   14      0.91      0.00
   -8    5   14     -0.07      0.00
   -7    5   14      0.29      0.00
   -6    5   14     -0.16      0.00
   -5    5   14      0.42      0.00
   -4    5   14     -0.20      0.00
   -3    5   14     -0.11      0.00
   -2    5   14      0.16      0.00
   -1    5   14     -0.08      0.00
    0    5   14     -0.17      0.00
    1    5   14      0.17      0.00
    2    5   14      0.13      0.00
    3    5   14     -0.28      0.00
  -13    6   14     -0.05      0.00
  -12    6   14     -0.14      0.00
  -11    6   14      0.60      0.00
  -10    6   14     -0.53      0.00
   -9    6   14      0.12      0.00
   -8    6   14     -0.10      0.00
   -7    6   14     -0.11      0.00
   -6    6   14     -0.24      0.00
   -5    6   14     -0.06      0.00
   -4    6   14      0.02      0.00
   -3    6   14     -0.27      0.00
   -2    6   14     -0.12      0.00
   -1    6   14     -0.15      0.00
    0    6   14      0.05      0.00
    1    6   14      0.05      0.00
  -12    7   14     -0.02      0.00
  -11    7   14      0.11      0.00
  -10    7   14     -0.36      0.00
   -9    7   14      0.24      0.00
   -8    7   14     -0.03      0.00
   -7    7   14      0.00      0.00
   -6    7   14      0.03      0.00
   -5    7   14     -0.20      0.00
   -4    7   14     -0.15      0.00
   -3    7   14     -0.16      0.00
   -2    7   14      0.15      0.00
   -1    7   14     -0.28      0.00
    0    7   14     -0.21      0.00
  -11    8   14     -0.02      0.00
  -10    8   14     -0.03      0.00
   -9    8   14     -0.10      0.00
   -8    8   14      0.20      0.00
   -7    8   14     -0.27      0.00
   -6    8   14      0.35      0.00
   -5    8   14     -0.19      0.00
   -4    8   14      0.38      0.00
   -3    8   14     -0.41      0.00
   -1  -16   15      0.20      0.00
    0  -16   15     -0.43      0.00
    1  -16   15      0.01      0.00
    2  -16   15     -0.05      0.00
    3  -16   15     -0.27      0.00
    4  -16   15     -0.35      0.00
    5  -16   15      0.36      0.00
    6  -16   15     -0.05      0.00
   -3  -15   15      0.21      0.00
   -2  -15   15     -0.37      0.00
   -1  -15   15      0.30      0.00
    0  -15   15      0.28      0.00
    1  -15   15     -0.35      0.00
    2  -15   15      0.53      0.00
    3  -15   15      0.00      0.00
    4  -15   15     -0.01      0.00
    5  -15   15     -0.25      0.00
    6  -15   15      0.10      0.00
    7  -15   15      0.09      0.00
   -5  -14   15     -0.44      0.00
   -4  -14   15      0.10      0.00
   -3  -14   15      0.18      0.00
   -2  -14   15     -0.24      0.00
   -1  -14   15      0.24      0.00
    0  -14   15     -0.12      0.00
    1  -14   15     -0.17      0.00
    2  -14   15      0.40      0.00
    3  -14   15     -0.20      0.00
    4  -14   15      0.18      0.00
    5  -14   15      0.05      0.00
    6  -14   15      0.10      0.00
    7  -14   15      0.20      0.00
    8  -14   15     -0.02      0.00
    9  -14   15      0.01      0.00
   -7  -13   15     -0.28      0.00
   -6  -13   15     -0.03      0.00
   -5  -13   15      0.06      0.00
   -4  -13   15     -0.18      0.00
   -3  -13   15      0.13      0.00
   -2  -13   15     -0.06      0.00
   -1  -13   15     -0.06      0.00
    0  -13   15      0.28      0.00
    1  -13   15     -0.19      0.00
    2  -13   15     -0.17      0.00
    3  -13   15      0.27      0.00
    4  -13   15     -0.15      0.00
    5  -13   15      0.04      0.00
    6  -13   15      0.03      0.00
    7  -13   15     -0.12      0.00
    8  -13   15      0.18      0.00
    9  -13   15     -0.20      0.00
   -8  -12   15     -0.15      0.00
   -7  -12   15      0.32      0.00
   -6  -12   15     -0.18      0.00
   -5  -12   15      0.35      0.00
   -4  -12   15     -0.09      0.00
   -3  -12   15     -0.08      0.00
   -2  -12   15      0.28      0.00
   -1  -12   15      0.16      0.00
    0  -12   15     -0.16      0.00
    1  -12   15     -0.09      0.00
    2  -12   15      0.10      0.00
    3  -12   15      0.10      0.00
    4  -12   15     -0.41      0.00
    5  -12   15      0.22      0.00
    6  -12   15      0.21      0.00
    7  -12   15     -0.28      0.00
    8  -12   15      0.43      0.00
    9  -12   15     -0.19      0.00
   10  -12   15      0.37      0.00
   -9  -11   15     -0.09      0.00
   -8  -11   15      0.01      0.00
   -7  -11   15      0.15      0.00
   -6  -11   15     -0.48      0.00
   -5  -11   15      0.07      0.00
   -4  -11   15      0.24      0.00
   -3  -11   15     -0.08      0.00
   -2  -11   15     -0.45      0.00
   -1  -11   15      0.14      0.00
    0  -11   15      0.11      0.00
    1  -11   15      0.10      0.00
    2  -11   15     -0.02      0.00
    3  -11   15      0.35      0.00
    4  -11   15      0.00      0.00
    5  -11   15     -0.16      0.00
    6  -11   15      0.29      0.00
    7  -11   15     -0.08      0.00
    8  -11   15     -0.16      0.00
    9  -11   15      0.21      0.00
   10  -11   15     -0.40      0.00
  -10  -10   15      0.22      0.00
   -9  -10   15     -0.18      0.00
   -8  -10   15     -0.36      0.00
   -7  -10   15      0.23      0.00
   -6  -10   15     -0.18      0.00
   -5  -10   15     -0.09      0.00
   -4  -10   15     -0.04      0.00
   -3  -10   15     -0.05      0.00
   -2  -10   15      0.00      0.00
   -1  -10   15      0.34      0.00
    0  -10   15      0.01      0.00
    1  -10   15     -0.21      0.00
    2  -10   15      0.07      0.00
    3  -10   15     -0.21      0.00
    4  -10   15     -0.11      0.00
    5  -10   15     -0.12      0.00
    6  -10   15      0.12      0.00
    7  -10   15     -0.32      0.00
    8  -10   15     -0.07      0.00
    9  -10   15     -0.14      0.00
   10  -10   15      0.24      0.00
  -11   -9   15      0.20      0.00
  -10   -9   15     -0.04      0.00
   -9   -9   15      0.19      0.00
   -8   -9   15      0.32      0.00
   -7   -9   15      0.10      0.00
   -6   -9   15      0.06      0.00
   -5   -9   15     -0.21      0.00
   -4   -9   15      0.23      0.00
   -3   -9   15      0.08      0.00
   -2   -9   15     -0.25      0.00
   -1   -9   15     -0.22      0.00
    0   -9   15     -0.22      0.00
    1   -9   15     -0.04      0.00
    2   -9   15      0.07      0.00
    3   -9   15      0.31      0.00
    4   -9   15     -0.20      0.00
    5   -9   15      0.12      0.00
    6   -9   15     -0.07      0.00
    7   -9   15      0.15      0.00
    8   -9   15      0.32      0.00
    9   -9   15     -0.22      0.00
   10   -9   15      0.07      0.00
  -12   -8   15      0.25      0.00
  -11   -8   15      0.04      0.00
  -10   -8   15      0.15      0.00
   -9   -8   15     -0.13      0.00
   -8   -8   15      0.07      0.00
   -7   -8   15      0.00      0.00
   -6   -8   15     -0.10      0.00
   -5   -8   15      0.04      0.00
   -4   -8   15     -0.07      0.00
   -3   -8   15     -0.52      0.00
   -2   -8   15      0.21      0.00
   -1   -8   15      0.16      0.00
    0   -8   15      0.10      0.00
    1   -8   15      0.16      0.00
    2   -8   15     -0.27      0.00
    3   -8   15      0.21      0.00
    4   -8   15     -0.19      0.00
    5   -8   15      0.18      0.00
    6   -8   15     -0.09      0.00
    7   -8   15     -0.31      0.00
    8   -8   15      0.38      0.00
    9   -8   15     -0.20      0.00
   10   -8   15     -0.04      0.00
  -12   -7   15     -0.28      0.00
  -11   -7   15     -0.13      0.00
  -10   -7   15     -0.07      0.00
   -9   -7   15      0.07      0.00
   -8   -7   15     -0.36      0.00
   -7   -7   15      0.50      0.00
   -6   -7   15     -0.14      0.00
   -5   -7   15     -0.03      0.00
   -4   -7   15      0.50      0.00
   -3   -7   15     -0.07      0.00
   -2   -7   15     -0.04      0.00
   -1   -7   15     -0.08      0.00
    0   -7   15     -0.48      0.00
    1   -7   15      0.02      0.00
    2   -7   15     -0.26      0.00
    3   -7   15      0.27      0.00
    4   -7   15     -0.37      0.00
    5   -7   15      0.20      0.00
    6   -7   15      0.21      0.00
    7   -7   15     -0.02      0.00
    8   -7   15      0.15      0.00
    9   -7   15     -0.24      0.00
   10   -7   15     -0.05      0.00
  -13   -6   15     -0.08      0.00
  -12   -6   15      0.17      0.00
  -11   -6   15     -0.04      0.00
  -10   -6   15     -0.08      0.00
   -9   -6   15      0.01      0.00
   -8   -6   15     -0.16      0.00
   -7   -6   15      0.01      0.00
   -6   -6   15     -0.06      0.00
   -5   -6   15     -0.01      0.00
   -4   -6   15      0.12      0.00
   -3   -6   15      0.11      0.00
   -2   -6   15     -0.02      0.00
   -1   -6   15      0.33      0.00
    0   -6   15      0.01      0.00
    1   -6   15      0.20      0.00
    2   -6   15     -0.23      0.00
    3   -6   15      0.21      0.00
    4   -6   15      0.13      0.00
    5   -6   15     -0.10      0.00
    6   -6   15     -0.27      0.00
    7   -6   15     -0.13      0.00
    8   -6   15      0.04      0.00
    9   -6   15     -0.14      0.00
   10   -6   15      0.05      0.00
  -13   -5   15      0.06      0.00
  -12   -5   15     -0.01      0.00
  -11   -5   15     -0.18      0.00
  -10   -5   15     -0.09      0.00
   -9   -5   15     -0.35      0.00
   -8   -5   15      0.04      0.00
   -7   -5   15      0.36      0.00
   -6   -5   15     -0.26      0.00
   -5   -5   15      0.14      0.00
   -4   -5   15     -0.11      0.00
   -3   -5   15     -0.08      0.00
   -2   -5   15     -0.11      0.00
   -1   -5   15      0.04      0.00
    0   -5   15      0.34      0.00
    1   -5   15     -0.18      0.00
    2   -5   15      0.14      0.00
    3   -5   15      0.08      0.00
    4   -5   15     -0.37      0.00
    5   -5   15      0.36      0.00
    6   -5   15     -0.25      0.00
    7   -5   15      0.05      0.00
    8   -5   15      0.27      0.00
    9   -5   15     -0.14      0.00
   10   -5   15      0.33      0.00
  -14   -4   15      0.17      0.00
  -13   -4   15     -0.18      0.00
  -12   -4   15      0.39      0.00
  -11   -4   15     -0.47      0.00
  -10   -4   15      1.76      0.00
   -9   -4   15     -0.56      0.00
   -8   -4   15      0.10      0.00
   -7   -4   15      0.31      0.00
   -6   -4   15     -0.41      0.00
   -5   -4   15      0.03      0.00
   -4   -4   15     -0.08      0.00
   -3   -4   15      0.25      0.00
   -2   -4   15      0.01      0.00
   -1   -4   15     -0.02      0.00
    0   -4   15      0.13      0.00
    1   -4   15     -0.30      0.00
    2   -4   15      0.24      0.00
    3   -4   15     -0.24      0.00
    4   -4   15     -0.08      0.00
    5   -4   15      0.41      0.00
    6   -4   15      0.03      0.00
    7   -4   15      0.22      0.00
    8   -4   15     -0.25      0.00
    9   -4   15      0.19      0.00
  -14   -3   15      0.31      0.00
  -13   -3   15      0.17      0.00
  -12   -3   15      0.29      0.00
  -11   -3   15     -0.67      0.00
  -10   -3   15      0.03      0.00
   -9   -3   15     -0.29      0.00
   -8   -3   15     -0.33      0.00
   -7   -3   15      0.03      0.00
   -6   -3   15     -0.16      0.00
   -5   -3   15      0.35      0.00
   -4   -3   15     -0.01      0.00
   -3   -3   15      0.13      0.00
   -2   -3   15     -0.18      0.00
   -1   -3   15      0.01      0.00
    0   -3   15      0.30      0.00
    1   -3   15     -0.13      0.00
    2   -3   15      0.15      0.00
    4   -3   15     -0.10      0.00
    5   -3   15     -0.28      0.00
    6   -3   15      0.03      0.00
    7   -3   15     -0.25      0.00
    8   -3   15     -0.02      0.00
    9   -3   15     -0.10      0.00
  -14   -2   15     -0.02      0.00
  -13   -2   15     -0.40      0.00
  -12   -2   15      0.06      0.00
  -11   -2   15      0.02      0.00
  -10   -2   15      0.00      0.00
   -9   -2   15      0.22      0.00
   -8   -2   15      0.24      0.00
   -7   -2   15      0.12      0.00
   -6   -2   15      0.00      0.00
   -5   -2   15     -0.18      0.00
   -4   -2   15      0.03      0.00
   -3   -2   15     -0.05      0.00
   -2   -2   15     -0.27      0.00
   -1   -2   15     -0.06      0.00
    0   -2   15     -0.10      0.00
    1   -2   15     -0.18      0.00
    2   -2   15     -0.06      0.00
    3   -2   15      0.02      0.00
    4   -2   15     -0.23      0.00
    5   -2   15     -0.10      0.00
    6   -2   15      0.31      0.00
    7   -2   15     -0.25      0.00
    8   -2   15     -0.09      0.00
  -14   -1   15      0.09      0.00
  -13   -1   15      0.05      0.00
  -12   -1   15     -0.25      0.00
  -11   -1   15      0.18      0.00
  -10   -1   15     -0.01      0.00
   -9   -1   15     -0.12      0.00
   -8   -1   15      0.12      0.00
   -7   -1   15      0.09      0.00
   -6   -1   15     -0.16      0.00
   -5   -1   15     -0.20      0.00
   -4   -1   15     -0.12      0.00
   -3   -1   15     -0.09      0.00
   -2   -1   15     -0.14      0.00
   -1   -1   15      0.19      0.00
    0   -1   15     -0.23      0.00
    1   -1   15     -0.10      0.00
    2   -1   15      0.13      0.00
    3   -1   15      0.05      0.00
    4   -1   15     -0.01      0.00
    5   -1   15     -0.05      0.00
    6   -1   15      0.26      0.00
    7   -1   15     -0.23      0.00
    8   -1   15      0.28      0.00
  -14    0   15      0.14      0.00
  -13    0   15     -0.06      0.00
  -12    0   15      0.22      0.00
  -11    0   15     -0.13      0.00
  -10    0   15      0.23      0.00
   -9    0   15     -0.16      0.00
   -8    0   15     -0.19      0.00
   -7    0   15      0.08      0.00
   -6    0   15      0.09      0.00
   -5    0   15      0.04      0.00
   -4    0   15      0.32      0.00
   -3    0   15      0.11      0.00
   -2    0   15      0.17      0.00
   -1    0   15     -0.27      0.00
    1    0   15     -0.41      0.00
    2    0   15      0.08      0.00
    3    0   15      0.13      0.00
    4    0   15      0.07      0.00
    5    0   15      0.09      0.00
    6    0   15      0.11      0.00
    7    0   15      0.11      0.00
  -14    1   15      0.04      0.00
  -13    1   15      0.24      0.00
  -12    1   15     -0.16      0.00
  -11    1   15     -0.05      0.00
  -10    1   15      0.12      0.00
   -9    1   15     -0.53      0.00
   -8    1   15      0.32      0.00
   -7    1   15      0.15      0.00
   -6    1   15     -0.09      0.00
   -5    1   15      0.33      0.00
   -4    1   15      0.02      0.00
   -3    1   15     -0.33      0.00
   -2    1   15      0.63      0.00
   -1    1   15     -0.16      0.00
    0    1   15     -0.05      0.00
    1    1   15      0.11      0.00
    2    1   15      0.01      0.00
    3    1   15      0.01      0.00
    4    1   15     -0.22      0.00
    5    1   15     -0.02      0.00
    6    1   15      0.13      0.00
  -14    2   15      0.32      0.00
  -13    2   15     -0.49      0.00
  -12    2   15     -0.09      0.00
  -11    2   15     -0.10      0.00
  -10    2   15      0.16      0.00
   -9    2   15      0.25      0.00
   -8    2   15     -0.22      0.00
   -7    2   15      0.02      0.00
   -6    2   15     -0.48      0.00
   -5    2   15      0.22      0.00
   -4    2   15     -0.13      0.00
   -3    2   15     -0.36      0.00
   -2    2   15     -0.04      0.00
   -1    2   15     -0.11      0.00
    0    2   15     -0.07      0.00
    1    2   15     -0.03      0.00
    2    2   15     -0.04      0.00
    3    2   15     -0.01      0.00
    4    2   15     -0.03      0.00
    5    2   15     -0.13      0.00
  -14    3   15     -0.19      0.00
  -13    3   15      0.28      0.00
  -12    3   15     -0.11      0.00
  -11    3   15      0.28      0.00
  -10    3   15     -0.47      0.00
   -9    3   15      0.18      0.00
   -8    3   15     -0.28      0.00
   -7    3   15      0.07      0.00
   -6    3   15     -0.09      0.00
   -5    3   15      0.10      0.00
   -4    3   15     -0.07      0.00
   -3    3   15      0.40      0.00
   -2    3   15     -0.29      0.00
   -1    3   15      0.37      0.00
    0    3   15      0.07      0.00
    1    3   15      0.13      0.00
    2    3   15      0.08      0.00
    3    3   15     -0.13      0.00
    4    3   15      0.26      0.00
  -14    4   15     -0.24      0.00
  -13    4   15      0.46      0.00
  -12    4   15     -0.25      0.00
  -11    4   15      0.11      0.00
  -10    4   15     -0.06      0.00
   -9    4   15      0.13      0.00
   -8    4   15      0.35      0.00
   -7    4   15     -0.04      0.00
   -6    4   15     -0.21      0.00
   -5    4   15      0.23      0.00
   -4    4   15     -0.06      0.00
   -3    4   15     -0.11      0.00
   -2    4   15      0.37      0.00
   -1    4   15      0.08      0.00
    0    4   15     -0.38      0.00
    1    4   15      0.13      0.00
    2    4   15      0.53      0.00
    3    4   15     -0.32      0.00
  -13    5   15     -0.45      0.00
  -12    5   15      0.62      0.00
  -11    5   15     -0.10      0.00
  -10    5   15      0.21      0.00
   -9    5   15     -0.34      0.00
   -8    5   15      0.13      0.00
   -7    5   15      0.22      0.00
   -6    5   15     -0.30      0.00
   -5    5   15      0.17      0.00
   -4    5   15      0.08      0.00
   -3    5   15     -0.20      0.00
   -2    5   15     -0.11      0.00
   -1    5   15     -0.12      0.00
    0    5   15      0.00      0.00
    1    5   15     -0.10      0.00
  -12    6   15     -0.20      0.00
  -11    6   15      0.17      0.00
  -10    6   15     -0.20      0.00
   -9    6   15      0.24      0.00
   -8    6   15     -0.25      0.00
   -7    6   15      0.26      0.00
   -6    6   15     -0.12      0.00
   -5    6   15      0.19      0.00
   -4    6   15     -0.48      0.00
   -3    6   15      0.00      0.00
   -2    6   15     -0.02      0.00
   -1    6   15     -0.12      0.00
    0    6   15     -0.22      0.00
  -10    7   15     -0.13      0.00
   -9    7   15     -0.10      0.00
   -8    7   15      0.00      0.00
   -7    7   15      0.07      0.00
   -6    7   15     -0.33      0.00
   -5    7   15      0.29      0.00
   -4    7   15     -0.29      0.00
   -3    7   15     -0.12      0.00
    1  -16   16     -0.12      0.00
    2  -16   16      0.18      0.00
    3  -16   16      0.05      0.00
   -3  -15   16     -0.15      0.00
   -2  -15   16      0.08      0.00
   -1  -15   16      0.14      0.00
    0  -15   16      0.12      0.00
    1  -15   16     -0.23      0.00
    2  -15   16      0.44      0.00
    3  -15   16     -0.24      0.00
    4  -15   16      0.24      0.00
    5  -15   16      0.06      0.00
    6  -15   16      0.02      0.00
   -5  -14   16     -0.20      0.00
   -4  -14   16      0.14      0.00
   -3  -14   16     -0.05      0.00
   -2  -14   16     -0.14      0.00
   -1  -14   16     -0.08      0.00
    0  -14   16      0.31      0.00
    1  -14   16     -0.22      0.00
    2  -14   16     -0.18      0.00
    3  -14   16      0.09      0.00
    4  -14   16     -0.15      0.00
    5  -14   16      0.30      0.00
    6  -14   16     -0.03      0.00
    7  -14   16     -0.32      0.00
   -6  -13   16     -0.02      0.00
   -5  -13   16      0.01      0.00
   -4  -13   16      0.22      0.00
   -3  -13   16     -0.16      0.00
   -2  -13   16      0.23      0.00
   -1  -13   16     -0.25      0.00
    0  -13   16      0.10      0.00
    1  -13   16     -0.37      0.00
    2  -13   16      0.32      0.00
    3  -13   16      0.01      0.00
    4  -13   16     -0.24      0.00
    5  -13   16      0.28      0.00
    6  -13   16      0.15      0.00
    7  -13   16     -0.18      0.00
    8  -13   16      0.47      0.00
   -8  -12   16     -0.07      0.00
   -7  -12   16      0.36      0.00
   -5  -12   16     -0.25      0.00
   -4  -12   16      0.46      0.00
   -3  -12   16     -0.27      0.00
   -2  -12   16     -0.17      0.00
   -1  -12   16      0.06      0.00
    0  -12   16      0.30      0.00
    1  -12   16      0.12      0.00
    2  -12   16     -0.01      0.00
    3  -12   16      0.43      0.00
    4  -12   16     -0.20      0.00
    5  -12   16     -0.06      0.00
    6  -12   16     -0.03      0.00
    7  -12   16     -0.03      0.00
    8  -12   16     -0.11      0.00
    9  -12   16      0.06      0.00
   -9  -11   16     -0.13      0.00
   -8  -11   16     -0.44      0.00
   -6  -11   16     -0.12      0.00
   -5  -11   16     -0.12      0.00
   -4  -11   16     -0.16      0.00
   -3  -11   16      0.15      0.00
   -2  -11   16     -0.02      0.00
   -1  -11   16      0.28      0.00
    0  -11   16     -0.10      0.00
    1  -11   16     -0.12      0.00
    2  -11   16      0.02      0.00
    3  -11   16     -0.30      0.00
    4  -11   16     -0.11      0.00
    5  -11   16      0.19      0.00
    6  -11   16     -0.09      0.00
    7  -11   16     -0.13      0.00
    8  -11   16      0.04      0.00
    9  -11   16     -0.10      0.00
  -10  -10   16     -0.05      0.00
   -9  -10   16      0.02      0.00
   -7  -10   16      0.08      0.00
   -6  -10   16     -0.05      0.00
   -5  -10   16      0.05      0.00
   -4  -10   16      0.10      0.00
   -3  -10   16     -0.06      0.00
   -2  -10   16     -0.15      0.00
   -1  -10   16     -0.19      0.00
    0  -10   16     -0.27      0.00
    1  -10   16      0.11      0.00
    2  -10   16      0.02      0.00
    3  -10   16      0.17      0.00
    4  -10   16      0.04      0.00
    5  -10   16      0.15      0.00
    6  -10   16     -0.14      0.00
    7  -10   16      0.06      0.00
    8  -10   16      0.16      0.00
    9  -10   16     -0.09      0.00
  -10   -9   16      0.28      0.00
   -8   -9   16      0.12      0.00
   -7   -9   16     -0.02      0.00
   -6   -9   16     -0.12      0.00
   -5   -9   16      0.00      0.00
   -4   -9   16      0.07      0.00
   -3   -9   16     -0.55      0.00
   -2   -9   16      0.23      0.00
   -1   -9   16      0.12      0.00
    0   -9   16      0.13      0.00
    1   -9   16     -0.29      0.00
    2   -9   16      0.19      0.00
    3   -9   16     -0.28      0.00
    4   -9   16     -0.12      0.00
    5   -9   16      0.06      0.00
    6   -9   16     -0.09      0.00
    7   -9   16     -0.30      0.00
    8   -9   16      0.21      0.00
    9   -9   16      0.05      0.00
  -11   -8   16      0.06      0.00
  -10   -8   16      0.20      0.00
   -9   -8   16     -0.08      0.00
   -8   -8   16      0.06      0.00
   -7   -8   16      0.23      0.00
   -6   -8   16     -0.04      0.00
   -5   -8   16      0.06      0.00
   -4   -8   16      0.09      0.00
   -3   -8   16      0.26      0.00
   -2   -8   16     -0.16      0.00
   -1   -8   16     -0.37      0.00
    0   -8   16      0.08      0.00
    1   -8   16     -0.40      0.00
    2   -8   16      0.26      0.00
    3   -8   16     -0.21      0.00
    4   -8   16      0.23      0.00
    5   -8   16     -0.10      0.00
    6   -8   16      0.58      0.00
    7   -8   16     -0.03      0.00
    8   -8   16     -0.01      0.00
    9   -8   16     -0.13      0.00
  -11   -7   16      0.03      0.00
  -10   -7   16     -0.18      0.00
   -9   -7   16     -0.03      0.00
   -8   -7   16      0.02      0.00
   -7   -7   16     -0.12      0.00
   -6   -7   16      0.01      0.00
   -5   -7   16      0.21      0.00
   -4   -7   16      0.09      0.00
   -3   -7   16      0.07      0.00
   -2   -7   16      0.22      0.00
   -1   -7   16      0.01      0.00
    0   -7   16      0.23      0.00
    1   -7   16     -0.05      0.00
    2   -7   16     -0.10      0.00
    3   -7   16     -0.14      0.00
    4   -7   16      0.30      0.00
    5   -7   16     -0.48      0.00
    6   -7   16     -0.06      0.00
    7   -7   16     -0.06      0.00
    8   -7   16     -0.20      0.00
    9   -7   16     -0.04      0.00
  -12   -6   16     -0.15      0.00
  -11   -6   16     -0.18      0.00
  -10   -6   16     -0.15      0.00
   -9   -6   16     -0.03      0.00
   -8   -6   16     -0.40      0.00
   -7   -6   16      0.43      0.00
   -5   -6   16      0.05      0.00
   -4   -6   16      0.02      0.00
   -3   -6   16     -0.08      0.00
   -2   -6   16      0.02      0.00
   -1   -6   16      0.12      0.00
    0   -6   16      0.18      0.00
    1   -6   16      0.15      0.00
    2   -6   16      0.32      0.00
    3   -6   16     -0.18      0.00
    4   -6   16     -0.08      0.00
    5   -6   16      0.08      0.00
    6   -6   16     -0.17      0.00
    7   -6   16      0.05      0.00
    8   -6   16      0.06      0.00
    9   -6   16     -0.09      0.00
  -13   -5   16      0.20      0.00
  -12   -5   16      0.16      0.00
  -11   -5   16     -0.18      0.00
  -10   -5   16      1.02      0.00
   -9   -5   16      0.02      0.00
   -8   -5   16     -0.01      0.00
   -7   -5   16      0.27      0.00
   -6   -5   16     -0.63      0.00
   -5   -5   16     -0.03      0.00
   -4   -5   16     -0.10      0.00
   -3   -5   16      0.09      0.00
   -2   -5   16      0.10      0.00
   -1   -5   16     -0.04      0.00
    0   -5   16     -0.08      0.00
    1   -5   16     -0.03      0.00
    2   -5   16     -0.06      0.00
    3   -5   16      0.12      0.00
    4   -5   16     -0.18      0.00
    5   -5   16      0.30      0.00
    6   -5   16      0.03      0.00
    7   -5   16      0.20      0.00
    8   -5   16     -0.17      0.00
    9   -5   16      0.04      0.00
  -13   -4   16      0.37      0.00
  -12   -4   16      0.16      0.00
  -11   -4   16     -0.30      0.00
  -10   -4   16     -0.15      0.00
   -9   -4   16     -0.37      0.00
   -8   -4   16     -0.08      0.00
   -7   -4   16      0.04      0.00
   -6   -4   16     -0.29      0.00
   -5   -4   16      0.30      0.00
   -4   -4   16      0.03      0.00
   -3   -4   16     -0.21      0.00
   -2   -4   16      0.17      0.00
   -1   -4   16     -0.18      0.00
    0   -4   16      0.21      0.00
    1   -4   16     -0.06      0.00
    2   -4   16     -0.02      0.00
    3   -4   16      0.50      0.00
    4   -4   16     -0.23      0.00
    5   -4   16     -0.12      0.00
    6   -4   16     -0.17      0.00
    7   -4   16      0.12      0.00
    8   -4   16     -0.08      0.00
  -13   -3   16     -0.22      0.00
  -12   -3   16     -0.14      0.00
  -11   -3   16     -0.16      0.00
  -10   -3   16      0.31      0.00
   -9   -3   16     -0.23      0.00
   -8   -3   16      0.10      0.00
   -7   -3   16      0.26      0.00
   -6   -3   16     -0.02      0.00
   -5   -3   16     -0.03      0.00
   -4   -3   16      0.05      0.00
   -3   -3   16     -0.16      0.00
   -2   -3   16      0.15      0.00
   -1   -3   16     -0.31      0.00
    0   -3   16      0.04      0.00
    1   -3   16     -0.11      0.00
    2   -3   16     -0.35      0.00
    3   -3   16      0.17      0.00
    4   -3   16     -0.26      0.00
    5   -3   16      0.30      0.00
    6   -3   16      0.16      0.00
    7   -3   16     -0.12      0.00
    8   -3   16     -0.02      0.00
  -14   -2   16      0.22      0.00
  -13   -2   16     -0.03      0.00
  -12   -2   16     -0.21      0.00
  -11   -2   16      0.31      0.00
  -10   -2   16     -0.08      0.00
   -9   -2   16      0.10      0.00
   -8   -2   16      0.04      0.00
   -7   -2   16      0.15      0.00
   -6   -2   16      0.08      0.00
   -5   -2   16     -0.15      0.00
   -4   -2   16     -0.09      0.00
   -3   -2   16     -0.31      0.00
   -2   -2   16      0.13      0.00
   -1   -2   16     -0.09      0.00
    0   -2   16      0.06      0.00
    1   -2   16     -0.10      0.00
    2   -2   16      0.36      0.00
    3   -2   16     -0.12      0.00
    4   -2   16      0.24      0.00
    5   -2   16     -0.27      0.00
    6   -2   16      0.23      0.00
    7   -2   16     -0.35      0.00
  -14   -1   16      0.34      0.00
  -13   -1   16     -0.12      0.00
  -12   -1   16      0.36      0.00
  -11   -1   16     -0.33      0.00
  -10   -1   16      0.39      0.00
   -9   -1   16      0.07      0.00
   -8   -1   16     -0.28      0.00
   -7   -1   16      0.07      0.00
   -6   -1   16     -0.06      0.00
   -5   -1   16      0.09      0.00
   -4   -1   16      0.39      0.00
   -3   -1   16     -0.04      0.00
   -2   -1   16     -0.07      0.00
   -1   -1   16      0.01      0.00
    0   -1   16      0.22      0.00
    1   -1   16     -0.44      0.00
    2   -1   16      0.28      0.00
    3   -1   16     -0.27      0.00
    4   -1   16      0.08      0.00
    5   -1   16      0.10      0.00
    6   -1   16      0.14      0.00
  -14    0   16     -0.09      0.00
  -13    0   16      0.15      0.00
  -12    0   16     -0.03      0.00
  -11    0   16     -0.31      0.00
  -10    0   16      0.12      0.00
   -9    0   16     -0.32      0.00
   -8    0   16     -0.07      0.00
   -7    0   16      0.25      0.00
   -6    0   16     -0.40      0.00
   -5    0   16      0.37      0.00
   -4    0   16     -0.07      0.00
   -3    0   16     -0.12      0.00
   -2    0   16      0.31      0.00
   -1    0   16      0.26      0.00
    0    0   16     -0.39      0.00
    1    0   16      0.34      0.00
    2    0   16     -0.14      0.00
    3    0   16      0.03      0.00
    4    0   16     -0.35      0.00
    5    0   16      0.11      0.00
    6    0   16     -0.06      0.00
  -14    1   16     -0.04      0.00
  -13    1   16     -0.17      0.00
  -12    1   16     -0.01      0.00
  -11    1   16     -0.42      0.00
  -10    1   16      0.15      0.00
   -9    1   16      0.13      0.00
   -8    1   16     -0.15      0.00
   -7    1   16      0.07      0.00
   -6    1   16     -0.26      0.00
   -5    1   16     -0.02      0.00
   -4    1   16      0.12      0.00
   -3    1   16     -0.12      0.00
   -2    1   16     -0.08      0.00
   -1    1   16     -0.01      0.00
    0    1   16     -0.05      0.00
    1    1   16      0.01      0.00
    2    1   16      0.04      0.00
    3    1   16      0.05      0.00
    4    1   16     -0.12      0.00
    5    1   16     -0.03      0.00
  -13    2   16      0.13      0.00
  -12    2   16      0.47      0.00
  -11    2   16      0.06      0.00
  -10    2   16     -0.04      0.00
   -9    2   16      0.12      0.00
   -8    2   16      0.01      0.00
   -7    2   16      0.20      0.00
   -6    2   16     -0.13      0.00
   -5    2   16      0.09      0.00
   -4    2   16     -0.33      0.00
   -3    2   16      0.23      0.00
   -2    2   16     -0.19      0.00
   -1    2   16      0.07      0.00
    0    2   16      0.04      0.00
    1    2   16     -0.15      0.00
    2    2   16      0.34      0.00
    3    2   16     -0.17      0.00
    4    2   16     -0.08      0.00
  -13    3   16     -0.08      0.00
  -12    3   16     -0.17      0.00
  -11    3   16     -0.02      0.00
  -10    3   16     -0.26      0.00
   -9    3   16      0.17      0.00
   -8    3   16     -0.28      0.00
   -7    3   16      0.13      0.00
   -6    3   16     -0.24      0.00
   -5    3   16      0.32      0.00
   -4    3   16     -0.21      0.00
   -3    3   16     -0.10      0.00
   -2    3   16      0.35      0.00
   -1    3   16      0.14      0.00
    0    3   16     -0.23      0.00
    1    3   16     -0.05      0.00
    2    3   16      0.48      0.00
    3    3   16     -0.15      0.00
  -12    4   16      0.58      0.00
  -11    4   16      0.03      0.00
  -10    4   16      0.17      0.00
   -9    4   16      0.19      0.00
   -8    4   16     -0.16      0.00
   -7    4   16      0.23      0.00
   -6    4   16      0.09      0.00
   -5    4   16      0.08      0.00
   -4    4   16      0.05      0.00
   -3    4   16     -0.09      0.00
   -2    4   16     -0.10      0.00
   -1    4   16      0.03      0.00
    0    4   16      0.13      0.00
    1    4   16     -0.16      0.00
  -11    5   16      0.05      0.00
  -10    5   16     -0.35      0.00
   -9    5   16      0.49      0.00
   -8    5   16     -0.19      0.00
   -7    5   16     -0.23      0.00
   -6    5   16      0.16      0.00
   -5    5   16      0.06      0.00
   -4    5   16     -0.10      0.00
   -3    5   16     -0.04      0.00
   -2    5   16      0.13      0.00
   -1    5   16     -0.14      0.00
  -10    6   16     -0.44      0.00
   -9    6   16      0.28      0.00
   -8    6   16     -0.12      0.00
   -7    6   16     -0.02      0.00
   -6    6   16     -0.23      0.00
   -5    6   16      0.30      0.00
   -4    6   16     -0.22      0.00
   -3    6   16     -0.39      0.00
   -1  -15   17      0.06      0.00
    0  -15   17      0.13      0.00
    1  -15   17     -0.02      0.00
    2  -15   17     -0.09      0.00
    3  -15   17      0.01      0.00
    4  -15   17     -0.19      0.00
   -4  -14   17      0.10      0.00
   -3  -14   17     -0.11      0.00
   -2  -14   17      0.05      0.00
   -1  -14   17     -0.14      0.00
    0  -14   17     -0.09      0.00
    1  -14   17     -0.42      0.00
    2  -14   17      0.33      0.00
    3  -14   17      0.04      0.00
    5  -14   17     -0.11      0.00
    6  -14   17      0.54      0.00
   -6  -13   17     -0.34      0.00
   -4  -13   17      0.07      0.00
   -3  -13   17     -0.18      0.00
   -2  -13   17     -0.07      0.00
   -1  -13   17      0.06      0.00
    0  -13   17      0.14      0.00
    1  -13   17     -0.02      0.00
    2  -13   17      0.02      0.00
    3  -13   17      0.16      0.00
    4  -13   17     -0.09      0.00
    5  -13   17     -0.36      0.00
    6  -13   17      0.02      0.00
    7  -13   17     -0.04      0.00
   -7  -12   17      0.10      0.00
   -6  -12   17     -0.10      0.00
   -5  -12   17      0.13      0.00
   -4  -12   17     -0.21      0.00
   -3  -12   17      0.14      0.00
   -2  -12   17      0.04      0.00
   -1  -12   17      0.14      0.00
    0  -12   17      0.10      0.00
    1  -12   17     -0.13      0.00
    2  -12   17      0.19      0.00
    3  -12   17     -0.28      0.00
    4  -12   17      0.15      0.00
    5  -12   17     -0.01      0.00
    6  -12   17      0.32      0.00
    7  -12   17     -0.27      0.00
    8  -12   17      0.16      0.00
   -8  -11   17      0.24      0.00
   -7  -11   17      0.02      0.00
   -6  -11   17     -0.14      0.00
   -5  -11   17      0.11      0.00
   -4  -11   17      0.20      0.00
   -3  -11   17     -0.25      0.00
   -2  -11   17      0.01      0.00
   -1  -11   17     -0.01      0.00
    0  -11   17     -0.25      0.00
    1  -11   17      0.18      0.00
    2  -11   17     -0.08      0.00
    3  -11   17      0.34      0.00
    4  -11   17      0.05      0.00
    5  -11   17     -0.05      0.00
    6  -11   17      0.14      0.00
    7  -11   17     -0.10      0.00
    8  -11   17     -0.13      0.00
   -9  -10   17     -0.02      0.00
   -8  -10   17     -0.21      0.00
   -7  -10   17      0.08      0.00
   -6  -10   17     -0.27      0.00
   -5  -10   17      0.08      0.00
   -4  -10   17      0.05      0.00
   -3  -10   17     -0.39      0.00
   -2  -10   17      0.06      0.00
   -1  -10   17      0.16      0.00
    0  -10   17     -0.13      0.00
    1  -10   17     -0.19      0.00
    2  -10   17     -0.03      0.00
    3  -10   17     -0.14      0.00
    4  -10   17     -0.42      0.00
    5  -10   17      0.09      0.00
    6  -10   17     -0.29      0.00
    7  -10   17      0.00      0.00
    8  -10   17      0.05      0.00
  -10   -9   17     -0.28      0.00
   -8   -9   17      0.13      0.00
   -7   -9   17      0.22      0.00
   -6   -9   17     -0.07      0.00
   -5   -9   17      0.26      0.00
   -4   -9   17     -0.22      0.00
   -3   -9   17      0.37      0.00
   -2   -9   17     -0.13      0.00
   -1   -9   17     -0.22      0.00
    0   -9   17      0.21      0.00
    1   -9   17     -0.02      0.00
    2   -9   17     -0.11      0.00
    3   -9   17      0.26      0.00
    4   -9   17      0.05      0.00
    5   -9   17     -0.03      0.00
    6   -9   17      0.56      0.00
    7   -9   17     -0.07      0.00
    8   -9   17      0.31      0.00
  -11   -8   17      0.18      0.00
  -10   -8   17     -0.39      0.00
   -9   -8   17      0.16      0.00
   -8   -8   17      0.00      0.00
   -7   -8   17     -0.26      0.00
   -6   -8   17     -0.17      0.00
   -5   -8   17      0.26      0.00
   -4   -8   17      0.04      0.00
   -3   -8   17      0.02      0.00
   -2   -8   17      0.25      0.00
   -1   -8   17     -0.06      0.00
    0   -8   17     -0.04      0.00
    1   -8   17     -0.12      0.00
    2   -8   17     -0.27      0.00
    3   -8   17     -0.11      0.00
    4   -8   17      0.10      0.00
    5   -8   17     -0.39      0.00
    6   -8   17     -0.12      0.00
    7   -8   17     -0.11      0.00
    8   -8   17      0.09      0.00
  -11   -7   17     -0.07      0.00
  -10   -7   17     -0.06      0.00
   -9   -7   17      0.03      0.00
   -5   -7   17     -0.13      0.00
   -4   -7   17      0.26      0.00
   -3   -7   17     -0.05      0.00
   -2   -7   17     -0.05      0.00
   -1   -7   17      0.05      0.00
    0   -7   17      0.22      0.00
    1   -7   17     -0.25      0.00
    2   -7   17      0.98      0.00
    3   -7   17     -0.66      0.00
    4   -7   17      0.43      0.00
    5   -7   17      0.09      0.00
    6   -7   17     -0.21      0.00
    7   -7   17      0.12      0.00
    8   -7   17     -0.05      0.00
  -12   -6   17      0.25      0.00
  -11   -6   17     -0.18      0.00
  -10   -6   17      0.42      0.00
   -9   -6   17     -0.20      0.00
   -8   -6   17      0.17      0.00
   -7   -6   17     -0.33      0.00
   -5   -6   17     -0.27      0.00
   -4   -6   17     -0.19      0.00
   -3   -6   17     -0.01      0.00
   -2   -6   17      0.03      0.00
   -1   -6   17      0.22      0.00
    0   -6   17      0.28      0.00
    1   -6   17     -0.33      0.00
    2   -6   17      0.31      0.00
    3   -6   17      0.04      0.00
    4   -6   17     -0.38      0.00
    5   -6   17      0.48      0.00
    6   -6   17     -0.46      0.00
    7   -6   17      0.25      0.00
    8   -6   17     -0.40      0.00
  -12   -5   17      0.30      0.00
  -11   -5   17     -0.24      0.00
  -10   -5   17      0.06      0.00
   -9   -5   17     -0.23      0.00
   -8   -5   17     -0.07      0.00
   -7   -5   17      0.50      0.00
   -6   -5   17     -0.45      0.00
   -5   -5   17      0.48      0.00
   -4   -5   17     -0.13      0.00
   -3   -5   17     -0.20      0.00
   -2   -5   17     -0.10      0.00
   -1   -5   17      0.09      0.00
    0   -5   17     -0.12      0.00
    1   -5   17     -0.08      0.00
    2   -5   17      0.06      0.00
    3   -5   17      0.16      0.00
    4   -5   17      0.09      0.00
    5   -5   17     -0.21      0.00
    6   -5   17     -0.11      0.00
    7   -5   17      0.27      0.00
    8   -5   17     -0.02      0.00
  -13   -4   17     -0.09      0.00
  -12   -4   17     -0.38      0.00
  -11   -4   17     -0.13      0.00
  -10   -4   17      0.34      0.00
   -9   -4   17      0.01      0.00
   -8   -4   17     -0.51      0.00
   -7   -4   17      0.45      0.00
   -6   -4   17     -0.35      0.00
   -5   -4   17      0.29      0.00
   -4   -4   17     -0.03      0.00
   -3   -4   17      0.11      0.00
   -2   -4   17      0.02      0.00
   -1   -4   17     -0.21      0.00
    0   -4   17      0.12      0.00
    1   -4   17     -0.05      0.00
    2   -4   17     -0.33      0.00
    3   -4   17     -0.13      0.00
    4   -4   17     -0.07      0.00
    5   -4   17      0.38      0.00
    6   -4   17      0.09      0.00
    7   -4   17      0.06      0.00
  -13   -3   17      0.06      0.00
  -12   -3   17     -0.08      0.00
  -11   -3   17      0.42      0.00
  -10   -3   17     -0.57      0.00
   -9   -3   17      0.39      0.00
   -8   -3   17      0.07      0.00
   -7   -3   17      0.02      0.00
   -6   -3   17     -0.03      0.00
   -5   -3   17      0.17      0.00
   -4   -3   17     -0.09      0.00
   -3   -3   17     -0.27      0.00
   -2   -3   17      0.28      0.00
    0   -3   17      0.09      0.00
    1   -3   17      0.15      0.00
    2   -3   17      0.05      0.00
    3   -3   17      0.41      0.00
    4   -3   17     -0.05      0.00
    5   -3   17      0.11      0.00
    6   -3   17     -0.05      0.00
    7   -3   17     -0.11      0.00
  -13   -2   17      0.16      0.00
  -12   -2   17      0.07      0.00
  -11   -2   17     -0.14      0.00
  -10   -2   17      0.21      0.00
   -9   -2   17      0.10      0.00
   -8   -2   17     -0.01      0.00
   -7   -2   17      0.14      0.00
   -6   -2   17     -0.23      0.00
   -5   -2   17      0.18      0.00
   -4   -2   17      0.25      0.00
   -3   -2   17     -0.22      0.00
   -2   -2   17      0.07      0.00
   -1   -2   17     -0.10      0.00
    0   -2   17     -0.08      0.00
    1   -2   17      0.00      0.00
    2   -2   17     -0.18      0.00
    3   -2   17     -0.03      0.00
    4   -2   17     -0.18      0.00
    5   -2   17     -0.09      0.00
    6   -2   17     -0.01      0.00
  -13   -1   17      0.09      0.00
  -12   -1   17     -0.01      0.00
  -11   -1   17     -0.16      0.00
  -10   -1   17     -0.07      0.00
   -9   -1   17     -0.23      0.00
   -8   -1   17     -0.01      0.00
   -7   -1   17      0.00      0.00
   -6   -1   17     -0.18      0.00
   -5   -1   17     -0.09      0.00
   -4   -1   17     -0.19      0.00
   -3   -1   17      0.05      0.00
   -2   -1   17      0.36      0.00
   -1   -1   17     -0.10      0.00
    0   -1   17      0.15      0.00
    1   -1   17      0.01      0.00
    2   -1   17      0.02      0.00
    3   -1   17     -0.17      0.00
    4   -1   17      0.06      0.00
    5   -1   17      0.00      0.00
  -13    0   17     -0.18      0.00
  -12    0   17      0.02      0.00
  -11    0   17     -0.04      0.00
  -10    0   17     -0.15      0.00
   -9    0   17      0.08      0.00
   -8    0   17      0.15      0.00
   -7    0   17     -0.29      0.00
   -6    0   17      0.37      0.00
   -5    0   17      0.04      0.00
   -4    0   17     -0.03      0.00
   -3    0   17      0.33      0.00
   -2    0   17     -0.25      0.00
   -1    0   17      0.07      0.00
    0    0   17     -0.12      0.00
    1    0   17      0.05      0.00
    2    0   17     -0.15      0.00
    3    0   17      0.08      0.00
    4    0   17     -0.02      0.00
  -13    1   17      0.02      0.00
  -12    1   17      0.35      0.00
  -11    1   17      0.54      0.00
  -10    1   17     -0.32      0.00
   -9    1   17      0.23      0.00
   -8    1   17      0.06      0.00
   -7    1   17     -0.26      0.00
   -6    1   17      0.02      0.00
   -5    1   17      0.23      0.00
   -4    1   17     -0.98      0.00
   -3    1   17      0.65      0.00
   -2    1   17     -0.65      0.00
   -1    1   17      0.53      0.00
    0    1   17     -0.27      0.00
    1    1   17      0.12      0.00
    2    1   17      0.18      0.00
    3    1   17     -0.16      0.00
  -12    2   17     -0.42      0.00
  -11    2   17      0.15      0.00
  -10    2   17     -0.44      0.00
   -9    2   17      0.34      0.00
   -8    2   17     -0.16      0.00
   -7    2   17     -0.17      0.00
   -6    2   17      0.10      0.00
   -5    2   17      0.29      0.00
   -4    2   17     -0.08      0.00
   -3    2   17     -0.02      0.00
   -2    2   17      0.08      0.00
   -1    2   17     -0.16      0.00
    0    2   17      0.07      0.00
    1    2   17     -0.20      0.00
    2    2   17      0.24      0.00
  -12    3   17      0.17      0.00
  -11    3   17     -0.02      0.00
  -10    3   17      0.06      0.00
   -9    3   17      0.08      0.00
   -8    3   17      0.16      0.00
   -7    3   17     -0.02      0.00
   -6    3   17      0.12      0.00
   -5    3   17      0.03      0.00
   -4    3   17      0.20      0.00
   -3    3   17     -0.13      0.00
   -2    3   17      0.11      0.00
   -1    3   17     -0.05      0.00
    0    3   17      0.26      0.00
    1    3   17      0.15      0.00
  -11    4   17      0.06      0.00
  -10    4   17     -0.22      0.00
   -9    4   17      0.16      0.00
   -8    4   17      0.22      0.00
   -7    4   17     -0.21      0.00
   -6    4   17     -0.09      0.00
   -5    4   17     -0.13      0.00
   -4    4   17      0.06      0.00
   -3    4   17      0.01      0.00
   -2    4   17      0.23      0.00
   -1    4   17     -0.20      0.00
   -9    5   17     -0.01      0.00
   -8    5   17     -0.03      0.00
   -7    5   17     -0.04      0.00
   -6    5   17      0.07      0.00
   -5    5   17      0.23      0.00
   -4    5   17     -0.07      0.00
   -3    5   17     -0.10      0.00
   -2  -14   18     -0.04      0.00
   -1  -14   18     -0.14      0.00
    0  -14   18     -0.03      0.00
    1  -14   18     -0.08      0.00
    2  -14   18     -0.34      0.00
    3  -14   18     -0.09      0.00
    4  -14   18      0.01      0.00
   -5  -13   18      0.03      0.00
   -4  -13   18      0.16      0.00
   -3  -13   18      0.15      0.00
   -2  -13   18     -0.16      0.00
   -1  -13   18      0.13      0.00
    0  -13   18      0.09      0.00
    1  -13   18      0.01      0.00
    2  -13   18      0.07      0.00
    3  -13   18     -0.04      0.00
    4  -13   18      0.06      0.00
    5  -13   18      0.29      0.00
    6  -13   18      0.05      0.00
   -6  -12   18      0.03      0.00
   -5  -12   18     -0.01      0.00
   -4  -12   18      0.14      0.00
   -3  -12   18     -0.08      0.00
   -2  -12   18     -0.03      0.00
   -1  -12   18      0.24      0.00
    0  -12   18     -0.15      0.00
    1  -12   18      0.30      0.00
    2  -12   18     -0.01      0.00
    3  -12   18      0.43      0.00
    4  -12   18     -0.06      0.00
    5  -12   18      0.14      0.00
    6  -12   18      0.03      0.00
   -7  -11   18     -0.02      0.00
   -6  -11   18     -0.12      0.00
   -5  -11   18     -0.08      0.00
   -4  -11   18      0.07      0.00
   -3  -11   18     -0.25      0.00
   -2  -11   18     -0.03      0.00
   -1  -11   18     -0.12      0.00
    0  -11   18     -0.03      0.00
    1  -11   18     -0.28      0.00
    2  -11   18      0.06      0.00
    3  -11   18     -0.52      0.00
    4  -11   18      0.11      0.00
    5  -11   18     -0.34      0.00
    6  -11   18     -0.23      0.00
    7  -11   18      0.17      0.00
   -8  -10   18      0.21      0.00
   -7  -10   18      0.03      0.00
   -6  -10   18      0.13      0.00
   -5  -10   18     -0.06      0.00
   -4  -10   18      0.21      0.00
   -3  -10   18      0.08      0.00
   -2  -10   18      0.28      0.00
   -1  -10   18     -0.27      0.00
    0  -10   18      0.62      0.00
    1  -10   18     -0.07      0.00
    2  -10   18      0.12      0.00
    3  -10   18      0.08      0.00
    4  -10   18      0.31      0.00
    5  -10   18     -0.18      0.00
    6  -10   18      0.37      0.00
    7  -10   18     -0.09      0.00
   -9   -9   18      0.08      0.00
   -8   -9   18     -0.10      0.00
   -7   -9   18     -0.15      0.00
   -6   -9   18     -0.21      0.00
   -5   -9   18     -0.05      0.00
   -4   -9   18     -0.02      0.00
   -3   -9   18     -0.12      0.00
   -2   -9   18      0.28      0.00
   -1   -9   18     -0.38      0.00
    0   -9   18     -0.14      0.00
    1   -9   18     -0.08      0.00
    2   -9   18     -0.68      0.00
    3   -9   18      0.17      0.00
    4   -9   18     -0.35      0.00
    5   -9   18      0.04      0.00
    6   -9   18     -0.16      0.00
    7   -9   18     -0.02      0.00
   -9   -8   18      0.28      0.00
   -4   -8   18      0.22      0.00
   -3   -8   18      0.02      0.00
   -2   -8   18      0.06      0.00
   -1   -8   18     -0.07      0.00
    0   -8   18     -0.01      0.00
    1   -8   18      0.26      0.00
    2   -8   18      0.16      0.00
    3   -8   18      0.08      0.00
    4   -8   18      0.22      0.00
    5   -8   18     -0.05      0.00
    6   -8   18      0.40      0.00
    7   -8   18     -0.26      0.00
  -11   -7   18     -0.16      0.00
  -10   -7   18     -0.16      0.00
   -5   -7   18     -0.38      0.00
   -4   -7   18     -0.03      0.00
   -3   -7   18     -0.25      0.00
   -2   -7   18     -0.03      0.00
   -1   -7   18      0.23      0.00
    0   -7   18      0.29      0.00
    1   -7   18      0.04      0.00
    2   -7   18     -0.16      0.00
    3   -7   18      0.45      0.00
    4   -7   18     -0.57      0.00
    5   -7   18      0.22      0.00
    6   -7   18     -0.20      0.00
    7   -7   18     -0.12      0.00
  -11   -6   18     -0.22      0.00
  -10   -6   18      0.27      0.00
   -9   -6   18     -0.42      0.00
   -8   -6   18      0.26      0.00
   -5   -6   18     -0.04      0.00
   -4   -6   18      0.14      0.00
   -3   -6   18     -0.16      0.00
   -2   -6   18      0.11      0.00
   -1   -6   18     -0.33      0.00
    0   -6   18      0.14      0.00
    1   -6   18      0.03      0.00
    2   -6   18     -0.19      0.00
    3   -6   18      0.36      0.00
    4   -6   18     -0.11      0.00
    5   -6   18     -0.03      0.00
    6   -6   18     -0.13      0.00
    7   -6   18     -0.01      0.00
  -11   -5   18     -0.21      0.00
  -10   -5   18      0.71      0.00
   -9   -5   18     -0.29      0.00
   -8   -5   18     -0.01      0.00
   -7   -5   18      0.02      0.00
   -5   -5   18      0.13      0.00
   -4   -5   18     -0.14      0.00
   -3   -5   18      0.32      0.00
   -2   -5   18      0.07      0.00
    0   -5   18      0.33      0.00
    1   -5   18     -0.03      0.00
    2   -5   18     -0.36      0.00
    3   -5   18      0.14      0.00
    4   -5   18     -0.44      0.00
    5   -5   18      0.89      0.00
    6   -5   18     -0.30      0.00
  -12   -4   18      0.13      0.00
  -11   -4   18      0.29      0.00
  -10   -4   18     -0.75      0.00
   -9   -4   18      0.40      0.00
   -8   -4   18     -0.08      0.00
   -7   -4   18      0.20      0.00
   -6   -4   18     -0.35      0.00
   -5   -4   18      0.41      0.00
   -4   -4   18     -0.41      0.00
   -3   -4   18      0.17      0.00
   -2   -4   18      0.22      0.00
   -1   -4   18     -0.11      0.00
    0   -4   18     -0.03      0.00
    1   -4   18     -0.05      0.00
    2   -4   18      0.26      0.00
    3   -4   18      0.20      0.00
    4   -4   18     -0.24      0.00
    5   -4   18      0.35      0.00
    6   -4   18     -0.10      0.00
  -12   -3   18     -0.36      0.00
  -11   -3   18      0.13      0.00
  -10   -3   18      0.16      0.00
   -9   -3   18     -0.01      0.00
   -8   -3   18     -0.43      0.00
   -7   -3   18      0.45      0.00
   -6   -3   18     -0.25      0.00
   -5   -3   18      0.18      0.00
   -4   -3   18      0.01      0.00
   -3   -3   18     -0.12      0.00
   -2   -3   18     -0.11      0.00
   -1   -3   18     -0.01      0.00
    0   -3   18     -0.21      0.00
    1   -3   18     -0.07      0.00
    2   -3   18      0.03      0.00
    3   -3   18     -0.23      0.00
    4   -3   18      0.02      0.00
    5   -3   18     -0.27      0.00
  -12   -2   18      0.14      0.00
  -11   -2   18     -0.48      0.00
  -10   -2   18      0.48      0.00
   -9   -2   18     -0.44      0.00
   -8   -2   18      0.04      0.00
   -7   -2   18      0.10      0.00
   -6   -2   18      0.12      0.00
   -5   -2   18     -0.42      0.00
   -4   -2   18     -0.01      0.00
   -3   -2   18      0.02      0.00
   -2   -2   18      0.11      0.00
   -1   -2   18      0.27      0.00
    0   -2   18      0.19      0.00
    1   -2   18      0.02      0.00
    2   -2   18      0.21      0.00
    3   -2   18     -0.40      0.00
    4   -2   18      0.33      0.00
    5   -2   18     -0.09      0.00
  -12   -1   18      0.05      0.00
  -11   -1   18     -0.07      0.00
  -10   -1   18      0.21      0.00
   -9   -1   18      0.14      0.00
   -8   -1   18      0.10      0.00
   -7   -1   18     -0.14      0.00
   -6   -1   18      0.37      0.00
   -5   -1   18      0.05      0.00
   -4   -1   18      0.31      0.00
   -3   -1   18     -0.06      0.00
   -2   -1   18      0.05      0.00
   -1   -1   18     -0.31      0.00
    0   -1   18     -0.20      0.00
    1   -1   18     -0.07      0.00
    2   -1   18     -0.07      0.00
    3   -1   18     -0.03      0.00
    4   -1   18      0.13      0.00
  -12    0   18     -0.20      0.00
  -11    0   18      0.55      0.00
  -10    0   18     -0.21      0.00
   -9    0   18      0.21      0.00
   -8    0   18     -0.19      0.00
   -7    0   18     -0.36      0.00
   -6    0   18      0.04      0.00
   -5    0   18     -0.13      0.00
   -4    0   18     -0.50      0.00
   -3    0   18      0.06      0.00
   -2    0   18     -0.10      0.00
   -1    0   18      0.09      0.00
    0    0   18      0.09      0.00
    1    0   18      0.17      0.00
    2    0   18      0.00      0.00
    3    0   18     -0.20      0.00
  -12    1   18     -0.28      0.00
  -11    1   18     -0.11      0.00
  -10    1   18     -0.20      0.00
   -9    1   18      0.22      0.00
   -8    1   18     -0.14      0.00
   -7    1   18      0.20      0.00
   -6    1   18     -0.04      0.00
   -5    1   18      0.14      0.00
   -4    1   18      0.14      0.00
   -3    1   18      0.02      0.00
   -2    1   18      0.19      0.00
   -1    1   18     -0.39      0.00
    0    1   18      0.16      0.00
    1    1   18     -0.10      0.00
    2    1   18      0.14      0.00
  -11    2   18      0.09      0.00
  -10    2   18     -0.34      0.00
   -9    2   18      0.26      0.00
   -8    2   18     -0.20      0.00
   -7    2   18      0.32      0.00
   -6    2   18     -0.07      0.00
   -5    2   18      0.09      0.00
   -4    2   18     -0.01      0.00
   -3    2   18      0.12      0.00
   -2    2   18      0.17      0.00
   -1    2   18     -0.12      0.00
    0    2   18      0.07      0.00
  -10    3   18      0.20      0.00
   -9    3   18     -0.09      0.00
   -8    3   18      0.05      0.00
   -7    3   18     -0.11      0.00
   -6    3   18      0.27      0.00
   -5    3   18     -0.33      0.00
   -4    3   18      0.02      0.00
   -3    3   18     -0.03      0.00
   -2    3   18      0.27      0.00
   -8    4   18     -0.31      0.00
   -7    4   18     -0.23      0.00
   -6    4   18      0.50      0.00
   -5    4   18     -0.08      0.00
   -4    4   18     -0.14      0.00
   -3  -13   19     -0.13      0.00
   -2  -13   19      0.20      0.00
   -1  -13   19     -0.11      0.00
    0  -13   19     -0.01      0.00
    1  -13   19      0.11      0.00
    2  -13   19      0.08      0.00
    3  -13   19      0.53      0.00
    4  -13   19     -0.35      0.00
   -5  -12   19     -0.10      0.00
   -4  -12   19      0.14      0.00
   -3  -12   19     -0.11      0.00
   -2  -12   19     -0.10      0.00
   -1  -12   19     -0.02      0.00
    0  -12   19     -0.03      0.00
    1  -12   19      0.19      0.00
    2  -12   19     -0.33      0.00
    3  -12   19      0.11      0.00
    4  -12   19      0.02      0.00
    5  -12   19     -0.22      0.00
   -6  -11   19     -0.01      0.00
   -5  -11   19     -0.08      0.00
   -4  -11   19      0.03      0.00
   -3  -11   19      0.06      0.00
   -2  -11   19      0.34      0.00
   -1  -11   19     -0.07      0.00
    0  -11   19      0.36      0.00
    1  -11   19      0.03      0.00
    2  -11   19      0.02      0.00
    3  -11   19      0.06      0.00
    4  -11   19      0.13      0.00
    5  -11   19     -0.21      0.00
   -7  -10   19     -0.14      0.00
   -6  -10   19      0.07      0.00
   -5  -10   19     -0.08      0.00
   -4  -10   19     -0.13      0.00
   -3  -10   19     -0.16      0.00
   -2  -10   19      0.33      0.00
   -1  -10   19     -0.56      0.00
    0  -10   19      0.03      0.00
    1  -10   19     -0.25      0.00
    2  -10   19     -0.31      0.00
    3  -10   19      0.01      0.00
    4  -10   19     -0.29      0.00
    5  -10   19      0.13      0.00
    6  -10   19     -0.12      0.00
   -8   -9   19     -0.02      0.00
   -7   -9   19      0.13      0.00
   -4   -9   19      0.02      0.00
   -3   -9   19      0.04      0.00
   -2   -9   19      0.00      0.00
   -1   -9   19     -0.11      0.00
    0   -9   19      0.20      0.00
    1   -9   19     -0.04      0.00
    2   -9   19      0.27      0.00
    3   -9   19      0.11      0.00
    4   -9   19      0.09      0.00
    5   -9   19     -0.10      0.00
    6   -9   19      0.33      0.00
   -5   -8   19     -0.18      0.00
   -4   -8   19      0.02      0.00
   -3   -8   19      0.02      0.00
   -2   -8   19     -0.28      0.00
   -1   -8   19      0.27      0.00
    0   -8   19      0.21      0.00
    1   -8   19     -0.29      0.00
    2   -8   19      0.10      0.00
    3   -8   19     -0.08      0.00
    4   -8   19     -0.14      0.00
    5   -8   19     -0.03      0.00
    6   -8   19     -0.23      0.00
   -5   -7   19     -0.27      0.00
   -4   -7   19     -0.06      0.00
   -3   -7   19      0.32      0.00
   -2   -7   19     -0.16      0.00
   -1   -7   19     -0.04      0.00
    0   -7   19     -0.09      0.00
    1   -7   19      0.07      0.00
    2   -7   19      0.19      0.00
    3   -7   19     -0.02      0.00
    4   -7   19      0.21      0.00
    5   -7   19     -0.06      0.00
    6   -7   19     -0.12      0.00
  -10   -6   19      0.35      0.00
   -9   -6   19     -0.04      0.00
   -7   -6   19     -0.20      0.00
   -5   -6   19      0.01      0.00
   -4   -6   19     -0.23      0.00
   -3   -6   19      0.26      0.00
   -2   -6   19     -0.20      0.00
    0   -6   19     -0.02      0.00
    1   -6   19      0.01      0.00
    2   -6   19     -0.08      0.00
    3   -6   19      0.01      0.00
    4   -6   19     -0.09      0.00
    5   -6   19      0.54      0.00
  -11   -5   19      0.02      0.00
  -10   -5   19     -0.33      0.00
   -9   -5   19      0.28      0.00
   -8   -5   19      0.15      0.00
   -7   -5   19      0.03      0.00
   -5   -5   19      0.11      0.00
   -3   -5   19     -0.12      0.00
   -2   -5   19      0.17      0.00
   -1   -5   19      0.34      0.00
    0   -5   19     -0.24      0.00
    1   -5   19      0.04      0.00
    2   -5   19      0.13      0.00
    3   -5   19     -0.04      0.00
    4   -5   19     -0.02      0.00
    5   -5   19     -0.21      0.00
  -11   -4   19     -0.29      0.00
  -10   -4   19      0.35      0.00
   -9   -4   19     -0.09      0.00
   -8   -4   19     -0.98      0.00
   -7   -4   19      0.33      0.00
   -5   -4   19     -0.02      0.00
   -4   -4   19      0.15      0.00
   -3   -4   19     -0.01      0.00
   -2   -4   19     -0.11      0.00
   -1   -4   19     -0.19      0.00
    0   -4   19      0.05      0.00
    1   -4   19     -0.16      0.00
    2   -4   19     -0.29      0.00
    3   -4   19      0.07      0.00
    4   -4   19      0.03      0.00
  -11   -3   19     -0.52      0.00
  -10   -3   19      0.19      0.00
   -9   -3   19      0.36      0.00
   -8   -3   19     -0.34      0.00
   -7   -3   19      0.62      0.00
   -6   -3   19     -0.02      0.00
   -5   -3   19     -0.09      0.00
   -4   -3   19      0.22      0.00
   -3   -3   19     -0.10      0.00
   -2   -3   19      0.08      0.00
   -1   -3   19      0.11      0.00
    0   -3   19      0.42      0.00
    1   -3   19      0.21      0.00
    2   -3   19     -0.05      0.00
    3   -3   19      0.01      0.00
    4   -3   19      0.13      0.00
  -11   -2   19     -0.06      0.00
  -10   -2   19     -0.10      0.00
   -9   -2   19      0.65      0.00
   -8   -2   19     -0.27      0.00
   -7   -2   19      0.11      0.00
   -6   -2   19      0.11      0.00
   -5   -2   19     -0.03      0.00
   -4   -2   19      0.16      0.00
   -3   -2   19     -0.13      0.00
   -2   -2   19      0.35      0.00
   -1   -2   19     -0.76      0.00
    0   -2   19     -0.04      0.00
    1   -2   19     -0.23      0.00
    2   -2   19     -0.02      0.00
    3   -2   19      0.06      0.00
  -11   -1   19      0.14      0.00
  -10   -1   19     -0.10      0.00
   -9   -1   19      0.33      0.00
   -8   -1   19     -0.21      0.00
   -7   -1   19     -0.23      0.00
   -6   -1   19      0.21      0.00
   -5   -1   19     -0.22      0.00
   -4   -1   19     -0.45      0.00
   -3   -1   19      0.32      0.00
   -2   -1   19     -0.48      0.00
   -1   -1   19      0.32      0.00
    0   -1   19     -0.03      0.00
    1   -1   19      0.16      0.00
    2   -1   19     -0.09      0.00
  -10    0   19     -0.02      0.00
   -9    0   19     -0.27      0.00
   -8    0   19      0.18      0.00
   -7    0   19     -0.05      0.00
   -6    0   19      0.04      0.00
   -5    0   19      0.14      0.00
   -4    0   19     -0.08      0.00
   -3    0   19      0.36      0.00
   -2    0   19     -0.16      0.00
   -1    0   19      0.17      0.00
    1    0   19     -0.16      0.00
  -10    1   19     -0.10      0.00
   -9    1   19      0.13      0.00
   -8    1   19     -0.16      0.00
   -7    1   19      0.00      0.00
   -6    1   19      0.16      0.00
   -5    1   19     -0.10      0.00
   -4    1   19     -0.01      0.00
   -3    1   19     -0.02      0.00
   -2    1   19      0.23      0.00
   -1    1   19     -0.08      0.00
   -9    2   19      0.20      0.00
   -8    2   19     -0.31      0.00
   -7    2   19      0.03      0.00
   -6    2   19      0.20      0.00
   -5    2   19     -0.04      0.00
   -4    2   19      0.31      0.00
   -3    2   19     -0.11      0.00
   -3  -12   20      0.13      0.00
   -2  -12   20      0.12      0.00
   -1  -12   20      0.18      0.00
    0  -12   20      0.01      0.00
    1  -12   20      0.01      0.00
    2  -12   20     -0.03      0.00
   -5  -11   20     -0.01      0.00
   -4  -11   20     -0.09      0.00
   -3  -11   20     -0.04      0.00
   -2  -11   20     -0.05      0.00
   -1  -11   20     -0.35      0.00
    0  -11   20      0.11      0.00
    1  -11   20     -0.21      0.00
    2  -11   20     -0.03      0.00
    3  -11   20     -0.03      0.00
   -6  -10   20      0.05      0.00
   -4  -10   20      0.12      0.00
   -3  -10   20      0.11      0.00
   -2  -10   20     -0.18      0.00
   -1  -10   20      0.08      0.00
    0  -10   20      0.23      0.00
    1  -10   20      0.04      0.00
    2  -10   20      0.02      0.00
    3  -10   20      0.28      0.00
    4  -10   20      0.02      0.00
   -4   -9   20      0.07      0.00
   -3   -9   20      0.20      0.00
   -2   -9   20     -0.37      0.00
   -1   -9   20      0.20      0.00
    0   -9   20     -0.06      0.00
    1   -9   20     -0.17      0.00
    2   -9   20     -0.36      0.00
    3   -9   20     -0.22      0.00
    4   -9   20      0.03      0.00
   -5   -8   20     -0.28      0.00
   -4   -8   20     -0.10      0.00
   -3   -8   20      0.47      0.00
   -2   -8   20     -0.10      0.00
   -1   -8   20     -0.06      0.00
    0   -8   20      0.03      0.00
    1   -8   20      0.00      0.00
    2   -8   20      0.29      0.00
    3   -8   20      0.06      0.00
    4   -8   20      0.14      0.00
   -5   -7   20      0.14      0.00
   -4   -7   20     -0.17      0.00
   -3   -7   20     -0.10      0.00
   -2   -7   20     -0.06      0.00
   -1   -7   20     -0.30      0.00
    0   -7   20      0.48      0.00
    1   -7   20     -0.40      0.00
    2   -7   20      0.19      0.00
    3   -7   20     -0.03      0.00
    4   -7   20      0.02      0.00
   -9   -6   20      0.48      0.00
   -7   -6   20      0.70      0.00
   -5   -6   20      0.44      0.00
   -4   -6   20     -0.23      0.00
   -3   -6   20     -0.09      0.00
   -2   -6   20      0.03      0.00
   -1   -6   20      0.10      0.00
    0   -6   20     -0.03      0.00
    1   -6   20      0.14      0.00
    2   -6   20      0.05      0.00
    3   -6   20     -0.06      0.00
    4   -6   20     -0.14      0.00
   -9   -5   20      0.59      0.00
   -8   -5   20     -1.78      0.00
   -7   -5   20      1.17      0.00
   -5   -5   20      0.32      0.00
   -4   -5   20     -0.19      0.00
   -3   -5   20      0.57      0.00
   -2   -5   20     -0.23      0.00
   -1   -5   20     -0.02      0.00
    0   -5   20      0.11      0.00
    1   -5   20     -0.33      0.00
    2   -5   20     -0.04      0.00
    3   -5   20     -0.26      0.00
  -10   -4   20     -0.23      0.00
   -9   -4   20      0.43      0.00
   -8   -4   20     -0.30      0.00
   -7   -4   20      0.84      0.00
   -5   -4   20      0.36      0.00
   -4   -4   20      0.17      0.00
   -3   -4   20     -0.08      0.00
   -2   -4   20     -0.12      0.00
   -1   -4   20      0.38      0.00
    0   -4   20     -0.24      0.00
    1   -4   20      0.53      0.00
    2   -4   20      0.05      0.00
    3   -4   20     -0.06      0.00
  -10   -3   20      0.21      0.00
   -9   -3   20      0.06      0.00
   -8   -3   20     -0.01      0.00
   -7   -3   20      0.19      0.00
   -5   -3   20     -0.22      0.00
   -4   -3   20      0.00      0.00
   -3   -3   20     -0.24      0.00
   -2   -3   20      0.35      0.00
   -1   -3   20     -0.35      0.00
    0   -3   20     -0.28      0.00
    1   -3   20     -0.01      0.00
    2   -3   20     -0.08      0.00
   -9   -2   20     -0.05      0.00
   -8   -2   20     -0.05      0.00
   -7   -2   20     -0.01      0.00
   -6   -2   20      0.18      0.00
   -5   -2   20     -0.21      0.00
   -4   -2   20      0.19      0.00
   -3   -2   20     -0.15      0.00
   -2   -2   20     -0.30      0.00
   -1   -2   20      0.37      0.00
    0   -2   20     -0.16      0.00
    1   -2   20      0.19      0.00
   -9   -1   20     -0.23      0.00
   -8   -1   20      0.31      0.00
   -7   -1   20      0.01      0.00
   -6   -1   20     -0.09      0.00
   -5   -1   20      0.17      0.00
   -4   -1   20      0.13      0.00
   -3   -1   20      0.06      0.00
   -2   -1   20     -0.09      0.00
   -1   -1   20      0.14      0.00
    0   -1   20     -0.17      0.00
   -8    0   20     -0.48      0.00
   -7    0   20     -0.04      0.00
   -6    0   20     -0.04      0.00
   -5    0   20     -0.16      0.00
   -4    0   20     -0.28      0.00
   -3    0   20      0.39      0.00
   -2    0   20     -0.26      0.00
   -6    1   20     -0.07      0.00
   -5    1   20      0.20      0.00
   -1  -11   21      0.11      0.00
   -4  -10   21     -0.01      0.00
   -3  -10   21     -0.09      0.00
   -2  -10   21      0.01      0.00
   -1  -10   21     -0.25      0.00
    0  -10   21     -0.11      0.00
    1  -10   21     -0.17      0.00
   -5   -9   21      0.00      0.00
   -4   -9   21      0.04      0.00
   -3   -9   21      0.16      0.00
   -2   -9   21      0.21      0.00
   -1   -9   21      0.03      0.00
    0   -9   21     -0.05      0.00
    1   -9   21      0.15      0.00
    2   -9   21      0.30      0.00
   -5   -8   21      0.19      0.00
   -4   -8   21      0.09      0.00
   -3   -8   21     -0.31      0.00
   -2   -8   21     -0.06      0.00
   -1   -8   21     -0.11      0.00
    0   -8   21      0.18      0.00
    1   -8   21     -0.18      0.00
    2   -8   21      0.03      0.00
   -7   -7   21      0.38      0.00
   -5   -7   21     -0.25      0.00
   -4   -7   21      0.10      0.00
   -3   -7   21     -0.17      0.00
   -2   -7   21      0.15      0.00
   -1   -7   21     -0.07      0.00
    0   -7   21     -0.22      0.00
    1   -7   21      0.40      0.00
    2   -7   21     -0.19      0.00
   -7   -6   21      0.74      0.00
   -5   -6   21     -0.19      0.00
   -4   -6   21      0.23      0.00
   -3   -6   21      0.19      0.00
   -2   -6   21      0.00      0.00
   -1   -6   21      0.21      0.00
    0   -6   21     -0.01      0.00
    1   -6   21     -0.29      0.00
   -8   -5   21     -0.15      0.00
   -7   -5   21      0.33      0.00
   -5   -5   21      0.25      0.00
   -4   -5   21      0.09      0.00
   -3   -5   21     -0.08      0.00
   -2   -5   21     -0.34      0.00
   -1   -5   21      0.52      0.00
    0   -5   21     -0.40      0.00
    1   -5   21      0.36      0.00
   -8   -4   21     -0.34      0.00
   -5   -4   21     -0.23      0.00
   -4   -4   21     -0.25      0.00
   -3   -4   21      0.09      0.00
   -2   -4   21     -0.01      0.00
   -1   -4   21     -0.23      0.00
    0   -4   21      0.37      0.00
   -7   -3   21     -0.15      0.00
   -5   -3   21     -0.15      0.00
   -4   -3   21      0.61      0.00
   -3   -3   21     -0.32      0.00
   -2   -3   21      0.01      0.00
   -1   -3   21      0.09      0.00
   -7   -2   21     -0.09      0.00
   -5   -2   21     -0.02      0.00
   -4   -2   21      0.16      0.00
   -3   -2   21     -0.03      0.00
   -2   -2   21      0.11      0.00
    1    0    0     -6.83      0.00
   -1    1    0     -5.08      0.00
    0    1    0     -0.29      0.00
   16    1    0     -0.03      0.00
   -5    2    0     -0.69      0.00
    0    2    0     -0.36      0.00
   15    3    0     -0.25      0.00
   -4    4    0      0.04      0.00
    5    4    0     -0.57      0.00
   -5    5    0     -0.36      0.00
   -5    6    0     -0.75      0.00
   13    6    0     -0.30      0.00
   -6    7    0     -0.20      0.00
   -7    8    0      0.62      0.00
    2    8    0      0.47      0.00
    2    9    0      0.00      0.00
  -11   16    0     -0.20      0.00
    5  -17    1      0.46      0.00
    6  -17    1     -0.59      0.00
    7  -17    1      0.44      0.00
    8  -17    1     -0.29      0.00
   -6  -13    1      0.00      0.00
   -5  -12    1      0.05      0.00
   17  -10    1      0.18      0.00
   -2   -8    1     -0.60      0.00
   -2   -6    1     -0.46      0.00
   -1   -6    1     -0.06      0.00
  -14   -5    1      0.23      0.00
   -2   -5    1      0.84      0.00
   -1   -5    1     -1.10      0.00
   -2   -4    1     -0.30      0.00
   -1   -4    1     -0.85      0.00
   -1   -3    1      0.33      0.00
    2   -3    1     -0.42      0.00
   -1   -2    1     -2.26      0.00
   -1   -1    1     -3.48      0.00
    0   -1    1     10.34      0.00
    1   -1    1     -0.98      0.00
   -1    0    1     -1.23      0.00
    0    0    1     -3.12      0.00
    1    0    1     -0.13      0.00
  -17    1    1      0.47      0.00
   -1    1    1      0.52      0.00
    0    1    1     -0.09      0.00
   14    4    1      0.07      0.00
   -6    5    1      0.36      0.00
   -1    6    1      1.27      0.00
    2    8    1     -0.05      0.00
    2    9    1      0.37      0.00
    2   10    1     -0.11      0.00
    3   14    1     -0.15      0.00
  -13   15    1     -0.32      0.00
    3  -17    2      0.22      0.00
    9  -17    2      0.12      0.00
   12  -16    2      0.15      0.00
   -3  -15    2      0.03      0.00
    0  -15    2      0.26      0.00
   -9  -11    2      0.43      0.00
   17  -10    2     -0.47      0.00
   -6   -9    2      0.07      0.00
  -12   -8    2      0.05      0.00
   -5   -5    2      0.30      0.00
   -2   -5    2     -0.76      0.00
  -15   -4    2      0.27      0.00
   -6   -4    2      0.11      0.00
   -1   -4    2      0.08      0.00
    3   -4    2     -0.99      0.00
   -1   -3    2     -0.36      0.00
    3   -3    2      2.70      0.00
   12   -3    2      0.16      0.00
  -16   -2    2      0.11      0.00
    0   -2    2      4.31      0.00
    0   -1    2     -0.21      0.00
    1   -1    2     -1.83      0.00
    0    0    2      1.90      0.00
   -1    1    2      0.80      0.00
   -1    3    2      0.27      0.00
    8    4    2      0.33      0.00
    3    5    2     -0.25      0.00
   13    5    2     -0.21      0.00
    2    9    2     -0.30      0.00
  -17   10    2     -0.07      0.00
    2   10    2      0.16      0.00
    7   11    2      0.17      0.00
  -16   12    2      0.08      0.00
    4   13    2      0.10      0.00
  -14   14    2     -0.08      0.00
    2   14    2      0.34      0.00
   -9   16    2     -0.16      0.00
   -5   16    2      0.23      0.00
    2  -17    3     -0.09      0.00
   10  -17    3      0.07      0.00
   16  -12    3      0.16      0.00
   17   -9    3     -0.68      0.00
   17   -8    3     -0.49      0.00
   -2   -5    3     -0.59      0.00
   17   -5    3      0.03      0.00
    2   -4    3     -0.66      0.00
   -1   -3    3     -0.54      0.00
    1   -1    3     -0.92      0.00
  -17    0    3      0.02      0.00
   -4    1    3     -1.87      0.00
   -3    1    3      1.92      0.00
   15    1    3      0.11      0.00
   -7    6    3      0.19      0.00
   -4    9    3      0.14      0.00
    2    9    3      0.44      0.00
  -17   10    3      0.08      0.00
    2   10    3      0.11      0.00
    2   11    3     -0.15      0.00
    1   14    3      0.26      0.00
    1  -17    4     -0.15      0.00
   10  -17    4      0.01      0.00
   -2  -16    4     -0.40      0.00
   -4  -15    4     -0.02      0.00
   -2  -13    4      0.09      0.00
   -3   -6    4      0.06      0.00
   -2   -6    4     -0.32      0.00
   -1   -5    4      0.69      0.00
    3   -5    4      0.62      0.00
   -1   -4    4     -0.68      0.00
    1   -3    4     -1.04      0.00
    0   -2    4      0.05      0.00
    1   -2    4     -0.16      0.00
   -1   -1    4      0.29      0.00
    0   -1    4     -0.68      0.00
    1   -1    4      0.70      0.00
   -1    1    4     -1.22      0.00
    6    1    4      0.14      0.00
   -5    2    4      0.21      0.00
   -2    3    4      0.38      0.00
   -7    4    4     -2.29      0.00
   -8    5    4      0.45      0.00
    8    5    4      0.17      0.00
   12    5    4     -0.20      0.00
    0    8    4     -0.02      0.00
    1   10    4     -0.45      0.00
    2   10    4      0.06      0.00
    7   10    4     -0.26      0.00
    2   11    4     -0.21      0.00
    4   12    4      0.07      0.00
  -13   14    4     -0.20      0.00
    0   14    4     -0.07      0.00
  -10   15    4      0.18      0.00
    3  -17    5     -0.03      0.00
   -6  -14    5      0.46      0.00
  -10  -11    5     -0.05      0.00
   16  -11    5      0.25      0.00
  -11  -10    5      0.04      0.00
  -12   -9    5     -0.21      0.00
   -2   -9    5      0.45      0.00
   -8   -8    5      0.18      0.00
   -2   -7    5     -0.78      0.00
   -2   -6    5     -0.33      0.00
   -1   -6    5      0.92      0.00
  -15   -5    5      0.77      0.00
   -1   -5    5     -0.74      0.00
  -16   -3    5      0.16      0.00
   -3   -2    5     -0.10      0.00
    0   -2    5      0.00      0.00
    1   -2    5      0.97      0.00
   -1   -1    5     -0.34      0.00
   -5    0    5     -0.11      0.00
   -3    0    5     -0.18      0.00
   10    3    5      0.04      0.00
   13    3    5     -0.02      0.00
  -17    9    5     -0.38      0.00
   -9    9    5     -0.27      0.00
    1    9    5     -0.58      0.00
    1   10    5      0.53      0.00
    2   10    5     -0.03      0.00
  -16   11    5     -0.54      0.00
    1   11    5     -0.20      0.00
  -15   12    5      0.12      0.00
    1   13    5      0.19      0.00
  -12   14    5      0.13      0.00
    0  -17    6      0.06      0.00
   15  -13    6      0.21      0.00
   -9  -12    6      0.08      0.00
   -6  -12    6      0.30      0.00
   -2  -10    6      0.25      0.00
   16  -10    6     -0.76      0.00
   -2   -9    6     -0.29      0.00
   -1   -9    6     -0.08      0.00
  -13   -8    6     -0.11      0.00
   -2   -8    6      0.21      0.00
    5   -8    6      0.26      0.00
   -2   -7    6     -0.13      0.00
   -1   -7    6      0.54      0.00
    4   -7    6     -0.64      0.00
   -1   -6    6     -0.04      0.00
  -15   -5    6     -0.40      0.00
   16   -5    6     -0.15      0.00
   -7   -4    6      0.29      0.00
    1   -4    6     -0.14      0.00
    2   -4    6     -0.27      0.00
    1   -3    6      0.59      0.00
    1   -2    6      0.51      0.00
    2   -2    6     -0.81      0.00
  -17   -1    6      0.04      0.00
   -1   -1    6     -0.34      0.00
   -2    0    6     -0.47      0.00
   -1    0    6     -0.51      0.00
   -3    2    6      0.91      0.00
   -8    5    6      0.11      0.00
   -2    6    6      0.09      0.00
   10    6    6      0.17      0.00
    9    7    6      0.27      0.00
    8    8    6     -0.21      0.00
    1   10    6     -0.14      0.00
    1   11    6     -0.17      0.00
    4   11    6     -0.13      0.00
    2   12    6     -0.04      0.00
  -13   13    6      0.00      0.00
    0   13    6      0.22      0.00
    1  -17    7     -0.41      0.00
   -3  -16    7      0.03      0.00
   12  -16    7      0.06      0.00
   -5  -15    7     -0.41      0.00
    1  -15    7      0.04      0.00
   -1  -14    7      0.62      0.00
   14  -14    7      0.21      0.00
   -8  -13    7      0.57      0.00
   -1  -13    7     -0.36      0.00
   -2  -12    7      0.46      0.00
   -1  -12    7     -0.45      0.00
   15  -12    7     -0.12      0.00
   -2  -11    7      0.33      0.00
   -2  -10    7     -0.23      0.00
   -2   -9    7      0.16      0.00
   -2   -8    7     -0.23      0.00
   -1   -7    7     -0.11      0.00
    1   -3    7      0.31      0.00
    2   -3    7     -0.47      0.00
   15   -3    7     -0.27      0.00
    2   -2    7      1.34      0.00
  -17   -1    7      0.05      0.00
   -3    2    7      0.46      0.00
   -7    3    7     -0.12      0.00
  -17    8    7      0.03      0.00
    6    9    7      0.51      0.00
    1   10    7     -0.19      0.00
  -15   11    7      0.11      0.00
    0   11    7      0.02      0.00
    1   11    7      0.02      0.00
    3   11    7      0.11      0.00
    1   12    7     -0.09      0.00
  -12   13    7     -0.20      0.00
   10  -17    8      0.41      0.00
   -2  -14    8     -0.37      0.00
   -2  -13    8      0.23      0.00
   -2  -12    8      0.67      0.00
   -2  -11    8     -0.10      0.00
   15  -11    8      0.10      0.00
   -2  -10    8     -0.09      0.00
   -1   -9    8     -0.43      0.00
   -1   -8    8     -0.09      0.00
  -14   -7    8     -0.18      0.00
   -1   -7    8     -0.33      0.00
   15   -5    8      0.11      0.00
    2   -3    8      0.56      0.00
    3   -3    8     -0.20      0.00
   14   -2    8     -0.08      0.00
   -3    1    8     -0.10      0.00
    1    1    8      0.43      0.00
    5    2    8      0.04      0.00
  -17    7    8      0.00      0.00
    3    7    8     -0.24      0.00
  -16    9    8     -0.17      0.00
    5    9    8     -0.12      0.00
    0   10    8     -0.07      0.00
    1   10    8     -0.35      0.00
    0   11    8      0.05      0.00
    1   11    8     -0.17      0.00
  -13   12    8     -0.16      0.00
  -10   13    8     -0.13      0.00
   -4   13    8     -0.15      0.00
   -1  -17    9     -0.33      0.00
   -1  -15    9     -0.47      0.00
   -7  -14    9     -0.36      0.00
   -1  -14    9     -0.30      0.00
   -1  -13    9     -0.08      0.00
   -4  -12    9      0.32      0.00
    5  -11    9      0.49      0.00
   -1  -10    9     -0.40      0.00
   -1   -9    9      0.26      0.00
   -7   -8    9      0.11      0.00
  -14   -7    9      0.14      0.00
    2   -4    9     -0.03      0.00
    3   -3    9     -0.14      0.00
   -7   -1    9     -0.15      0.00
   -5   -1    9      1.18      0.00
   13   -1    9     -0.34      0.00
  -17    0    9     -0.19      0.00
   -6    0    9     -0.26      0.00
   -3    0    9     -0.18      0.00
   -4    4    9      0.41      0.00
  -17    6    9     -0.03      0.00
    2    7    9      0.15      0.00
    0    9    9      0.00      0.00
    1    9    9     -0.37      0.00
    4    9    9      0.29      0.00
    0   10    9     -0.08      0.00
    0   11    9      0.03      0.00
   -1  -17   10      0.23      0.00
    9  -17   10      0.36      0.00
   -1  -16   10     -0.52      0.00
   11  -16   10     -0.02      0.00
   -1  -15   10      0.01      0.00
   12  -15   10      0.24      0.00
   -7  -14   10     -0.04      0.00
   -1  -14   10     -0.03      0.00
   -1  -13   10     -0.03      0.00
   -1  -11   10     -0.06      0.00
   14  -11   10     -0.18      0.00
   -1  -10   10     -0.34      0.00
   -8   -9   10      0.23      0.00
   -2   -9   10      0.17      0.00
   -1   -9   10     -0.96      0.00
    9   -9   10     -0.29      0.00
  -12   -8   10      0.53      0.00
   -6   -8   10      0.08      0.00
   -4   -5   10      0.01      0.00
   14   -5   10      0.14      0.00
    2   -4   10      0.56      0.00
  -16   -3   10     -0.36      0.00
    3   -3   10     -0.07      0.00
   -5   -2   10      1.30      0.00
    5   -2   10      0.01      0.00
  -17    1   10      0.44      0.00
  -17    4   10     -0.46      0.00
  -17    5   10     -0.23      0.00
    8    5   10     -0.22      0.00
    1    7   10      0.08      0.00
  -15    9   10     -0.18      0.00
    0    9   10     -0.06      0.00
    0   10   10      0.20      0.00
    1   10   10     -0.11      0.00
  -12   11   10      0.03      0.00
   -9   12   10      0.05      0.00
   -8   12   10      0.07      0.00
   -7   12   10     -0.14      0.00
   -6   12   10      0.35      0.00
   -1  -17   11     -0.60      0.00
   -1  -16   11     -0.20      0.00
   -1  -15   11      0.40      0.00
    0  -15   11     -0.16      0.00
   -7  -14   11      0.00      0.00
   -1  -14   11      0.27      0.00
   -3  -13   11      0.30      0.00
   -1  -13   11      0.22      0.00
   -1  -12   11      0.09      0.00
   -6  -11   11     -0.77      0.00
   -1  -11   11     -0.18      0.00
   -1  -10   11     -0.27      0.00
   -7   -9   11     -0.23      0.00
  -15   -5   11      0.15      0.00
   -1   -5   11      0.91      0.00
    3   -4   11     -0.15      0.00
   13   -4   11     -0.15      0.00
    6   -2   11     -0.06      0.00
    7   -2   11      0.39      0.00
   -8    1   11      0.29      0.00
    9    3   11     -0.28      0.00
    8    4   11     -0.04      0.00
    7    5   11     -0.12      0.00
    0    6   11     -0.08      0.00
    6    6   11      0.05      0.00
  -15    8   11     -0.17      0.00
  -14    9   11      0.13      0.00
    0    9   11      0.27      0.00
   -1   10   11     -0.34      0.00
  -10   11   11      0.04      0.00
   -4   11   11      0.24      0.00
    0  -17   12     -0.54      0.00
    0  -16   12     -0.19      0.00
    0  -14   12      0.37      0.00
   13  -11   12     -0.05      0.00
   -3   -9   12      0.12      0.00
  -13   -8   12      0.29      0.00
  -10   -7   12      0.47      0.00
   13   -7   12      0.02      0.00
  -16   -2   12      0.54      0.00
    6   -1   12      0.22      0.00
   11   -1   12     -0.19      0.00
    8    3   12     -0.20      0.00
    7    4   12     -0.39      0.00
  -16    5   12     -0.25      0.00
    6    5   12      0.62      0.00
  -15    7   12      0.01      0.00
  -14    8   12      0.22      0.00
   -1    8   12      0.21      0.00
  -13    9   12     -0.06      0.00
   -1    9   12     -0.40      0.00
  -11   10   12     -0.13      0.00
   -3   10   12      0.02      0.00
    0  -17   13     -0.05      0.00
   -3  -16   13      0.48      0.00
    0  -16   13     -0.31      0.00
   -5  -15   13      0.07      0.00
   10  -15   13      0.34      0.00
    0  -14   13     -0.40      0.00
   11  -14   13     -0.21      0.00
   -8  -13   13      0.66      0.00
   12  -12   13      0.14      0.00
    7  -10   13      0.34      0.00
  -12   -9   13      0.08      0.00
  -10   -7   13      0.43      0.00
  -14   -6   13     -0.15      0.00
  -15   -4   13      0.05      0.00
    6   -4   13      0.13      0.00
   -8   -2   13      0.32      0.00
   10   -1   13     -0.52      0.00
  -16    0   13      0.05      0.00
    3    1   13      0.02      0.00
  -16    2   13      0.21      0.00
    8    2   13     -0.35      0.00
  -16    3   13      0.16      0.00
    7    3   13      0.06      0.00
    6    4   13      0.27      0.00
  -14    7   13      0.04      0.00
    2    7   13     -0.26      0.00
  -13    8   13      0.09      0.00
   -1    8   13     -0.35      0.00
    0    8   13     -0.22      0.00
  -11    9   13     -0.05      0.00
    1  -17   14      0.33      0.00
    2  -17   14     -0.16      0.00
    3  -17   14      0.07      0.00
    4  -17   14     -0.29      0.00
    5  -17   14      0.38      0.00
    0  -15   14     -0.53      0.00
    0  -14   14      0.56      0.00
   10  -14   14      0.23      0.00
    0  -13   14     -0.25      0.00
    6  -13   14      0.09      0.00
   -9  -12   14     -0.16      0.00
  -10  -11   14     -0.01      0.00
  -11  -10   14      0.20      0.00
    6   -7   14      0.04      0.00
   11   -5   14     -0.06      0.00
  -15   -3   14     -0.08      0.00
    1    1   14     -0.03      0.00
    6    3   14      0.31      0.00
  -15    4   14     -0.21      0.00
  -14    6   14     -0.26      0.00
    2    6   14     -0.12      0.00
  -13    7   14      0.20      0.00
   -2    8   14      0.09      0.00
   -4  -15   15      0.16      0.00
    8  -15   15     -0.48      0.00
   -6  -14   15      0.55      0.00
   10  -13   15      0.46      0.00
    3   -3   15      0.28      0.00
  -15   -1   15     -0.22      0.00
  -15    0   15      0.03      0.00
    0    0   15      0.67      0.00
  -15    1   15     -0.07      0.00
  -15    2   15     -0.33      0.00
    2    5   15     -0.15      0.00
  -11    7   15      0.25      0.00
   -2    7   15     -0.04      0.00
   -7    8   15      0.32      0.00
    0  -16   16      0.22      0.00
    4  -16   16      0.11      0.00
    7  -15   16      0.00      0.00
    8  -14   16      0.40      0.00
   -7  -13   16      0.19      0.00
    9  -13   16      0.03      0.00
   -6  -12   16     -0.36      0.00
   -7  -11   16      0.29      0.00
   -8  -10   16      0.22      0.00
   10  -10   16      0.08      0.00
  -11   -9   16     -0.11      0.00
   -9   -9   16     -0.33      0.00
   10   -9   16      0.15      0.00
   10   -8   16     -0.06      0.00
  -12   -7   16      0.12      0.00
  -13   -6   16      0.04      0.00
   -6   -6   16     -0.06      0.00
  -14   -3   16     -0.21      0.00
    7   -1   16      0.22      0.00
  -14    2   16      0.02      0.00
  -13    4   16     -0.18      0.00
    2    4   16     -0.02      0.00
  -12    5   16     -0.50      0.00
    0    5   16     -0.36      0.00
   -2    6   16      0.02      0.00
   -2  -15   17     -0.24      0.00
    5  -15   17      0.26      0.00
    4  -14   17      0.02      0.00
   -5  -13   17      0.08      0.00
   -9   -9   17      0.27      0.00
    9   -9   17     -0.32      0.00
   -8   -7   17     -0.11      0.00
   -7   -7   17      0.29      0.00
   -6   -7   17      0.49      0.00
   -6   -6   17     -0.50      0.00
   -1   -3   17     -0.33      0.00
    5    0   17     -0.19      0.00
    4    1   17      0.06      0.00
  -13    2   17     -0.13      0.00
    0    4   17     -0.30      0.00
  -10    5   17     -0.36      0.00
    0  -15   18     -0.03      0.00
    1  -15   18     -0.27      0.00
    2  -15   18      0.13      0.00
   -3  -14   18     -0.18      0.00
    5  -14   18     -0.19      0.00
    7  -12   18     -0.06      0.00
   -8  -11   18      0.05      0.00
   -9  -10   18      0.05      0.00
  -10   -8   18      0.09      0.00
   -8   -8   18     -0.32      0.00
   -7   -8   18      0.73      0.00
   -6   -8   18      0.36      0.00
   -5   -8   18      0.15      0.00
   -9   -7   18      0.19      0.00
   -8   -7   18     -0.34      0.00
   -7   -7   18     -0.30      0.00
   -6   -7   18     -0.44      0.00
   -7   -6   18      0.17      0.00
   -6   -6   18      0.11      0.00
  -12   -5   18     -0.39      0.00
   -6   -5   18     -0.06      0.00
   -1   -5   18     -0.55      0.00
    7   -5   18      0.20      0.00
    1    2   18      0.19      0.00
   -1    3   18     -0.12      0.00
   -9    4   18      0.00      0.00
   -3    4   18      0.19      0.00
   -1  -14   19      0.01      0.00
    0  -14   19      0.19      0.00
    1  -14   19     -0.25      0.00
    2  -14   19      0.26      0.00
   -4  -13   19      0.01      0.00
   -7  -11   19     -0.09      0.00
    6  -11   19      0.30      0.00
   -8  -10   19     -0.03      0.00
   -9   -9   19      0.21      0.00
   -6   -9   19      0.38      0.00
   -5   -9   19      0.15      0.00
   -9   -8   19      0.26      0.00
   -8   -8   19     -0.16      0.00
   -7   -8   19     -0.30      0.00
   -6   -8   19     -0.19      0.00
  -10   -7   19      0.19      0.00
   -9   -7   19     -0.37      0.00
   -8   -7   19      0.14      0.00
   -7   -7   19      0.10      0.00
   -6   -7   19      0.26      0.00
   -8   -6   19     -0.05      0.00
   -6   -6   19      0.25      0.00
   -1   -6   19     -0.07      0.00
    6   -6   19     -0.21      0.00
   -6   -5   19     -0.02      0.00
   -4   -5   19     -0.16      0.00
   -6   -4   19     -0.33      0.00
    5   -4   19     -0.29      0.00
  -11    0   19     -0.46      0.00
    0    0   19      0.01      0.00
    0    1   19      0.15      0.00
   -2    2   19      0.00      0.00
   -7    3   19     -0.12      0.00
   -6    3   19      0.09      0.00
   -5    3   19     -0.06      0.00
   -1  -13   20      0.05      0.00
    0  -13   20      0.31      0.00
    1  -13   20      0.26      0.00
   -4  -12   20     -0.14      0.00
    3  -12   20     -0.29      0.00
    4  -11   20      0.16      0.00
   -7  -10   20     -0.02      0.00
   -5  -10   20      0.01      0.00
   -7   -9   20      0.08      0.00
   -6   -9   20     -0.08      0.00
   -5   -9   20     -0.20      0.00
   -8   -8   20      0.00      0.00
   -7   -8   20      0.16      0.00
   -6   -8   20      0.40      0.00
   -9   -7   20     -0.02      0.00
   -8   -7   20     -0.15      0.00
   -7   -7   20     -0.39      0.00
   -6   -7   20      0.09      0.00
   -8   -6   20     -0.10      0.00
   -6   -6   20     -0.62      0.00
  -10   -5   20     -0.26      0.00
   -6   -5   20     -1.19      0.00
   -6   -4   20     -0.39      0.00
   -6   -3   20      0.01      0.00
  -10   -2   20     -0.06      0.00
   -9    0   20      0.16      0.00
   -1    0   20      0.29      0.00
   -7    1   20      0.15      0.00
   -4    1   20      0.12      0.00
   -3  -11   21      0.10      0.00
   -2  -11   21      0.09      0.00
    0  -11   21      0.22      0.00
    1  -11   21      0.10      0.00
   -5  -10   21     -0.13      0.00
    2  -10   21     -0.37      0.00
   -6   -9   21      0.13      0.00
   -7   -8   21     -0.13      0.00
   -6   -8   21     -0.13      0.00
   -6   -7   21     -0.29      0.00
   -8   -6   21     -1.06      0.00
   -6   -6   21     -0.28      0.00
    2   -6   21     -0.01      0.00
   -6   -5   21     -0.14      0.00
   -7   -4   21      0.41      0.00
   -6   -4   21     -0.09      0.00
    1   -4   21     -0.35      0.00
   -8   -3   21      0.02      0.00
   -6   -3   21      0.17      0.00
    0   -3   21      0.07      0.00
   -6   -2   21      0.25      0.00
   -6   -1   21     -0.02      0.00
   -5   -1   21     -0.33      0.00
   -4   -1   21     -0.19      0.00
    0    0    0      0.00      0.00
# SQUEEZE RESULTS (Version =  30715)
# Note: Data are Listed for all Voids in the P1 Unit Cell
# i.e. Centre of Gravity, Solvent Accessible Volume,
# Recovered number of Electrons in the Void and
# Details about the Squeezed Material
loop_
  _platon_squeeze_void_nr
  _platon_squeeze_void_average_x
  _platon_squeeze_void_average_y
  _platon_squeeze_void_average_z
  _platon_squeeze_void_volume
  _platon_squeeze_void_count_electrons
  _platon_squeeze_void_content
   1  0.157  0.515  0.515      1257       -10 ' '
# Missing Reflections Below sin(th)/lambda = 0.25
loop_
  _platon_missing_refln_index_h
  _platon_missing_refln_index_k
  _platon_missing_refln_index_l
  _platon_missing_refln_theta
    1    0    0     1.424
   -1    1    0     1.642
    0    1    0     1.500
   -5    2    0     6.638
    0    2    0     3.001
   -4    4    0     6.583
   -5    5    0     8.239
   -5    6    0     9.220
   -2   -6    1     9.960
   -1   -6    1     9.186
   -2   -5    1     8.506
   -1   -5    1     7.696
   -2   -4    1     7.086
   -1   -4    1     6.224
   -1   -3    1     4.780
    2   -3    1     4.216
   -1   -2    1     3.393
   -1   -1    1     2.171
    0   -1    1     1.461
    1   -1    1     1.900
   -1    0    1     1.556
    0    0    1     1.193
    1    0    1     2.117
   -1    1    1     2.152
    0    1    1     2.284
   -6    5    1     9.247
   -1    6    1     9.159
   -2   -5    2     8.173
   -1   -4    2     5.983
    3   -4    2     5.913
   -1   -3    2     4.633
    3   -3    2     5.194
    0   -2    2     2.923
    0   -1    2     2.206
    1   -1    2     2.715
    0    0    2     2.386
   -1    1    2     3.069
   -1    3    2     5.523
   -2   -5    3     8.007
    2   -4    3     5.664
   -1   -3    3     4.789
    1   -1    3     3.740
   -4    1    3     5.792
   -3    1    3     4.896
   -3   -6    4    10.110
   -2   -6    4     9.296
   -1   -5    4     7.372
    3   -5    4     7.446
   -1   -4    4     6.207
    1   -3    4     5.101
    0   -2    4     4.415
    1   -2    4     4.742
   -1   -1    4     4.288
    0   -1    4     4.347
    1   -1    4     4.845
   -1    1    4     5.252
   -5    2    4     7.663
   -2    3    4     7.222
   -2   -6    5     9.379
   -1   -6    5     8.796
   -1   -5    5     7.647
   -3   -2    5     6.453
    0   -2    5     5.410
    1   -2    5     5.771
   -1   -1    5     5.355
   -5    0    5     7.803
   -3    0    5     6.207
   -1   -6    6     9.102
    1   -4    6     7.242
    2   -4    6     7.645
    1   -3    6     6.889
    1   -2    6     6.857
    2   -2    6     7.497
   -1   -1    6     6.469
   -2    0    6     6.871
   -1    0    6     6.878
   -3    2    6     8.332
    1   -3    7     7.908
    2   -3    7     8.437
    2   -2    7     8.597
   -3    2    7     9.392
    2   -3    8     9.502
    3   -3    8    10.207
   -3    1    8     9.765
_platon_squeeze_void_probe_radius                  1.20
_platon_squeeze_details
)
TITL shelx     P -1         R = 0.09
CELL   15.6267   15.6542   19.1920    111.05     99.87    106.17
SPGR P-1
# Solvent Accessible Volume =    1285.8
# Electrons Found in S.A.V. =       0.0
# Note: Atoms in Void as Cxxx and Qxxx all others
Q101 0.801 0.732 0.377 !       4.58 eA-3
Q102 0.895 0.918 0.345 !       3.90 eA-3
Q103 0.932 0.968 0.464 !       3.62 eA-3
Q104 0.951 0.818 0.439 !       3.52 eA-3
Q105 0.754 0.855 0.275 !       2.78 eA-3
Q106 0.949 0.126 0.408 !       1.18 eA-3
Q107 0.986 0.980 0.376 !       1.09 eA-3
Q108 0.696 0.671 0.221 !       1.00 eA-3
Q109 0.077 1.001 0.049 !       0.95 eA-3
Q110 0.819 0.608 0.372 !       0.92 eA-3
Q111 0.942 0.281 0.361 !       0.86 eA-3
Q112 0.314 0.801 0.093 !       0.82 eA-3
Q113 0.043 0.951 0.034 !       0.80 eA-3
Q114 0.893 0.087 0.502 !       0.77 eA-3
Q115 0.888 0.225 0.047 !       0.75 eA-3
Q116 0.331 0.237 0.325 !       0.75 eA-3
Q117 0.750 0.728 0.295 !       0.73 eA-3
Q118 0.843 0.123 0.242 !       0.73 eA-3
Q119 0.656 0.728 0.231 !       0.73 eA-3
Q120 0.888 0.190 0.313 !       0.72 eA-3
Q121 0.129 0.074 0.453 !       0.72 eA-3
Q122 0.170 0.116 0.017 !       0.69 eA-3
Q123 0.078 0.152 0.452 !       0.68 eA-3
Q124 0.733 0.401 0.237 !       0.68 eA-3
Q125 0.891 0.449 0.117 !       0.68 eA-3
Q126 0.192 0.149 0.465 !       0.68 eA-3
Q127 0.981 0.872 0.283 !       0.67 eA-3
Q128 0.315 0.235 0.074 !       0.67 eA-3
Q129 0.154 0.656 0.383 !       0.67 eA-3
Q130 0.438 0.680 0.018 !       0.67 eA-3
Q131 0.842 0.194 0.190 !       0.66 eA-3
Q132 0.251 0.767 0.063 !       0.64 eA-3
Q133 0.907 0.127 0.358 !       0.64 eA-3
Q134 0.063 0.780 0.364 !       0.63 eA-3
Q135 0.596 0.703 0.470 !       0.63 eA-3
Q136 0.780 0.769 0.488 !       0.63 eA-3
Q137 0.550 0.487 0.233 !       0.63 eA-3
Q138 0.846 0.710 0.266 !       0.63 eA-3
Q139 0.610 0.638 0.253 !       0.63 eA-3
Q140 0.971 0.420-0.002 !       0.63 eA-3
Q141 0.887 0.938 0.021 !       0.62 eA-3
Q142 0.671 0.647 0.297 !       0.62 eA-3
Q143 0.139 0.112 0.126 !       0.62 eA-3
Q144 0.154 0.061 0.318 !       0.62 eA-3
Q145 0.876 0.037 0.307 !       0.62 eA-3
Q146 0.734 0.668 0.357 !       0.61 eA-3
Q147 0.312 0.212 0.406 !       0.61 eA-3
Q148 0.200 0.311 0.175 !       0.61 eA-3
Q149 0.254 0.863 0.033 !       0.60 eA-3
Q150 0.251 0.393 0.205 !       0.60 eA-3
Q151 0.980 0.590 0.360 !       0.59 eA-3
Q152 0.876 0.487 0.298 !       0.59 eA-3
Q153 0.628 0.879 0.422 !       0.59 eA-3
Q154 0.058 0.669 0.487 !       0.58 eA-3
Q155 0.108 0.045 0.299 !       0.58 eA-3
Q156 0.049 0.070 0.401 !       0.58 eA-3
Q157 1.000 1.000 0.500 !       0.57 eA-3
Q158 0.439 0.397 0.006 !       0.57 eA-3
Q159 0.877 0.762 0.411 !       0.56 eA-3
Q160 0.199 0.017 0.482 !       0.56 eA-3
Q161 0.796 0.810 0.053 !       0.56 eA-3
Q162 0.667 0.648 0.268 !       0.56 eA-3
Q163 0.518 0.544 0.035 !       0.56 eA-3
Q164 0.796 0.814 0.295 !       0.56 eA-3
Q165 0.205 0.563 0.104 !       0.55 eA-3
Q166 0.230 0.592 0.074 !       0.55 eA-3
Q167 0.175 0.192 0.263 !       0.55 eA-3
Q168 0.968 0.693 0.437 !       0.54 eA-3
Q169 0.251 0.159 0.174 !       0.54 eA-3
Q170 0.067 0.483 0.042 !       0.54 eA-3
Q171 0.655 0.796 0.124 !       0.53 eA-3
Q172 0.285 0.900 0.112 !       0.53 eA-3
Q173 0.949 0.995 0.094 !       0.53 eA-3
Q174 0.760 0.033 0.300 !       0.52 eA-3
Q175 0.498 0.915 0.203 !       0.52 eA-3
Q176 0.933 0.486 0.000 !       0.52 eA-3
Q177 0.106 0.099 0.185 !       0.52 eA-3
Q178 0.297 0.622 0.131 !       0.51 eA-3
Q179 0.514 0.810 0.203 !       0.51 eA-3
Q180 0.996 0.596 0.128 !       0.51 eA-3
Q181 0.169 0.087 0.237 !       0.51 eA-3
Q182 0.717 0.951 0.235 !       0.51 eA-3
Q183 0.887 0.301 0.233 !       0.51 eA-3
Q184 0.015 1.000 0.252 !       0.50 eA-3
Q185 0.156 0.197 0.505 !       0.50 eA-3
Q186 0.127 0.703 0.251 !       0.50 eA-3
)
;
_shelx_fab_checksum              72922
loop_
_space_group_symop_operation_xyz
'x, y, z'
'-x, -y, -z'
loop_
_atom_site_label
_atom_site_type_symbol
_atom_site_fract_x
_atom_site_fract_y
_atom_site_fract_z
_atom_site_U_iso_or_equiv
_atom_site_adp_type
_atom_site_occupancy
_atom_site_site_symmetry_order
_atom_site_calc_flag
_atom_site_refinement_flags_posn
_atom_site_refinement_flags_adp
_atom_site_refinement_flags_occupancy
_atom_site_disorder_assembly
_atom_site_disorder_group
Zn1 Zn 1.0000 1.0000 0.5000 0.0166(3) Uani 1 2 d S . P . .
Zn2 Zn 0.12618(4) 0.22175(4) 0.59031(3) 0.0184(2) Uani 1 1 d . . . . .
Zn3 Zn 0.82072(4) 0.89775(4) 0.31665(3) 0.0188(2) Uani 1 1 d . . . . .
O13 O 0.8695(3) 0.9156(3) 0.4222(2) 0.0185(8) Uani 1 1 d . . . . .
O2 O 0.0476(3) 0.0304(3) 0.4134(2) 0.0253(9) Uani 1 1 d . . . . .
O14 O 0.9734(3) 1.1372(3) 0.5326(2) 0.0232(9) Uani 1 1 d . . . . .
O12 O 1.1098(3) 1.1550(3) -0.2469(2) 0.0231(9) Uani 1 1 d . . . . .
O1 O 0.1400(3) 0.1917(3) 0.4804(2) 0.0253(9) Uani 1 1 d . . . . .
O6 O 0.7011(3) 0.7816(3) 0.2715(2) 0.0294(10) Uani 1 1 d . . . . .
O5 O 0.7331(3) 0.7091(3) 0.3498(2) 0.0276(9) Uani 1 1 d . . . . .
O7 O 0.7956(3) 0.9954(3) 0.2857(2) 0.0304(10) Uani 1 1 d . . . . .
O11 O 1.0872(3) 1.2490(3) -0.3077(2) 0.0274(10) Uani 1 1 d . . . . .
O15 O 0.1156(3) 0.3547(3) 0.6021(2) 0.0327(10) Uani 1 1 d . . . . .
O4 O 0.3835(3) 0.3335(3) -0.0241(2) 0.0341(11) Uani 1 1 d . . . . .
O9 O 0.7982(4) 1.4593(3) 0.2653(3) 0.0391(12) Uani 1 1 d . . . . .
O18 O 0.8522(4) 0.1737(4) 0.6112(3) 0.0482(13) Uani 1 1 d . . . . .
O3 O 0.1106(4) -0.0417(3) 0.0491(3) 0.0431(12) Uani 1 1 d . . . . .
N2 N 0.2482(3) 0.1732(4) 0.0407(3) 0.0246(11) Uani 1 1 d . . . . .
N6 N 0.8907(4) 1.3786(4) -0.0424(3) 0.0294(12) Uani 1 1 d . . . . .
H6N H 0.8847 1.3529 -0.0099 0.035 Uiso 1 1 calc R U . . .
N5 N 0.8241(4) 1.4343(4) 0.0811(3) 0.0247(11) Uani 1 1 d . . . . .
N3 N 0.3743(4) 0.3558(4) 0.0982(3) 0.0301(12) Uani 1 1 d . . . . .
H3N H 0.3422 0.3301 0.1228 0.036 Uiso 1 1 calc R U . . .
N4 N 0.8097(4) 1.3310(4) 0.1707(3) 0.0275(12) Uani 1 1 d . . . . .
H4N H 0.8130 1.3085 0.1237 0.033 Uiso 1 1 calc R U . . .
O8 O 0.8822(4) 1.1287(4) 0.3980(3) 0.0459(13) Uani 1 1 d . . . . .
C1 C 0.1039(4) 0.1100(4) 0.4194(3) 0.0240(13) Uani 1 1 d . . . . .
N1 N 0.1956(4) 0.1141(4) 0.1460(3) 0.0316(12) Uani 1 1 d . . . . .
H1N H 0.2363 0.1696 0.1547 0.038 Uiso 1 1 calc R U . . .
O17 O 0.2749(4) 0.3326(4) 0.2093(3) 0.0528(14) Uani 1 1 d . . . . .
O10 O 0.8578(4) 1.4930(4) -0.0765(3) 0.0535(15) Uani 1 1 d . . . . .
O16 O 0.7257(4) 0.9359(5) 0.4877(4) 0.0628(17) Uani 1 1 d . . . . .
C13 C 0.2700(4) 0.2075(4) -0.0116(3) 0.0228(13) Uani 1 1 d . . . . .
C39 C 1.0293(4) 1.2600(4) -0.2003(3) 0.0227(13) Uani 1 1 d . . . . .
C3 C 0.0747(4) 0.0334(4) 0.2744(3) 0.0258(13) Uani 1 1 d . . . . .
H3 H 0.0223 -0.0169 0.2699 0.031 Uiso 1 1 calc R U . . .
C23 C 0.8234(4) 1.1519(4) 0.2879(3) 0.0226(12) Uani 1 1 d . . . . .
C15 C 0.4480(4) 0.4451(5) 0.1435(4) 0.0303(14) Uani 1 1 d . . . . .
C42 C 1.0787(4) 1.2184(4) -0.2566(3) 0.0198(12) Uani 1 1 d . . . . .
C2 C 0.1304(4) 0.1084(4) 0.3485(3) 0.0239(13) Uani 1 1 d . U . . .
C17 C 0.5522(4) 0.6050(4) 0.1669(3) 0.0231(13) Uani 1 1 d . . . . .
H17 H 0.5712 0.6543 0.1503 0.028 Uiso 1 1 calc R U . . .
C4 C 0.0973(4) 0.0340(4) 0.2085(3) 0.0236(13) Uani 1 1 d . U . . .
H4 H 0.0586 -0.0154 0.1598 0.028 Uiso 1 1 calc R U . . .
C18 C 0.5974(4) 0.6213(4) 0.2412(3) 0.0250(13) Uani 1 1 d . . . . .
C40 C 1.0142(4) 1.2296(4) -0.1434(3) 0.0247(13) Uani 1 1 d . . . . .
H40 H 1.0358 1.1815 -0.1391 0.030 Uiso 1 1 calc R U . . .
C30 C 0.7939(4) 1.4637(4) 0.1425(3) 0.0247(13) Uani 1 1 d . . . . .
C38 C 0.9958(5) 1.3341(5) -0.2047(4) 0.0299(14) Uani 1 1 d . . . . .
H38 H 1.0047 1.3562 -0.2428 0.036 Uiso 1 1 calc R U . . .
C16 C 0.4793(4) 0.5176(5) 0.1160(4) 0.0261(13) Uani 1 1 d . . . . .
H16 H 0.4514 0.5066 0.0651 0.031 Uiso 1 1 calc R U . . .
C12 C 0.2245(4) 0.1550(5) -0.0909(3) 0.0274(14) Uani 1 1 d . . . . .
H12 H 0.2415 0.1808 -0.1254 0.033 Uiso 1 1 calc R U . . .
C22 C 0.8348(4) 1.0871(5) 0.3288(3) 0.0260(13) Uani 1 1 d . . . . .
C9 C 0.1807(4) 0.0825(4) 0.0124(3) 0.0242(13) Uani 1 1 d . . . . .
C14 C 0.3479(4) 0.3054(5) 0.0198(3) 0.0231(13) Uani 1 1 d . . . . .
C21 C 0.6850(4) 0.7117(4) 0.2921(3) 0.0260(13) Uani 1 1 d . . . . .
C31 C 0.7540(5) 1.5363(5) 0.1592(4) 0.0306(14) Uani 1 1 d . . . . .
H31 H 0.7344 1.5554 0.2035 0.037 Uiso 1 1 calc R U . . .
C36 C 0.9349(4) 1.3404(4) -0.0973(4) 0.0275(14) Uani 1 1 d . . . . .
C37 C 0.9506(5) 1.3734(5) -0.1538(4) 0.0338(15) Uani 1 1 d . . . . .
H37 H 0.9302 1.4227 -0.1572 0.041 Uiso 1 1 calc R U . . .
C19 C 0.5650(4) 0.5514(4) 0.2680(4) 0.0286(14) Uani 1 1 d . . . . .
H19 H 0.5936 0.5632 0.3190 0.034 Uiso 1 1 calc R U . . .
C34 C 0.8162(5) 1.4772(5) 0.0326(4) 0.0293(14) Uani 1 1 d . . . . .
C26 C 0.8135(5) 1.2716(4) 0.2115(4) 0.0289(14) Uani 1 1 d . . . . .
C32 C 0.7453(5) 1.5776(5) 0.1081(4) 0.0345(15) Uani 1 1 d . . . . .
H32 H 0.7174 1.6242 0.1161 0.041 Uiso 1 1 calc R U . . .
C5 C 0.1743(4) 0.1043(5) 0.2121(3) 0.0275(14) Uani 1 1 d . . . . .
C20 C 0.4913(5) 0.4647(5) 0.2206(4) 0.0346(16) Uani 1 1 d . . . . .
H20 H 0.4700 0.4187 0.2398 0.042 Uiso 1 1 calc R U . . .
C11 C 0.1543(4) 0.0650(5) -0.1188(3) 0.0304(14) Uani 1 1 d . . . . .
H11 H 0.1221 0.0299 -0.1721 0.036 Uiso 1 1 calc R U . . .
C10 C 0.1321(4) 0.0269(5) -0.0661(3) 0.0301(14) Uani 1 1 d . . . . .
H10 H 0.0855 -0.0346 -0.0834 0.036 Uiso 1 1 calc R U . . .
C33 C 0.7787(5) 1.5492(5) 0.0431(4) 0.0321(15) Uani 1 1 d . . . . .
H33 H 0.7755 1.5780 0.0084 0.039 Uiso 1 1 calc R U . . .
C24 C 0.7713(5) 1.1092(4) 0.2087(3) 0.0281(14) Uani 1 1 d . . . . .
H24 H 0.7395 1.0414 0.1821 0.034 Uiso 1 1 calc R U . . .
C25 C 0.7675(5) 1.1693(5) 0.1696(4) 0.0321(15) Uani 1 1 d . . . . .
H25 H 0.7348 1.1416 0.1166 0.039 Uiso 1 1 calc R U . . .
C35 C 0.8566(5) 1.4505(5) -0.0344(4) 0.0310(15) Uani 1 1 d . . . . .
C28 C 0.8649(5) 1.2524(5) 0.3273(4) 0.0366(16) Uani 1 1 d . . . . .
H28 H 0.8966 1.2807 0.3806 0.044 Uiso 1 1 calc R U . . .
C41 C 0.9680(4) 1.2678(5) -0.0922(3) 0.0279(14) Uani 1 1 d . . . . .
H41 H 0.9589 1.2453 -0.0543 0.033 Uiso 1 1 calc R U . . .
C8 C 0.1586(5) 0.0452(5) 0.0703(3) 0.0299(14) Uani 1 1 d . . . . .
C7 C 0.2133(5) 0.1783(5) 0.3525(4) 0.0382(17) Uani 1 1 d . . . . .
H7 H 0.2532 0.2266 0.4013 0.046 Uiso 1 1 calc R U . . .
C6 C 0.2361(5) 0.1766(5) 0.2865(4) 0.0393(17) Uani 1 1 d . . . . .
H6 H 0.2917 0.2223 0.2904 0.047 Uiso 1 1 calc R U . . .
N9 N 0.7675(5) 0.1417(5) 0.6893(4) 0.0563(18) Uani 1 1 d . . . . .
C27 C 0.8610(5) 1.3123(5) 0.2905(4) 0.0338(15) Uani 1 1 d . . . . .
H27 H 0.8903 1.3803 0.3186 0.041 Uiso 1 1 calc R U . . .
C29 C 0.8015(4) 1.4178(5) 0.1990(3) 0.0276(14) Uani 1 1 d . . . . .
C49 C 0.8257(5) 0.1287(6) 0.6476(5) 0.0480(19) Uani 1 1 d . . . . .
H49 H 0.8486 0.0794 0.6462 0.058 Uiso 1 1 calc R U . . .
N8 N 0.2982(6) 0.4883(5) 0.2864(5) 0.072(2) Uani 1 1 d . . . . .
C45 C 0.6757(6) 0.8567(8) 0.4868(6) 0.065(3) Uani 1 1 d . . . . .
H45 H 0.6927 0.8022 0.4684 0.078 Uiso 1 1 calc R U . . .
N10 N 0.4645(6) 0.8312(8) 0.1245(7) 0.094(3) Uani 1 1 d . . . . .
C47 C 0.2949(7) 0.3965(7) 0.2739(6) 0.069(3) Uani 1 1 d . . . . .
H47 H 0.3086 0.3826 0.3168 0.083 Uiso 1 1 calc R U . . .
N7 N 0.6011(6) 0.8468(9) 0.5101(7) 0.102(3) Uani 1 1 d . . . . .
C51 C 0.7419(7) 0.0858(9) 0.7333(7) 0.077(3) Uani 1 1 d . . . . .
H51A H 0.6991 0.1067 0.7592 0.115 Uiso 1 1 calc R U . . .
H51B H 0.7126 0.0170 0.6983 0.115 Uiso 1 1 calc R U . . .
H51C H 0.7969 0.0966 0.7716 0.115 Uiso 1 1 calc R U . . .
C50 C 0.7305(8) 0.2198(9) 0.6941(7) 0.081(3) Uani 1 1 d . . . . .
H50A H 0.6894 0.2209 0.7260 0.122 Uiso 1 1 calc R U . . .
H50B H 0.7813 0.2824 0.7169 0.122 Uiso 1 1 calc R U . . .
H50C H 0.6966 0.2070 0.6425 0.122 Uiso 1 1 calc R U . . .
C48 C 0.2791(8) 0.5159(9) 0.2252(8) 0.089(4) Uani 1 1 d . . . . .
H48A H 0.2853 0.5838 0.2465 0.134 Uiso 1 1 calc R U . . .
H48B H 0.3224 0.5074 0.1958 0.134 Uiso 1 1 calc R U . . .
H48C H 0.2165 0.4754 0.1913 0.134 Uiso 1 1 calc R U . . .
C55 C 0.5592(7) 0.8483(9) 0.1585(8) 0.087(3) Uani 1 1 d . . . . .
H55A H 0.5661 0.7864 0.1493 0.130 Uiso 1 1 calc R U . . .
H55B H 0.5981 0.8816 0.1355 0.130 Uiso 1 1 calc R U . . .
H55C H 0.5774 0.8883 0.2139 0.130 Uiso 1 1 calc R U . . .
C57 C 0.4327(12) 0.8997(13) 0.1268(10) 0.140(7) Uani 1 1 d . . . . .
H57 H 0.4781 0.9626 0.1561 0.168 Uiso 1 1 calc R U . . .
O19 O 0.3582(7) 0.9009(9) 0.0998(8) 0.167(5) Uani 1 1 d . U . . .
C56 C 0.4048(12) 0.7322(11) 0.0868(12) 0.147(6) Uani 1 1 d . U . . .
H56A H 0.4399 0.6916 0.0907 0.220 Uiso 1 1 calc R U . . .
H56B H 0.3566 0.7219 0.1112 0.220 Uiso 1 1 calc R U . . .
H56C H 0.3770 0.7150 0.0326 0.220 Uiso 1 1 calc R U . . .
C43 C 0.5671(10) 0.9300(14) 0.5373(11) 0.141(7) Uani 1 1 d . . . . .
H43A H 0.5119 0.9093 0.5520 0.212 Uiso 1 1 calc R U . . .
H43B H 0.6149 0.9851 0.5816 0.212 Uiso 1 1 calc R U . . .
H43C H 0.5527 0.9489 0.4956 0.212 Uiso 1 1 calc R U . . .
C44 C 0.5518(11) 0.7491(17) 0.5113(15) 0.199(11) Uani 1 1 d . . . . .
H44A H 0.4986 0.7513 0.5294 0.298 Uiso 1 1 calc R U . . .
H44B H 0.5316 0.6971 0.4593 0.298 Uiso 1 1 calc R U . . .
H44C H 0.5942 0.7370 0.5458 0.298 Uiso 1 1 calc R U . . .
C46 C 0.3117(15) 0.5593(13) 0.3672(10) 0.160(7) Uani 1 1 d . U . . .
H46A H 0.3127 0.6209 0.3674 0.239 Uiso 1 1 calc R U . . .
H46B H 0.2613 0.5335 0.3853 0.239 Uiso 1 1 calc R U . . .
H46C H 0.3699 0.5692 0.4013 0.239 Uiso 1 1 calc R U . . .
O21 O 0.1865(4) 0.7951(4) 0.9908(3) 0.0482(13) Uani 1 1 d . . . . .
O22 O 0.9349(6) 0.3552(6) 0.6005(5) 0.098(3) Uani 1 1 d . . . . .
H13A H 0.8236 0.9222 0.4422 0.117 Uiso 1 1 d R U . . .
H15A H 0.1450 0.4146 0.6437 0.117 Uiso 1 1 d R U . . .
H15B H 0.0603 0.3557 0.6014 0.117 Uiso 1 1 d R U . . .
H21A H 0.1660 0.8442 1.0074 0.117 Uiso 1 1 d R U . . .
H21B H 0.2446 0.8317 1.0271 0.117 Uiso 1 1 d R U . . .
H14A H 0.9431 1.1343 0.4859 0.117 Uiso 1 1 d R U . . .
H14B H 0.9331 1.1494 0.5577 0.117 Uiso 1 1 d R U . . .
H22A H 0.9090 0.2983 0.6034 0.117 Uiso 1 1 d R U . . .
H22B H 0.9077 0.3959 0.6248 0.117 Uiso 1 1 d R U . . .
loop_
_atom_site_aniso_label
_atom_site_aniso_U_11
_atom_site_aniso_U_22
_atom_site_aniso_U_33
_atom_site_aniso_U_23
_atom_site_aniso_U_13
_atom_site_aniso_U_12
Zn1 0.0289(5) 0.0128(5) 0.0085(5) 0.0055(4) 0.0093(4) 0.0052(4)
Zn2 0.0340(4) 0.0120(4) 0.0094(4) 0.0051(3) 0.0102(3) 0.0058(3)
Zn3 0.0341(4) 0.0128(4) 0.0112(4) 0.0072(3) 0.0099(3) 0.0064(3)
O13 0.028(2) 0.018(2) 0.015(2) 0.0114(17) 0.0109(16) 0.0079(17)
O2 0.047(2) 0.017(2) 0.0103(19) 0.0070(17) 0.0114(18) 0.0072(19)
O14 0.035(2) 0.026(2) 0.014(2) 0.0097(17) 0.0118(17) 0.0142(19)
O12 0.038(2) 0.021(2) 0.0100(19) 0.0071(17) 0.0105(17) 0.0085(19)
O1 0.040(2) 0.018(2) 0.012(2) 0.0057(18) 0.0107(18) 0.0015(18)
O6 0.034(2) 0.022(2) 0.026(2) 0.0132(19) 0.0050(19) 0.0013(19)
O5 0.035(2) 0.021(2) 0.019(2) 0.0102(18) 0.0036(18) 0.0004(19)
O7 0.050(3) 0.021(2) 0.029(2) 0.016(2) 0.020(2) 0.013(2)
O11 0.058(3) 0.022(2) 0.013(2) 0.0108(18) 0.0202(19) 0.020(2)
O15 0.065(3) 0.017(2) 0.021(2) 0.0104(18) 0.016(2) 0.017(2)
O4 0.045(3) 0.038(3) 0.019(2) 0.019(2) 0.015(2) 0.004(2)
O9 0.084(4) 0.029(2) 0.027(3) 0.020(2) 0.036(2) 0.031(3)
O18 0.052(3) 0.051(3) 0.048(3) 0.020(3) 0.023(3) 0.024(3)
O3 0.071(3) 0.023(3) 0.022(2) 0.008(2) 0.020(2) -0.001(2)
N2 0.032(3) 0.027(3) 0.013(2) 0.008(2) 0.014(2) 0.006(2)
N6 0.053(3) 0.029(3) 0.023(3) 0.018(2) 0.026(3) 0.021(3)
N5 0.042(3) 0.020(3) 0.023(3) 0.014(2) 0.017(2) 0.016(2)
N3 0.041(3) 0.029(3) 0.016(3) 0.014(2) 0.012(2) -0.003(2)
N4 0.058(3) 0.018(3) 0.019(3) 0.011(2) 0.025(2) 0.019(2)
O8 0.080(4) 0.033(3) 0.024(3) 0.012(2) 0.003(2) 0.028(3)
C1 0.037(3) 0.023(3) 0.017(3) 0.013(3) 0.016(3) 0.007(3)
N1 0.046(3) 0.018(3) 0.021(3) 0.009(2) 0.011(2) -0.005(2)
O17 0.075(4) 0.041(3) 0.036(3) 0.011(3) 0.036(3) 0.008(3)
O10 0.105(4) 0.064(4) 0.047(3) 0.045(3) 0.054(3) 0.063(3)
O16 0.052(3) 0.063(4) 0.067(4) 0.013(3) 0.037(3) 0.020(3)
C13 0.033(3) 0.029(3) 0.016(3) 0.015(3) 0.015(2) 0.013(3)
C39 0.034(3) 0.018(3) 0.013(3) 0.002(2) 0.009(2) 0.011(3)
C3 0.037(3) 0.019(3) 0.017(3) 0.008(3) 0.013(3) 0.002(3)
C23 0.037(3) 0.022(3) 0.016(3) 0.013(3) 0.012(2) 0.012(3)
C15 0.031(3) 0.031(4) 0.019(3) 0.013(3) 0.008(3) -0.006(3)
C42 0.033(3) 0.013(3) 0.013(3) 0.006(2) 0.011(2) 0.006(2)
C2 0.0259(15) 0.0238(15) 0.0224(15) 0.0120(10) 0.0084(10) 0.0062(10)
C17 0.027(3) 0.015(3) 0.021(3) 0.006(2) 0.007(2) 0.001(2)
C4 0.040(3) 0.020(3) 0.007(3) 0.006(2) 0.009(2) 0.004(3)
C18 0.037(3) 0.021(3) 0.014(3) 0.005(2) 0.012(3) 0.007(3)
C40 0.044(4) 0.018(3) 0.018(3) 0.008(2) 0.015(3) 0.015(3)
C30 0.041(3) 0.016(3) 0.024(3) 0.011(3) 0.019(3) 0.012(3)
C38 0.053(4) 0.026(3) 0.020(3) 0.016(3) 0.019(3) 0.013(3)
C16 0.031(3) 0.025(3) 0.021(3) 0.017(3) 0.007(3) 0.002(3)
C12 0.039(3) 0.027(3) 0.013(3) 0.009(3) 0.014(3) 0.004(3)
C22 0.042(4) 0.027(4) 0.018(3) 0.016(3) 0.012(3) 0.015(3)
C9 0.038(3) 0.022(3) 0.016(3) 0.009(3) 0.014(3) 0.011(3)
C14 0.027(3) 0.033(3) 0.009(3) 0.009(3) 0.006(2) 0.010(3)
C21 0.032(3) 0.020(3) 0.022(3) 0.008(3) 0.013(3) 0.003(3)
C31 0.051(4) 0.023(3) 0.026(3) 0.012(3) 0.023(3) 0.016(3)
C36 0.045(4) 0.021(3) 0.022(3) 0.009(3) 0.024(3) 0.013(3)
C37 0.065(4) 0.033(4) 0.023(3) 0.020(3) 0.026(3) 0.029(3)
C19 0.032(3) 0.020(3) 0.015(3) 0.004(3) 0.002(3) -0.009(3)
C34 0.048(4) 0.025(3) 0.023(3) 0.011(3) 0.019(3) 0.019(3)
C26 0.054(4) 0.022(3) 0.025(3) 0.015(3) 0.026(3) 0.020(3)
C32 0.053(4) 0.030(4) 0.038(4) 0.020(3) 0.030(3) 0.023(3)
C5 0.041(3) 0.025(3) 0.011(3) 0.007(3) 0.011(3) 0.004(3)
C20 0.044(4) 0.038(4) 0.020(3) 0.020(3) 0.012(3) 0.000(3)
C11 0.040(4) 0.040(4) 0.008(3) 0.011(3) 0.007(3) 0.011(3)
C10 0.035(3) 0.030(3) 0.015(3) 0.007(3) 0.008(3) 0.001(3)
C33 0.051(4) 0.028(3) 0.037(4) 0.022(3) 0.024(3) 0.025(3)
C24 0.049(4) 0.015(3) 0.018(3) 0.008(3) 0.010(3) 0.008(3)
C25 0.056(4) 0.020(3) 0.016(3) 0.010(3) 0.006(3) 0.008(3)
C35 0.061(4) 0.028(3) 0.023(3) 0.017(3) 0.030(3) 0.025(3)
C28 0.066(5) 0.025(3) 0.024(3) 0.010(3) 0.020(3) 0.020(3)
C41 0.049(4) 0.029(3) 0.019(3) 0.016(3) 0.022(3) 0.019(3)
C8 0.045(4) 0.027(4) 0.012(3) 0.007(3) 0.014(3) 0.005(3)
C7 0.051(4) 0.028(4) 0.018(3) 0.007(3) 0.011(3) -0.007(3)
C6 0.043(4) 0.034(4) 0.022(4) 0.008(3) 0.012(3) -0.007(3)
N9 0.058(4) 0.062(5) 0.061(5) 0.024(4) 0.037(4) 0.031(4)
C27 0.061(4) 0.013(3) 0.018(3) 0.003(3) 0.007(3) 0.007(3)
C29 0.046(4) 0.028(3) 0.019(3) 0.012(3) 0.021(3) 0.018(3)
C49 0.049(4) 0.034(4) 0.056(5) 0.017(4) 0.007(4) 0.017(4)
N8 0.101(6) 0.040(4) 0.056(5) 0.006(4) 0.014(4) 0.023(4)
C45 0.044(5) 0.086(7) 0.065(6) 0.026(5) 0.025(4) 0.027(5)
N10 0.062(5) 0.081(7) 0.125(9) 0.049(6) 0.005(5) 0.015(5)
C47 0.103(8) 0.049(5) 0.048(6) 0.018(5) 0.027(5) 0.021(5)
N7 0.068(6) 0.105(8) 0.134(9) 0.055(7) 0.051(6) 0.018(6)
C51 0.080(7) 0.099(8) 0.084(7) 0.055(7) 0.047(6) 0.047(6)
C50 0.098(8) 0.092(8) 0.089(8) 0.044(7) 0.055(6) 0.063(7)
C48 0.105(9) 0.082(8) 0.122(10) 0.061(8) 0.057(8) 0.057(7)
C55 0.068(7) 0.081(8) 0.107(9) 0.035(7) 0.023(6) 0.029(6)
C57 0.128(12) 0.135(13) 0.134(14) 0.024(11) -0.009(10) 0.091(11)
O19 0.092(6) 0.146(9) 0.193(11) 0.021(8) -0.028(6) 0.057(6)
C56 0.135(11) 0.083(9) 0.190(14) 0.067(10) 0.002(10) 0.011(8)
C43 0.103(10) 0.197(18) 0.167(16) 0.073(14) 0.090(11) 0.095(12)
C44 0.083(10) 0.20(2) 0.31(3) 0.14(2) 0.089(14) -0.004(12)
C46 0.211(15) 0.121(12) 0.106(11) 0.016(9) 0.017(10) 0.065(11)
O21 0.072(3) 0.037(3) 0.038(3) 0.017(2) 0.028(3) 0.018(3)
O22 0.128(7) 0.072(5) 0.116(7) 0.040(5) 0.063(6) 0.055(5)
loop_
_atom_type_symbol
_atom_type_description
_atom_type_scat_dispersion_real
_atom_type_scat_dispersion_imag
_atom_type_scat_source
C C 0.0033 0.0016 'International Tables Vol C Tables 4.2.6.8 and 6.1.1.4'
H H 0.0000 0.0000 'International Tables Vol C Tables 4.2.6.8 and 6.1.1.4'
N N 0.0061 0.0033 'International Tables Vol C Tables 4.2.6.8 and 6.1.1.4'
O O 0.0106 0.0060 'International Tables Vol C Tables 4.2.6.8 and 6.1.1.4'
Zn Zn 0.2839 1.4301 'International Tables Vol C Tables 4.2.6.8 and 6.1.1.4'
loop_
_geom_angle_atom_site_label_1
_geom_angle_atom_site_label_2
_geom_angle_atom_site_label_3
_geom_angle
_geom_angle_site_symmetry_1
_geom_angle_site_symmetry_3
_geom_angle_publ_flag
O13 Zn1 O13 180.0 . 2_776 ?
O13 Zn1 O2 89.40(15) . 2_666 ?
O13 Zn1 O2 90.60(15) 2_776 2_666 ?
O13 Zn1 O2 90.60(15) . 1_665 ?
O13 Zn1 O2 89.40(15) 2_776 1_665 ?
O2 Zn1 O2 180.0 2_666 1_665 ?
O13 Zn1 O14 86.19(15) . 2_776 ?
O13 Zn1 O14 93.81(15) 2_776 2_776 ?
O2 Zn1 O14 86.74(15) 2_666 2_776 ?
O2 Zn1 O14 93.27(15) 1_665 2_776 ?
O13 Zn1 O14 93.81(15) . . ?
O13 Zn1 O14 86.19(15) 2_776 . ?
O2 Zn1 O14 93.27(15) 2_666 . ?
O2 Zn1 O14 86.73(15) 1_665 . ?
O14 Zn1 O14 180.00(19) 2_776 . ?
O13 Zn1 Zn2 42.09(10) . 2_666 ?
O13 Zn1 Zn2 137.91(10) 2_776 2_666 ?
O2 Zn1 Zn2 77.72(11) 2_666 2_666 ?
O2 Zn1 Zn2 102.28(11) 1_665 2_666 ?
O14 Zn1 Zn2 45.84(11) 2_776 2_666 ?
O14 Zn1 Zn2 134.16(11) . 2_666 ?
O13 Zn1 Zn2 137.91(10) . 1_665 ?
O13 Zn1 Zn2 42.09(10) 2_776 1_665 ?
O2 Zn1 Zn2 102.28(11) 2_666 1_665 ?
O2 Zn1 Zn2 77.72(11) 1_665 1_665 ?
O14 Zn1 Zn2 134.16(11) 2_776 1_665 ?
O14 Zn1 Zn2 45.84(11) . 1_665 ?
Zn2 Zn1 Zn2 180.0 2_666 1_665 ?
O1 Zn2 O5 96.38(16) . 2_666 ?
O1 Zn2 O15 91.25(16) . . ?
O5 Zn2 O15 91.05(18) 2_666 . ?
O1 Zn2 O11 169.49(17) . 1_446 ?
O5 Zn2 O11 93.46(17) 2_666 1_446 ?
O15 Zn2 O11 84.89(16) . 1_446 ?
O1 Zn2 O13 89.53(15) . 2_666 ?
O5 Zn2 O13 91.32(16) 2_666 2_666 ?
O15 Zn2 O13 177.41(16) . 2_666 ?
O11 Zn2 O13 93.92(15) 1_446 2_666 ?
O1 Zn2 O14 87.53(15) . 1_445 ?
O5 Zn2 O14 173.86(15) 2_666 1_445 ?
O15 Zn2 O14 93.61(17) . 1_445 ?
O11 Zn2 O14 82.97(16) 1_446 1_445 ?
O13 Zn2 O14 83.96(15) 2_666 1_445 ?
O1 Zn2 Zn1 78.76(11) . 1_445 ?
O5 Zn2 Zn1 131.24(12) 2_666 1_445 ?
O15 Zn2 Zn1 137.09(13) . 1_445 ?
O11 Zn2 Zn1 97.45(12) 1_446 1_445 ?
O13 Zn2 Zn1 40.75(10) 2_666 1_445 ?
O14 Zn2 Zn1 44.88(10) 1_445 1_445 ?
O13 Zn3 O7 126.33(17) . . ?
O13 Zn3 O12 113.22(16) . 2_775 ?
O7 Zn3 O12 103.15(17) . 2_775 ?
O13 Zn3 O6 104.83(16) . . ?
O7 Zn3 O6 106.51(18) . . ?
O12 Zn3 O6 99.53(18) 2_775 . ?
Zn3 O13 Zn1 129.37(18) . . ?
Zn3 O13 Zn2 104.52(17) . 2_666 ?
Zn1 O13 Zn2 97.15(15) . 2_666 ?
Zn3 O13 H13A 102.8 . . ?
Zn1 O13 H13A 114.1 . . ?
Zn2 O13 H13A 106.4 2_666 . ?
C1 O2 Zn1 128.7(4) . 1_445 ?
Zn1 O14 Zn2 89.28(14) . 1_665 ?
Zn1 O14 H14A 104.5 . . ?
Zn2 O14 H14A 121.8 1_665 . ?
Zn1 O14 H14B 123.5 . . ?
Zn2 O14 H14B 120.6 1_665 . ?
H14A O14 H14B 98.2 . . ?
C42 O12 Zn3 117.7(3) . 2_775 ?
C1 O1 Zn2 128.4(4) . . ?
C21 O6 Zn3 124.5(4) . . ?
C21 O5 Zn2 131.5(4) . 2_666 ?
C22 O7 Zn3 122.8(4) . . ?
C42 O11 Zn2 142.6(4) . 1_664 ?
Zn2 O15 H15A 128.3 . . ?
Zn2 O15 H15B 113.5 . . ?
H15A O15 H15B 93.7 . . ?
C13 N2 C9 117.4(5) . . ?
C35 N6 C36 128.0(5) . . ?
C35 N6 H6N 116.0 . . ?
C36 N6 H6N 116.0 . . ?
C30 N5 C34 117.1(5) . . ?
C14 N3 C15 126.6(5) . . ?
C14 N3 H3N 116.7 . . ?
C15 N3 H3N 116.7 . . ?
C29 N4 C26 125.5(5) . . ?
C29 N4 H4N 117.2 . . ?
C26 N4 H4N 117.2 . . ?
O2 C1 O1 126.4(5) . . ?
O2 C1 C2 116.9(5) . . ?
O1 C1 C2 116.8(5) . . ?
C8 N1 C5 126.9(5) . . ?
C8 N1 H1N 116.5 . . ?
C5 N1 H1N 116.5 . . ?
N2 C13 C12 122.3(5) . . ?
N2 C13 C14 117.0(5) . . ?
C12 C13 C14 120.7(5) . . ?
C40 C39 C38 117.1(5) . . ?
C40 C39 C42 122.8(5) . . ?
C38 C39 C42 120.1(5) . . ?
C4 C3 C2 120.2(5) . . ?
C4 C3 H3 119.9 . . ?
C2 C3 H3 119.9 . . ?
C28 C23 C24 119.3(5) . . ?
C28 C23 C22 120.6(5) . . ?
C24 C23 C22 120.1(5) . . ?
N3 C15 C20 117.7(5) . . ?
N3 C15 C16 123.2(5) . . ?
C20 C15 C16 119.1(6) . . ?
O11 C42 O12 125.6(5) . . ?
O11 C42 C39 118.1(5) . . ?
O12 C42 C39 116.2(5) . . ?
C3 C2 C7 117.5(5) . . ?
C3 C2 C1 120.2(5) . . ?
C7 C2 C1 122.3(5) . . ?
C18 C17 C16 121.9(6) . . ?
C18 C17 H17 119.0 . . ?
C16 C17 H17 119.0 . . ?
C5 C4 C3 122.2(5) . . ?
C5 C4 H4 118.9 . . ?
C3 C4 H4 118.9 . . ?
C17 C18 C19 119.2(5) . . ?
C17 C18 C21 121.0(5) . . ?
C19 C18 C21 119.7(5) . . ?
C39 C40 C41 122.4(5) . . ?
C39 C40 H40 118.8 . . ?
C41 C40 H40 118.8 . . ?
N5 C30 C31 124.0(5) . . ?
N5 C30 C29 119.2(5) . . ?
C31 C30 C29 116.8(5) . . ?
C37 C38 C39 121.2(5) . . ?
C37 C38 H38 119.4 . . ?
C39 C38 H38 119.4 . . ?
C17 C16 C15 118.3(5) . . ?
C17 C16 H16 120.8 . . ?
C15 C16 H16 120.8 . . ?
C11 C12 C13 120.0(5) . . ?
C11 C12 H12 120.0 . . ?
C13 C12 H12 120.0 . . ?
O8 C22 O7 128.0(5) . . ?
O8 C22 C23 117.2(5) . . ?
O7 C22 C23 114.8(5) . . ?
N2 C9 C10 123.0(5) . . ?
N2 C9 C8 116.8(5) . . ?
C10 C9 C8 120.2(5) . . ?
O4 C14 N3 125.0(6) . . ?
O4 C14 C13 120.9(5) . . ?
N3 C14 C13 114.1(5) . . ?
O5 C21 O6 127.1(6) . . ?
O5 C21 C18 116.3(5) . . ?
O6 C21 C18 116.6(5) . . ?
C32 C31 C30 117.6(6) . . ?
C32 C31 H31 121.2 . . ?
C30 C31 H31 121.2 . . ?
C37 C36 C41 118.7(5) . . ?
C37 C36 N6 123.6(6) . . ?
C41 C36 N6 117.7(5) . . ?
C38 C37 C36 120.5(6) . . ?
C38 C37 H37 119.7 . . ?
C36 C37 H37 119.7 . . ?
C20 C19 C18 120.9(6) . . ?
C20 C19 H19 119.5 . . ?
C18 C19 H19 119.5 . . ?
N5 C34 C33 124.0(6) . . ?
N5 C34 C35 118.2(5) . . ?
C33 C34 C35 117.7(6) . . ?
C27 C26 C25 120.0(6) . . ?
C27 C26 N4 121.7(6) . . ?
C25 C26 N4 118.3(6) . . ?
C31 C32 C33 119.6(6) . . ?
C31 C32 H32 120.2 . . ?
C33 C32 H32 120.2 . . ?
C4 C5 N1 124.4(5) . . ?
C4 C5 C6 119.0(5) . . ?
N1 C5 C6 116.5(5) . . ?
C19 C20 C15 120.4(6) . . ?
C19 C20 H20 119.8 . . ?
C15 C20 H20 119.8 . . ?
C12 C11 C10 118.7(5) . . ?
C12 C11 H11 120.6 . . ?
C10 C11 H11 120.6 . . ?
C9 C10 C11 118.5(6) . . ?
C9 C10 H10 120.7 . . ?
C11 C10 H10 120.7 . . ?
C34 C33 C32 117.7(6) . . ?
C34 C33 H33 121.2 . . ?
C32 C33 H33 121.2 . . ?
C23 C24 C25 119.7(6) . . ?
C23 C24 H24 120.2 . . ?
C25 C24 H24 120.2 . . ?
C26 C25 C24 119.2(6) . . ?
C26 C25 H25 120.4 . . ?
C24 C25 H25 120.4 . . ?
O10 C35 N6 124.3(5) . . ?
O10 C35 C34 120.8(6) . . ?
N6 C35 C34 114.9(5) . . ?
C23 C28 C27 121.8(6) . . ?
C23 C28 H28 119.1 . . ?
C27 C28 H28 119.1 . . ?
C40 C41 C36 120.0(5) . . ?
C40 C41 H41 120.0 . . ?
C36 C41 H41 120.0 . . ?
O3 C8 N1 124.8(5) . . ?
O3 C8 C9 120.7(5) . . ?
N1 C8 C9 114.5(5) . . ?
C6 C7 C2 121.6(6) . . ?
C6 C7 H7 119.2 . . ?
C2 C7 H7 119.2 . . ?
C7 C6 C5 119.3(6) . . ?
C7 C6 H6 120.4 . . ?
C5 C6 H6 120.4 . . ?
C49 N9 C51 123.0(8) . . ?
C49 N9 C50 118.4(8) . . ?
C51 N9 C50 118.5(7) . . ?
C28 C27 C26 120.0(6) . . ?
C28 C27 H27 120.0 . . ?
C26 C27 H27 120.0 . . ?
O9 C29 N4 124.1(6) . . ?
O9 C29 C30 120.6(5) . . ?
N4 C29 C30 115.3(5) . . ?
O18 C49 N9 126.9(8) . . ?
O18 C49 H49 116.5 . . ?
N9 C49 H49 116.5 . . ?
C47 N8 C48 122.8(9) . . ?
C47 N8 C46 118.5(11) . . ?
C48 N8 C46 118.3(11) . . ?
O16 C45 N7 123.7(10) . . ?
O16 C45 H45 118.2 . . ?
N7 C45 H45 118.2 . . ?
C57 N10 C56 120.5(13) . . ?
C57 N10 C55 124.5(12) . . ?
C56 N10 C55 115.0(12) . . ?
O17 C47 N8 122.1(9) . . ?
O17 C47 H47 119.0 . . ?
N8 C47 H47 119.0 . . ?
C45 N7 C43 121.2(11) . . ?
C45 N7 C44 117.7(13) . . ?
C43 N7 C44 121.1(12) . . ?
N9 C51 H51A 109.5 . . ?
N9 C51 H51B 109.5 . . ?
H51A C51 H51B 109.5 . . ?
N9 C51 H51C 109.5 . . ?
H51A C51 H51C 109.5 . . ?
H51B C51 H51C 109.5 . . ?
N9 C50 H50A 109.5 . . ?
N9 C50 H50B 109.5 . . ?
H50A C50 H50B 109.5 . . ?
N9 C50 H50C 109.5 . . ?
H50A C50 H50C 109.5 . . ?
H50B C50 H50C 109.5 . . ?
N8 C48 H48A 109.5 . . ?
N8 C48 H48B 109.5 . . ?
H48A C48 H48B 109.5 . . ?
N8 C48 H48C 109.5 . . ?
H48A C48 H48C 109.5 . . ?
H48B C48 H48C 109.5 . . ?
N10 C55 H55A 109.5 . . ?
N10 C55 H55B 109.5 . . ?
H55A C55 H55B 109.5 . . ?
N10 C55 H55C 109.5 . . ?
H55A C55 H55C 109.5 . . ?
H55B C55 H55C 109.5 . . ?
O19 C57 N10 134.7(18) . . ?
O19 C57 H57 112.6 . . ?
N10 C57 H57 112.6 . . ?
N10 C56 H56A 109.5 . . ?
N10 C56 H56B 109.5 . . ?
H56A C56 H56B 109.5 . . ?
N10 C56 H56C 109.5 . . ?
H56A C56 H56C 109.5 . . ?
H56B C56 H56C 109.5 . . ?
N7 C43 H43A 109.5 . . ?
N7 C43 H43B 109.5 . . ?
H43A C43 H43B 109.5 . . ?
N7 C43 H43C 109.5 . . ?
H43A C43 H43C 109.5 . . ?
H43B C43 H43C 109.5 . . ?
N7 C44 H44A 109.5 . . ?
N7 C44 H44B 109.5 . . ?
H44A C44 H44B 109.5 . . ?
N7 C44 H44C 109.5 . . ?
H44A C44 H44C 109.5 . . ?
H44B C44 H44C 109.5 . . ?
N8 C46 H46A 109.5 . . ?
N8 C46 H46B 109.5 . . ?
H46A C46 H46B 109.5 . . ?
N8 C46 H46C 109.5 . . ?
H46A C46 H46C 109.5 . . ?
H46B C46 H46C 109.5 . . ?
H21A O21 H21B 92.9 . . ?
H22A O22 H22B 106.6 . . ?
loop_
_geom_bond_atom_site_label_1
_geom_bond_atom_site_label_2
_geom_bond_distance
_geom_bond_site_symmetry_2
_geom_bond_publ_flag
Zn1 O13 2.042(4) . ?
Zn1 O13 2.042(4) 2_776 ?
Zn1 O2 2.083(4) 2_666 ?
Zn1 O2 2.083(4) 1_665 ?
Zn1 O14 2.191(4) 2_776 ?
Zn1 O14 2.191(4) . ?
Zn1 Zn2 3.1041(7) 2_666 ?
Zn1 Zn2 3.1041(7) 1_665 ?
Zn2 O1 2.054(4) . ?
Zn2 O5 2.060(4) 2_666 ?
Zn2 O15 2.069(4) . ?
Zn2 O11 2.083(4) 1_446 ?
Zn2 O13 2.097(4) 2_666 ?
Zn2 O14 2.227(4) 1_445 ?
Zn2 Zn1 3.1041(7) 1_445 ?
Zn3 O13 1.926(4) . ?
Zn3 O7 1.938(4) . ?
Zn3 O12 1.963(4) 2_775 ?
Zn3 O6 1.993(4) . ?
O13 Zn2 2.097(4) 2_666 ?
O13 H13A 0.8834 . ?
O2 C1 1.261(7) . ?
O2 Zn1 2.083(4) 1_445 ?
O14 Zn2 2.227(4) 1_665 ?
O14 H14A 0.9184 . ?
O14 H14B 0.8777 . ?
O12 C42 1.276(7) . ?
O12 Zn3 1.963(4) 2_775 ?
O1 C1 1.272(7) . ?
O6 C21 1.267(7) . ?
O5 C21 1.247(7) . ?
O5 Zn2 2.060(4) 2_666 ?
O7 C22 1.265(8) . ?
O11 C42 1.246(7) . ?
O11 Zn2 2.083(4) 1_664 ?
O15 H15A 0.9078 . ?
O15 H15B 0.8666 . ?
O4 C14 1.227(7) . ?
O9 C29 1.222(7) . ?
O18 C49 1.202(9) . ?
O3 C8 1.228(8) . ?
N2 C13 1.346(7) . ?
N2 C9 1.356(8) . ?
N6 C35 1.348(8) . ?
N6 C36 1.403(7) . ?
N6 H6N 0.8600 . ?
N5 C30 1.322(7) . ?
N5 C34 1.336(8) . ?
N3 C14 1.345(8) . ?
N3 C15 1.386(8) . ?
N3 H3N 0.8600 . ?
N4 C29 1.323(8) . ?
N4 C26 1.420(8) . ?
N4 H4N 0.8600 . ?
O8 C22 1.230(7) . ?
C1 C2 1.483(8) . ?
N1 C8 1.359(8) . ?
N1 C5 1.415(8) . ?
N1 H1N 0.8600 . ?
O17 C47 1.200(10) . ?
O10 C35 1.215(8) . ?
O16 C45 1.260(12) . ?
C13 C12 1.379(8) . ?
C13 C14 1.497(8) . ?
C39 C40 1.369(8) . ?
C39 C38 1.421(9) . ?
C39 C42 1.501(8) . ?
C3 C4 1.372(8) . ?
C3 C2 1.402(9) . ?
C3 H3 0.9300 . ?
C23 C28 1.369(9) . ?
C23 C24 1.401(8) . ?
C23 C22 1.518(8) . ?
C15 C20 1.398(9) . ?
C15 C16 1.420(8) . ?
C2 C7 1.413(9) . ?
C17 C18 1.377(8) . ?
C17 C16 1.384(8) . ?
C17 H17 0.9300 . ?
C4 C5 1.358(8) . ?
C4 H4 0.9300 . ?
C18 C19 1.379(9) . ?
C18 C21 1.517(8) . ?
C40 C41 1.380(8) . ?
C40 H40 0.9300 . ?
C30 C31 1.409(9) . ?
C30 C29 1.505(8) . ?
C38 C37 1.371(9) . ?
C38 H38 0.9300 . ?
C16 H16 0.9300 . ?
C12 C11 1.368(9) . ?
C12 H12 0.9300 . ?
C9 C10 1.378(8) . ?
C9 C8 1.478(8) . ?
C31 C32 1.363(9) . ?
C31 H31 0.9300 . ?
C36 C37 1.389(9) . ?
C36 C41 1.399(9) . ?
C37 H37 0.9300 . ?
C19 C20 1.371(9) . ?
C19 H19 0.9300 . ?
C34 C33 1.379(9) . ?
C34 C35 1.506(8) . ?
C26 C27 1.382(9) . ?
C26 C25 1.401(9) . ?
C32 C33 1.407(9) . ?
C32 H32 0.9300 . ?
C5 C6 1.418(9) . ?
C20 H20 0.9300 . ?
C11 C10 1.393(9) . ?
C11 H11 0.9300 . ?
C10 H10 0.9300 . ?
C33 H33 0.9300 . ?
C24 C25 1.405(8) . ?
C24 H24 0.9300 . ?
C25 H25 0.9300 . ?
C28 C27 1.370(9) . ?
C28 H28 0.9300 . ?
C41 H41 0.9300 . ?
C7 C6 1.367(9) . ?
C7 H7 0.9300 . ?
C6 H6 0.9300 . ?
N9 C49 1.322(10) . ?
N9 C51 1.445(12) . ?
N9 C50 1.473(12) . ?
C27 H27 0.9300 . ?
C49 H49 0.9300 . ?
N8 C47 1.354(12) . ?
N8 C48 1.405(13) . ?
N8 C46 1.485(18) . ?
C45 N7 1.309(12) . ?
C45 H45 0.9300 . ?
N10 C57 1.292(16) . ?
N10 C56 1.398(16) . ?
N10 C55 1.418(13) . ?
C47 H47 0.9300 . ?
N7 C43 1.497(18) . ?
N7 C44 1.52(2) . ?
C51 H51A 0.9600 . ?
C51 H51B 0.9600 . ?
C51 H51C 0.9600 . ?
C50 H50A 0.9600 . ?
C50 H50B 0.9600 . ?
C50 H50C 0.9600 . ?
C48 H48A 0.9600 . ?
C48 H48B 0.9600 . ?
C48 H48C 0.9600 . ?
C55 H55A 0.9600 . ?
C55 H55B 0.9600 . ?
C55 H55C 0.9600 . ?
C57 O19 1.198(15) . ?
C57 H57 0.9300 . ?
C56 H56A 0.9600 . ?
C56 H56B 0.9600 . ?
C56 H56C 0.9600 . ?
C43 H43A 0.9600 . ?
C43 H43B 0.9600 . ?
C43 H43C 0.9600 . ?
C44 H44A 0.9600 . ?
C44 H44B 0.9600 . ?
C44 H44C 0.9600 . ?
C46 H46A 0.9600 . ?
C46 H46B 0.9600 . ?
C46 H46C 0.9600 . ?
O21 H21A 0.8893 . ?
O21 H21B 0.9201 . ?
O22 H22A 0.8956 . ?
O22 H22B 0.8994 . ?
loop_
_geom_hbond_atom_site_label_D
_geom_hbond_atom_site_label_H
_geom_hbond_atom_site_label_A
_geom_hbond_distance_DH
_geom_hbond_distance_HA
_geom_hbond_distance_DA
_geom_hbond_angle_DHA
_geom_hbond_site_symmetry_A
N6 H6N N5 0.86 2.28 2.707(7) 110.6 .
N6 H6N O21 0.86 2.46 3.217(7) 147.1 2_676
N3 H3N O17 0.86 2.11 2.910(7) 155.0 .
N4 H4N O21 0.86 2.22 3.040(7) 160.4 2_676
N1 H1N N2 0.86 2.25 2.666(7) 110.1 .
N1 H1N O17 0.86 2.23 2.974(7) 144.7 .
C4 H4 O3 0.93 2.34 2.925(7) 120.3 .
C16 H16 O4 0.93 2.42 2.903(8) 112.5 .
C12 H12 O12 0.93 2.65 3.214(7) 119.3 1_445
C37 H37 O10 0.93 2.23 2.839(8) 122.7 .
C45 H45 O1 0.93 2.59 3.194(10) 122.9 2_666
C45 H45 O5 0.93 2.52 3.264(10) 137.7 .
C48 H48C O10 0.96 2.58 3.192(14) 121.6 2_675
O13 H13A O16 0.88 1.91 2.795(6) 178.4 .
O15 H15A O9 0.91 1.94 2.844(6) 176.8 2_676
O15 H15B O22 0.87 1.95 2.820(9) 178.6 1_455
O21 H21A O3 0.89 2.16 3.045(7) 177.0 1_566
O21 H21B O19 0.92 1.81 2.726(12) 178.3 1_556
O14 H14A O8 0.92 1.75 2.665(6) 178.0 .
O14 H14B O18 0.88 1.80 2.674(6) 178.4 1_565
O22 H22A O18 0.90 1.98 2.872(10) 179.2 .
