#------------------------------------------------------------------------------
#$Date: 2020-10-06 11:42:53 +0300 (Tue, 06 Oct 2020) $
#$Revision: 257524 $
#$URL: file:///home/coder/svn-repositories/cod/cif/7/70/49/7704923.cif $
#------------------------------------------------------------------------------
#
# This file is available in the Crystallography Open Database (COD),
# http://www.crystallography.net/
#
# All data on this site have been placed in the public domain by the
# contributors.
#
data_7704923
loop_
_publ_author_name
'Zhang, Chenghui'
'Shi, Huaizhong'
'Yan, Yan'
'Sun, Libo'
'Ye, Yu'
'Lu, Yizhong'
'Liang, Zhiqiang'
'Li, Jiyang'
_publ_section_title
;
 A zwitterionic ligand-based water-stable metal-organic framework showing
 photochromic and Cr(vi) removal properties.
;
_journal_issue                   30
_journal_name_full
'Dalton transactions (Cambridge, England : 2003)'
_journal_page_first              10613
_journal_page_last               10620
_journal_paper_doi               10.1039/c9dt04679h
_journal_volume                  49
_journal_year                    2020
_chemical_formula_sum            'C36 H23 In3 N4 O12'
_chemical_formula_weight         1048.04
_space_group_crystal_system      trigonal
_space_group_IT_number           166
_space_group_name_Hall           '-R 3 2"'
_space_group_name_H-M_alt        'R -3 m :H'
_atom_sites_solution_hydrogens   mixed
_audit_creation_method           SHELXL-2018/3
_audit_update_record
;
2020-07-02 deposited with the CCDC.	2020-07-06 downloaded from the CCDC.
;
_cell_angle_alpha                90
_cell_angle_beta                 90
_cell_angle_gamma                120
_cell_formula_units_Z            9
_cell_length_a                   15.2848(7)
_cell_length_b                   15.2848(7)
_cell_length_c                   56.084(3)
_cell_measurement_reflns_used    9788
_cell_measurement_temperature    193(2)
_cell_measurement_theta_max      28.30
_cell_measurement_theta_min      2.67
_cell_volume                     11347.2(10)
_computing_cell_refinement       'Bruker SAINT'
_computing_data_collection       'Bruker APEX2'
_computing_data_reduction        'Bruker SAINT'
_computing_molecular_graphics    'Bruker SHELXTL'
_computing_publication_material  'Bruker SHELXTL'
_computing_structure_refinement  'SHELXL-2018/3 (Sheldrick, 2018)'
_computing_structure_solution    'SHELXT 2014/5 (Sheldrick, 2014)'
_diffrn_ambient_temperature      193(2)
_diffrn_measured_fraction_theta_full 0.985
_diffrn_measured_fraction_theta_max 0.989
_diffrn_measurement_device_type  'Bruker APEX-II CCD'
_diffrn_measurement_method       '\f and \w scans'
_diffrn_radiation_type           MoK\a
_diffrn_radiation_wavelength     0.71073
_diffrn_reflns_av_R_equivalents  0.0347
_diffrn_reflns_av_unetI/netI     0.0157
_diffrn_reflns_Laue_measured_fraction_full 0.985
_diffrn_reflns_Laue_measured_fraction_max 0.989
_diffrn_reflns_limit_h_max       20
_diffrn_reflns_limit_h_min       -20
_diffrn_reflns_limit_k_max       14
_diffrn_reflns_limit_k_min       -20
_diffrn_reflns_limit_l_max       74
_diffrn_reflns_limit_l_min       -74
_diffrn_reflns_number            37905
_diffrn_reflns_point_group_measured_fraction_full 0.985
_diffrn_reflns_point_group_measured_fraction_max 0.989
_diffrn_reflns_theta_full        25.242
_diffrn_reflns_theta_max         28.298
_diffrn_reflns_theta_min         2.179
_exptl_absorpt_coefficient_mu    1.411
_exptl_absorpt_correction_T_max  0.0962
_exptl_absorpt_correction_T_min  0.0682
_exptl_absorpt_correction_type   multi-scan
_exptl_absorpt_process_details   sadabs
_exptl_crystal_density_diffrn    1.380
_exptl_crystal_description       block
_exptl_crystal_F_000             4590
_exptl_crystal_size_max          0.120
_exptl_crystal_size_mid          0.110
_exptl_crystal_size_min          0.080
_refine_diff_density_max         0.533
_refine_diff_density_min         -0.717
_refine_diff_density_rms         0.092
_refine_ls_extinction_method     none
_refine_ls_goodness_of_fit_ref   1.136
_refine_ls_hydrogen_treatment    constr
_refine_ls_matrix_type           full
_refine_ls_number_parameters     186
_refine_ls_number_reflns         3459
_refine_ls_number_restraints     198
_refine_ls_restrained_S_all      1.127
_refine_ls_R_factor_all          0.0285
_refine_ls_R_factor_gt           0.0275
_refine_ls_shift/su_max          0.005
_refine_ls_shift/su_mean         0.000
_refine_ls_structure_factor_coef Fsqd
_refine_ls_weighting_details
'w=1/[\s^2^(Fo^2^)+(0.0336P)^2^+78.3523P] where P=(Fo^2^+2Fc^2^)/3'
_refine_ls_weighting_scheme      calc
_refine_ls_wR_factor_gt          0.0793
_refine_ls_wR_factor_ref         0.0801
_reflns_Friedel_coverage         0.000
_reflns_number_gt                3340
_reflns_number_total             3459
_reflns_threshold_expression     'I > 2\s(I)'
_cod_data_source_file            c9dt04679h2.cif
_cod_data_source_block           1117
_cod_depositor_comments
;Adding full bibliography for 7704923.cif.

 Adding full bibliography for 7704923.cif.
;
_cod_original_cell_volume        11347.2(12)
_cod_database_code               7704923
_shelx_shelxl_version_number     2018/3
_shelx_space_group_comment
;
The symmetry employed for this shelxl refinement is uniquely defined
by the following loop, which should always be used as a source of
symmetry information in preference to the above space-group names.
They are only intended as comments.
;
_shelx_estimated_absorpt_t_min   0.849
_shelx_estimated_absorpt_t_max   0.896
_shelx_res_file
;
TITL 20200527zh_jhgz1117_0m_a.res in R-3m
    1117.res
    created by SHELXL-2018/3 at 20:19:11 on 17-Jun-2020
CELL  0.71073  15.2848  15.2848  56.0840   90.000   90.000  120.000
ZERR  9   0.0007   0.0007   0.0026    0.000    0.000    0.000
LATT 3
SYMM -Y, X-Y, Z
SYMM -X+Y, -X, Z
SYMM Y, X, -Z
SYMM X-Y, -Y, -Z
SYMM -X, -X+Y, -Z
SFAC C  H  In N  O
UNIT 324 207 27 36 108
omit    -2   2   2
omit    -1   1   4
omit    -3   6   3
omit    -1  10  10
omit    -1   2   0
omit    -3   3   9
omit    -1   2   3
omit    -2   2   5
L.S. 8
ACTA
BOND $H
FMAP 2
PLAN 20
LIST 6
abin
size .12 .11 .08
simu 0.01 0.02  2
TEMP -80
WGHT    0.033600   78.352303
FVAR       0.11017   0.82521
C1    1    0.637820    0.602935    0.455057    11.00000    0.02375    0.03805 =
         0.02194    0.00585    0.00454    0.01928
C2    1    0.734053    0.625285    0.442806    11.00000    0.02623    0.04246 =
         0.02383    0.00712    0.00536    0.02126
C3    1    0.803994    0.607988    0.454440    10.50000    0.02741    0.04018 =
         0.02152    0.00674    0.00337    0.02009
AFIX   3
H3A   2    0.792134    0.584208    0.470620    10.50000   -1.20000
AFIX   0
C4    1    0.750626    0.658751    0.419274    11.00000    0.03309    0.06237 =
         0.02719    0.01225    0.00509    0.03143
AFIX   3
H4A   2    0.702186    0.670350    0.411094    11.00000   -1.20000
AFIX   0
C5    1    0.837251    0.674502    0.407831    10.50000    0.03869    0.06868 =
         0.02343    0.01315    0.00657    0.03434
IN1   3    0.419977    0.580023    0.446479    10.50000    0.01997    0.01997 =
         0.01271    0.00003   -0.00003    0.01341
IN2   3    0.500000    0.500000    0.500000    10.25000    0.01931    0.01931 =
         0.01128    0.00012   -0.00012    0.01134
O1    5    0.627175    0.572269    0.476088    11.00000    0.02837    0.06131 =
         0.02765    0.01872    0.01098    0.02807
O2    5    0.576519    0.615659    0.443099    11.00000    0.02777    0.06458 =
         0.02389    0.00921    0.00525    0.03139
O3    5    0.429480    0.570520    0.483504    10.50000    0.03740    0.03740 =
         0.01382    0.00015   -0.00015    0.02905
AFIX   3
H3M   2    0.399961    0.600023    0.492682    10.25000   -1.20000
AFIX   0
O4    5    0.471130    0.735565    0.444859    10.50000    0.02278    0.02014 =
         0.03147    0.00039    0.00077    0.01139
PART -1
C6    1    0.354798    0.496330    0.392589    20.50000    0.03085    0.03686 =
         0.02112    0.00512   -0.00134    0.01893
AFIX  43
H6A   2    0.295233    0.446839    0.400363    20.50000   -1.20000
AFIX   0
C7    1    0.362147    0.486287    0.368443    20.50000    0.03938    0.04023 =
         0.01064   -0.00091    0.00012    0.01886
AFIX  43
H7A   2    0.309658    0.431349    0.359940    20.50000   -1.20000
AFIX   0
C9    1    0.522077    0.638292    0.371703    20.50000    0.04391    0.04495 =
         0.02525    0.00071    0.00149    0.01457
AFIX  43
H9A   2    0.581613    0.689542    0.364274    20.50000   -1.20000
AFIX   0
C10   1    0.508841    0.641798    0.395556    20.50000    0.03762    0.03780 =
         0.01644   -0.00129    0.00119    0.01689
AFIX  43
H10A  2    0.559731    0.695462    0.404695    20.50000   -1.20000
PART 0
AFIX  66
C11   1    0.457448    0.542552    0.331729    10.50000    0.05620    0.05620 =
         0.02456   -0.00833    0.00833    0.01498
PART -1
C12   1    0.552271    0.566839    0.323066    10.50000    0.04645    0.09446 =
         0.04510   -0.01142    0.00387    0.01308
AFIX  43
H12A  2    0.608358    0.591923    0.333604    10.50000   -1.20000
AFIX  65
C13   1    0.564953    0.554410    0.299001    10.50000    0.04365    0.09077 =
         0.04165   -0.01219   -0.00114    0.01321
AFIX  43
H13A  2    0.629710    0.571092    0.293083    10.50000   -1.20000
PART 0
AFIX  65
N2    4    0.482813    0.517554    0.283599    10.50000    0.04709    0.04709 =
         0.02497   -0.00987    0.00987    0.00412
PART -1
C14   1    0.387987    0.492590    0.292261    10.50000    0.04437    0.10013 =
         0.03257   -0.01267    0.00245    0.01928
AFIX  43
H14A  2    0.331814    0.467028    0.281741    10.50000   -1.20000
AFIX  65
C15   1    0.375304    0.505018    0.316326    10.50000    0.04320    0.10277 =
         0.03293   -0.01806    0.00081    0.01736
AFIX  43
H15A  2    0.310419    0.487838    0.322251    10.50000   -1.20000
PART 0
AFIX  65
N1    4    0.426632    0.572043    0.406229    10.50000    0.03125    0.03125 =
         0.01615    0.00042   -0.00042    0.01783
PART -2
C6A   1    0.398359    0.623993    0.390465   -20.50000    0.03191    0.04059 =
         0.02223    0.00025   -0.00145    0.01567
AFIX  43
H6AA  2    0.373111    0.665307    0.396409   -20.50000   -1.20000
AFIX  65
C7A   1    0.407165    0.615255    0.366030   -20.50000    0.04116    0.04593 =
         0.02052   -0.00078   -0.00063    0.01492
AFIX  43
H7AA  2    0.387761    0.650493    0.355262   -20.50000   -1.20000
PART 0
AFIX  65
C8    1    0.444247    0.555149    0.357357    10.50000    0.04836    0.04836 =
         0.02241   -0.00346    0.00346    0.01868
PART -2
C9A   1    0.472522    0.503263    0.373120   -20.50000    0.04431    0.04457 =
         0.02356   -0.00349    0.00268    0.01773
AFIX  43
H9AA  2    0.497788    0.461961    0.367179   -20.50000   -1.20000
AFIX  65
C10A  1    0.463716    0.512001    0.397556   -20.50000    0.03730    0.03893 =
         0.02261    0.00028   -0.00129    0.01876
AFIX  43
H10B  2    0.483140    0.476774    0.408322   -20.50000   -1.20000
PART 0
AFIX   0
HKLF 4




REM  20200527zh_jhgz1117_0m_a.res in R-3m
REM wR2 = 0.0801, GooF = S = 1.136, Restrained GooF = 1.127 for all data
REM R1 = 0.0275 for 3340 Fo > 4sig(Fo) and 0.0285 for all 3459 data
REM 186 parameters refined using 198 restraints

END

WGHT      0.0323     80.0685

REM Highest difference peak  0.533,  deepest hole -0.717,  1-sigma level  0.092
Q1    1   0.3808  0.4754  0.3181  11.00000  0.05    0.50
Q2    1   0.5359  0.7679  0.4462  10.50000  0.05    0.47
Q3    1   0.3333  0.6667  0.5171  10.16667  0.05    0.44
Q4    1   0.6003  0.3997  0.4113  10.50000  0.05    0.42
Q5    1   0.6791  0.5485  0.2951  11.00000  0.05    0.38
Q6    1   0.5907  0.5172  0.4726  11.00000  0.05    0.37
Q7    1   0.5378  0.5378  0.5000  10.50000  0.05    0.36
Q8    1   0.6883  0.6239  0.4498  11.00000  0.05    0.36
Q9    1   0.4027  0.7014  0.4216  10.50000  0.05    0.35
Q10   1   0.6469  0.3531  0.4169  10.50000  0.05    0.33
Q11   1   0.6889  0.3777  0.4125  10.50000  0.05    0.33
Q12   1   0.4166  0.5834  0.3148  10.50000  0.05    0.33
Q13   1   0.5983  0.6956  0.3823  11.00000  0.05    0.32
Q14   1   0.9231  0.7762  0.5048  11.00000  0.05    0.32
Q15   1   0.8096  0.6192  0.5186  10.50000  0.05    0.32
Q16   1   0.6493  0.6297  0.4681  11.00000  0.05    0.30
Q17   1   0.5538  0.5623  0.4427  11.00000  0.05    0.30
Q18   1   0.8085  0.9042  0.4504  10.50000  0.05    0.30
Q19   1   0.8068  0.6914  0.4149  11.00000  0.05    0.29
Q20   1   0.2739  0.5478  0.3208  10.50000  0.05    0.29
;
_shelx_res_checksum              24468
_shelx_fab_file
;
   -1    2    0    228.78      0.00
   -2    4    0    309.29      0.00
   -1    5    0     11.37      0.00
   -3    6    0    128.17      0.00
    0    6    0    107.69      0.00
   -2    7    0     12.93      0.00
   -1    8    0     31.60      0.00
   -3    9    0      5.93      0.00
    0    9    0     24.86      0.00
   -2   10    0     30.18      0.00
   -5   10    0     88.32      0.00
   -1   11    0     20.65      0.00
   -4   11    0      0.23      0.00
   -3   12    0     22.35      0.00
   -6   12    0     35.93      0.00
    0   12    0     25.19      0.00
   -2   13    0     15.05      0.00
   -5   13    0      3.95      0.00
   -1   14    0     10.24      0.00
   -4   14    0     19.84      0.00
   -7   14    0     16.14      0.00
   -3   15    0      6.42      0.00
   -6   15    0      5.79      0.00
    0   15    0      6.18      0.00
   -2   16    0      3.63      0.00
   -5   16    0     14.91      0.00
   -8   16    0     27.47      0.00
   -1   17    0      1.93      0.00
   -4   17    0      2.58      0.00
   -7   17    0      8.11      0.00
   -3   18    0      3.21      0.00
   -6   18    0      7.16      0.00
   -9   18    0     14.39      0.00
   -5   19    0      5.00      0.00
   -8   19    0      6.75      0.00
   -7   20    0      3.52      0.00
  -10   20    0      0.25      0.00
   -3    5    1    -57.61      0.00
   -1    4    1     15.80      0.00
   -4    7    1     36.91      0.00
   -2    6    1    134.11      0.00
   -5    9    1    -34.44      0.00
   -5    6    1     49.04      0.00
    0    5    1     -4.61      0.00
   -3    8    1     52.08      0.00
   -6   11    1      5.36      0.00
   -6    8    1     72.14      0.00
   -1    7    1      1.94      0.00
   -4   10    1      8.27      0.00
   -7   13    1      0.06      0.00
   -7   10    1     36.15      0.00
   -7    7    1    -30.86      0.00
   -2    9    1      2.12      0.00
   -5   12    1     34.73      0.00
   -8   15    1      0.61      0.00
   -8   12    1     16.76      0.00
   -8    9    1     21.21      0.00
    0    8    1     -0.01      0.00
   -3   11    1     -0.93      0.00
   -6   14    1     13.53      0.00
   -9   17    1     -9.36      0.00
   -9   14    1     16.09      0.00
   -9   11    1      4.65      0.00
   -1   10    1     19.34      0.00
   -4   13    1     14.91      0.00
   -7   16    1      8.81      0.00
  -10   19    1     -3.32      0.00
  -10   16    1      8.52      0.00
  -10   13    1     -1.98      0.00
  -10   10    1     32.01      0.00
   -2   12    1     10.30      0.00
   -5   15    1      2.30      0.00
   -8   18    1      3.78      0.00
  -11   18    1      7.66      0.00
  -11   15    1      0.48      0.00
  -11   12    1      9.39      0.00
    0   11    1     14.30      0.00
   -3   14    1      3.63      0.00
   -6   17    1      7.55      0.00
   -9   20    1     13.83      0.00
  -12   20    1      4.09      0.00
  -12   17    1      6.64      0.00
  -12   14    1      4.10      0.00
   -1   13    1     -0.09      0.00
   -4   16    1      5.62      0.00
   -7   19    1      4.56      0.00
  -13   19    1      1.21      0.00
  -13   16    1      9.29      0.00
  -13   13    1      1.82      0.00
   -2   15    1     14.48      0.00
   -5   18    1      7.56      0.00
  -14   18    1      3.65      0.00
  -14   15    1      9.42      0.00
    0   14    1      6.98      0.00
   -3   17    1      3.88      0.00
  -15   17    1     -4.07      0.00
   -1   16    1      0.32      0.00
   -4   19    1      3.21      0.00
  -16   16    1    -15.14      0.00
   -2   18    1      0.08      0.00
  -17   18    1      0.15      0.00
    0   17    1     -1.75      0.00
   -2    2    2    213.81      0.00
   -1    3    2   -209.00      0.00
   -3    4    2     49.96      0.00
   -2    5    2    -18.82      0.00
   -4    6    2     65.98      0.00
    0    4    2    -81.09      0.00
   -3    7    2    -40.85      0.00
   -5    8    2     34.17      0.00
   -5    5    2    -97.13      0.00
   -1    6    2    -25.16      0.00
   -4    9    2      0.77      0.00
   -6   10    2      9.99      0.00
   -6    7    2    -24.36      0.00
   -2    8    2    -28.25      0.00
   -5   11    2     -8.96      0.00
   -7   12    2     23.40      0.00
   -7    9    2    -45.58      0.00
    0    7    2     29.90      0.00
   -3   10    2     -9.45      0.00
   -6   13    2     -5.49      0.00
   -8   14    2     -1.90      0.00
   -8   11    2     -9.84      0.00
   -8    8    2     -7.04      0.00
   -1    9    2      0.32      0.00
   -4   12    2    -17.05      0.00
   -7   15    2     -7.66      0.00
   -9   16    2      4.10      0.00
   -9   13    2     -4.01      0.00
   -9   10    2     14.68      0.00
   -2   11    2      7.37      0.00
   -5   14    2     -4.86      0.00
   -8   17    2     -2.97      0.00
  -10   18    2     -3.32      0.00
  -10   15    2     -3.24      0.00
  -10   12    2      9.18      0.00
    0   10    2     -4.18      0.00
   -3   13    2     -9.18      0.00
   -6   16    2     -0.19      0.00
   -9   19    2      1.40      0.00
  -11   20    2      2.28      0.00
  -11   17    2    -13.92      0.00
  -11   14    2      3.23      0.00
  -11   11    2     -8.01      0.00
   -1   12    2     -5.90      0.00
   -4   15    2      7.31      0.00
   -7   18    2      8.53      0.00
  -12   19    2     -1.38      0.00
  -12   16    2     -3.24      0.00
  -12   13    2     -7.39      0.00
   -2   14    2     -3.60      0.00
   -5   17    2      1.51      0.00
   -8   20    2     -7.46      0.00
  -13   18    2     -2.56      0.00
  -13   15    2    -21.00      0.00
    0   13    2     13.75      0.00
   -3   16    2     -2.48      0.00
   -6   19    2     -1.81      0.00
  -14   17    2     -2.53      0.00
  -14   14    2    -16.34      0.00
   -1   15    2     -8.61      0.00
   -4   18    2      0.70      0.00
  -15   19    2     -3.92      0.00
  -15   16    2      6.13      0.00
   -2   17    2      2.00      0.00
  -16   18    2     -3.08      0.00
    0   16    2     -3.50      0.00
  -17   17    2      2.55      0.00
   -1   18    2     -5.09      0.00
   -1    2    3    -76.51      0.00
   -2    4    3    -90.39      0.00
   -3    6    3     42.14      0.00
   -4    5    3     29.91      0.00
   -1    5    3    -68.92      0.00
   -4    8    3    -22.84      0.00
   -5    7    3    -29.78      0.00
   -2    7    3     57.64      0.00
   -5   10    3     -0.90      0.00
   -6    9    3     -2.78      0.00
   -6    6    3    -17.92      0.00
    0    6    3    -75.04      0.00
   -3    9    3    -35.63      0.00
   -6   12    3    -17.13      0.00
   -7   11    3    -26.94      0.00
   -7    8    3    -11.35      0.00
   -1    8    3    -32.83      0.00
   -4   11    3     -7.26      0.00
   -7   14    3     -6.51      0.00
   -8   13    3    -17.96      0.00
   -8   10    3     -7.49      0.00
   -2   10    3    -57.11      0.00
   -5   13    3    -10.29      0.00
   -8   16    3    -10.42      0.00
   -9   15    3    -20.04      0.00
   -9   12    3     -9.05      0.00
   -9    9    3    -25.70      0.00
    0    9    3      4.93      0.00
   -3   12    3     -7.76      0.00
   -6   15    3     -7.71      0.00
   -9   18    3     -1.73      0.00
  -10   17    3     -6.73      0.00
  -10   14    3    -14.00      0.00
  -10   11    3     -8.04      0.00
   -1   11    3     -5.14      0.00
   -4   14    3    -17.72      0.00
   -7   17    3     -3.77      0.00
  -10   20    3      2.21      0.00
  -11   19    3     -4.97      0.00
  -11   16    3      6.06      0.00
  -11   13    3    -23.67      0.00
   -2   13    3      0.04      0.00
   -5   16    3    -12.25      0.00
   -8   19    3     -1.02      0.00
  -12   18    3     -4.56      0.00
  -12   15    3     -5.94      0.00
  -12   12    3      0.09      0.00
    0   12    3     -9.90      0.00
   -3   15    3    -13.53      0.00
   -6   18    3     -5.74      0.00
  -13   20    3      2.01      0.00
  -13   17    3    -14.73      0.00
  -13   14    3      5.61      0.00
   -1   14    3     -6.85      0.00
   -4   17    3     -1.02      0.00
   -7   20    3      0.11      0.00
  -14   19    3     -5.13      0.00
  -14   16    3     -8.45      0.00
   -2   16    3     -1.61      0.00
   -5   19    3      8.26      0.00
  -15   18    3      2.23      0.00
  -15   15    3    -14.37      0.00
    0   15    3      1.54      0.00
   -3   18    3      0.15      0.00
  -16   17    3     -7.10      0.00
   -1   17    3     -8.49      0.00
   -1    1    4    -29.87      0.00
   -2    3    4     27.10      0.00
   -3    5    4    -51.70      0.00
   -4    7    4     21.40      0.00
   -4    4    4    -14.84      0.00
   -2    6    4   -118.30      0.00
   -5    9    4    -20.72      0.00
   -5    6    4     -6.15      0.00
    0    5    4     54.20      0.00
   -3    8    4    -36.51      0.00
   -6   11    4      2.36      0.00
   -6    8    4    -34.54      0.00
   -1    7    4     -1.06      0.00
   -4   10    4    -50.28      0.00
   -7   13    4     -6.28      0.00
   -7   10    4    -13.66      0.00
   -7    7    4    -69.10      0.00
   -2    9    4     10.58      0.00
   -5   12    4      0.43      0.00
   -8   15    4     -6.67      0.00
   -8   12    4     -9.14      0.00
   -8    9    4    -17.22      0.00
    0    8    4    -67.05      0.00
   -3   11    4     -9.67      0.00
   -6   14    4    -19.75      0.00
   -9   17    4    -13.55      0.00
   -9   14    4     -2.13      0.00
   -9   11    4     -8.71      0.00
   -1   10    4     -5.84      0.00
   -4   13    4      3.13      0.00
   -7   16    4     -3.61      0.00
  -10   19    4     -4.39      0.00
  -10   16    4    -14.97      0.00
  -10   13    4    -13.44      0.00
  -10   10    4      9.55      0.00
   -2   12    4    -26.02      0.00
   -5   15    4     -6.51      0.00
   -8   18    4     -2.54      0.00
  -11   18    4     -0.23      0.00
  -11   15    4     -9.43      0.00
  -11   12    4     -7.91      0.00
    0   11    4    -11.95      0.00
   -3   14    4     -6.22      0.00
   -6   17    4     -3.53      0.00
   -9   20    4      7.46      0.00
  -12   20    4     -3.97      0.00
  -12   17    4     -0.46      0.00
  -12   14    4    -17.02      0.00
   -1   13    4     -8.80      0.00
   -4   16    4     -4.46      0.00
   -7   19    4      4.56      0.00
  -13   19    4      1.38      0.00
  -13   16    4     11.19      0.00
  -13   13    4    -21.99      0.00
   -2   15    4     -8.99      0.00
   -5   18    4     -9.69      0.00
  -14   18    4     -2.52      0.00
  -14   15    4     -3.55      0.00
    0   14    4     -7.95      0.00
   -3   17    4     -4.81      0.00
  -15   17    4      1.97      0.00
   -1   16    4     -6.79      0.00
   -4   19    4     -0.28      0.00
  -16   16    4      1.61      0.00
   -2   18    4      1.59      0.00
  -17   18    4      4.43      0.00
    0   17    4      6.07      0.00
   -2    2    5   -128.24      0.00
   -1    3    5    -32.74      0.00
   -3    4    5     24.52      0.00
   -2    5    5     44.31      0.00
   -4    6    5    -14.94      0.00
   -3    7    5     18.69      0.00
   -5    8    5      4.44      0.00
   -5    5    5    -15.34      0.00
   -1    6    5    -12.01      0.00
   -4    9    5     16.40      0.00
   -6   10    5      1.34      0.00
   -6    7    5      3.56      0.00
   -2    8    5    -23.38      0.00
   -5   11    5      9.72      0.00
   -7   12    5     -2.50      0.00
   -7    9    5      4.29      0.00
    0    7    5     51.58      0.00
   -3   10    5    -17.86      0.00
   -6   13    5     -0.34      0.00
   -8   14    5    -10.35      0.00
   -8   11    5     -1.31      0.00
   -8    8    5     -8.78      0.00
   -1    9    5      1.29      0.00
   -4   12    5    -16.51      0.00
   -7   15    5      3.69      0.00
   -9   16    5      1.99      0.00
   -9   13    5     -3.98      0.00
   -9   10    5     -5.02      0.00
   -2   11    5      6.70      0.00
   -5   14    5      1.42      0.00
   -8   17    5     -4.98      0.00
  -10   18    5     -1.02      0.00
  -10   15    5     -0.19      0.00
  -10   12    5      6.32      0.00
    0   10    5     -5.60      0.00
   -3   13    5     -0.41      0.00
   -6   16    5     -6.87      0.00
   -9   19    5      2.54      0.00
  -11   20    5      4.62      0.00
  -11   17    5      5.28      0.00
  -11   14    5      0.04      0.00
  -11   11    5      1.37      0.00
   -1   12    5      1.34      0.00
   -4   15    5     -6.75      0.00
   -7   18    5     -2.50      0.00
  -12   19    5     -2.03      0.00
  -12   16    5     -0.56      0.00
  -12   13    5      0.29      0.00
   -2   14    5     -4.95      0.00
   -5   17    5      2.74      0.00
   -8   20    5      2.09      0.00
  -13   18    5      7.38      0.00
  -13   15    5      1.05      0.00
    0   13    5     -2.24      0.00
   -3   16    5     -2.83      0.00
   -6   19    5      3.99      0.00
  -14   17    5     -4.33      0.00
  -14   14    5      0.96      0.00
   -1   15    5      1.00      0.00
   -4   18    5     19.60      0.00
  -15   19    5     -1.52      0.00
  -15   16    5      0.39      0.00
   -2   17    5      1.89      0.00
  -16   18    5      3.59      0.00
    0   16    5      0.30      0.00
  -17   17    5      0.38      0.00
   -1   18    5      6.99      0.00
    0    0    6     87.62      0.00
   -1    2    6      8.44      0.00
   -2    4    6     15.39      0.00
   -3    3    6    129.59      0.00
   -3    6    6    -15.50      0.00
   -4    5    6     84.14      0.00
   -1    5    6     32.59      0.00
   -4    8    6     12.88      0.00
   -5    7    6     24.92      0.00
   -2    7    6     52.60      0.00
   -5   10    6     25.85      0.00
   -6    9    6     28.44      0.00
   -6    6    6     14.38      0.00
    0    6    6     70.70      0.00
   -3    9    6     34.48      0.00
   -6   12    6     10.58      0.00
   -7   11    6     19.17      0.00
   -7    8    6     -8.06      0.00
   -1    8    6     15.42      0.00
   -4   11    6     20.46      0.00
   -7   14    6      6.03      0.00
   -8   13    6      5.32      0.00
   -8   10    6     22.09      0.00
   -2   10    6     14.92      0.00
   -5   13    6     18.80      0.00
   -8   16    6      7.05      0.00
   -9   15    6      6.63      0.00
   -9   12    6     -1.36      0.00
   -9    9    6     20.74      0.00
    0    9    6     14.10      0.00
   -3   12    6     12.29      0.00
   -6   15    6     -3.58      0.00
   -9   18    6      3.99      0.00
  -10   17    6     -4.25      0.00
  -10   14    6     -0.67      0.00
  -10   11    6      9.39      0.00
   -1   11    6      7.69      0.00
   -4   14    6      4.19      0.00
   -7   17    6      6.89      0.00
  -10   20    6      8.42      0.00
  -11   19    6      4.15      0.00
  -11   16    6      8.68      0.00
  -11   13    6      1.66      0.00
   -2   13    6      3.89      0.00
   -5   16    6      4.42      0.00
   -8   19    6     10.05      0.00
  -12   18    6      0.99      0.00
  -12   15    6      5.06      0.00
  -12   12    6     11.98      0.00
    0   12    6      9.26      0.00
   -3   15    6      5.27      0.00
   -6   18    6      3.65      0.00
  -13   20    6      3.13      0.00
  -13   17    6     12.29      0.00
  -13   14    6      6.18      0.00
   -1   14    6     11.27      0.00
   -4   17    6     -2.95      0.00
   -7   20    6     -4.11      0.00
  -14   19    6      4.17      0.00
  -14   16    6     13.49      0.00
   -2   16    6      4.67      0.00
   -5   19    6     -4.45      0.00
  -15   18    6      1.91      0.00
  -15   15    6     14.15      0.00
    0   15    6     -1.85      0.00
   -3   18    6      3.13      0.00
  -16   17    6     -2.22      0.00
   -1   17    6      1.00      0.00
   -2    3    7     96.05      0.00
    0    2    7    201.34      0.00
   -3    5    7     56.14      0.00
   -1    4    7     34.01      0.00
   -4    7    7     23.13      0.00
   -4    4    7     98.49      0.00
   -2    6    7     58.84      0.00
   -5    9    7     18.73      0.00
   -5    6    7     -2.33      0.00
    0    5    7     -3.59      0.00
   -3    8    7      9.67      0.00
   -6   11    7     17.74      0.00
   -6    8    7     52.49      0.00
   -1    7    7     53.63      0.00
   -4   10    7     21.61      0.00
   -7   13    7     11.76      0.00
   -7   10    7     10.84      0.00
   -7    7    7     30.20      0.00
   -2    9    7     21.60      0.00
   -5   12    7      6.41      0.00
   -8   15    7      6.73      0.00
   -8   12    7     16.00      0.00
   -8    9    7     16.08      0.00
    0    8    7     54.11      0.00
   -3   11    7      9.87      0.00
   -6   14    7     22.04      0.00
   -9   17    7      7.89      0.00
   -9   14    7     -0.35      0.00
   -9   11    7     24.10      0.00
   -1   10    7     11.58      0.00
   -4   13    7     12.46      0.00
   -7   16    7      8.52      0.00
  -10   19    7     -0.25      0.00
  -10   16    7     13.43      0.00
  -10   13    7      2.98      0.00
  -10   10    7     13.52      0.00
   -2   12    7     22.15      0.00
   -5   15    7     12.77      0.00
   -8   18    7      5.84      0.00
  -11   18    7      5.43      0.00
  -11   15    7     15.08      0.00
  -11   12    7      3.91      0.00
    0   11    7     -1.84      0.00
   -3   14    7     13.50      0.00
   -6   17    7      2.88      0.00
   -9   20    7      2.52      0.00
  -12   20    7     -2.22      0.00
  -12   17    7     11.74      0.00
  -12   14    7     10.40      0.00
   -1   13    7     10.24      0.00
   -4   16    7     13.08      0.00
   -7   19    7      0.71      0.00
  -13   19    7      9.74      0.00
  -13   16    7      1.66      0.00
  -13   13    7     11.51      0.00
   -2   15    7     -2.72      0.00
   -5   18    7     12.34      0.00
  -14   18    7     10.93      0.00
  -14   15    7      1.21      0.00
    0   14    7     12.82      0.00
   -3   17    7      4.56      0.00
  -15   17    7      8.41      0.00
   -1   16    7     10.20      0.00
   -4   19    7      3.06      0.00
  -16   16    7      6.13      0.00
   -2   18    7      3.74      0.00
  -17   18    7     -5.45      0.00
    0   17    7     -6.61      0.00
    0    1    8    -31.14      0.00
   -2    2    8    124.55      0.00
   -1    3    8      2.79      0.00
   -3    4    8     63.74      0.00
   -2    5    8    -36.82      0.00
   -4    6    8     41.51      0.00
   -3    7    8    -29.56      0.00
   -5    8    8    -18.69      0.00
   -5    5    8     53.16      0.00
   -1    6    8     19.41      0.00
   -4    9    8     20.27      0.00
   -6   10    8     38.82      0.00
   -6    7    8    -11.25      0.00
   -2    8    8     52.29      0.00
   -5   11    8     10.09      0.00
   -7   12    8     -7.60      0.00
   -7    9    8     16.34      0.00
    0    7    8     -0.67      0.00
   -3   10    8     13.96      0.00
   -6   13    8      0.09      0.00
   -8   14    8      9.37      0.00
   -8   11    8     10.74      0.00
   -8    8    8     11.37      0.00
   -1    9    8     15.13      0.00
   -4   12    8     13.34      0.00
   -7   15    8      1.44      0.00
   -9   16    8     -3.61      0.00
   -9   13    8      8.60      0.00
   -9   10    8      1.99      0.00
   -2   11    8      4.12      0.00
   -5   14    8    -10.31      0.00
   -8   17    8     -1.05      0.00
  -10   18    8      6.35      0.00
  -10   15    8      0.28      0.00
  -10   12    8      3.00      0.00
    0   10    8     43.98      0.00
   -3   13    8     -6.32      0.00
   -6   16    8      2.47      0.00
   -9   19    8      6.36      0.00
  -11   20    8      5.37      0.00
  -11   17    8     -2.92      0.00
  -11   14    8    -10.79      0.00
  -11   11    8     10.51      0.00
   -1   12    8      3.31      0.00
   -4   15    8     -5.21      0.00
   -7   18    8      3.63      0.00
  -12   19    8      3.75      0.00
  -12   16    8      3.09      0.00
  -12   13    8     -2.76      0.00
   -2   14    8      7.25      0.00
   -5   17    8      0.42      0.00
   -8   20    8     -3.28      0.00
  -13   18    8     -9.94      0.00
  -13   15    8      2.02      0.00
    0   13    8      5.46      0.00
   -3   16    8      6.75      0.00
   -6   19    8     -1.27      0.00
  -14   17    8     -2.39      0.00
  -14   14    8      7.72      0.00
   -1   15    8      3.10      0.00
   -4   18    8      5.24      0.00
  -15   19    8     -0.40      0.00
  -15   16    8     -3.99      0.00
   -2   17    8     -2.78      0.00
  -16   18    8      3.04      0.00
    0   16    8      2.43      0.00
  -17   17    8      0.64      0.00
   -1   18    8     -1.71      0.00
   -1    2    9    -18.82      0.00
   -2    4    9     44.35      0.00
   -3    3    9    -26.65      0.00
    0    3    9    -27.42      0.00
   -3    6    9    -26.58      0.00
   -4    5    9    -40.07      0.00
   -1    5    9    -75.83      0.00
   -4    8    9      4.04      0.00
   -5    7    9    -19.94      0.00
   -2    7    9    -21.13      0.00
   -5   10    9    -14.33      0.00
   -6    9    9    -13.88      0.00
   -6    6    9      3.27      0.00
   -3    9    9     -7.57      0.00
   -6   12    9      2.69      0.00
   -7   11    9     -4.85      0.00
   -7    8    9    -10.69      0.00
   -1    8    9     11.13      0.00
   -4   11    9    -16.77      0.00
   -7   14    9    -13.96      0.00
   -8   13    9     -5.33      0.00
   -8   10    9     -1.51      0.00
   -2   10    9     -1.85      0.00
   -5   13    9    -11.82      0.00
   -8   16    9      5.94      0.00
   -9   15    9     -4.26      0.00
   -9   12    9    -12.69      0.00
   -9    9    9      1.23      0.00
    0    9    9    -35.23      0.00
   -3   12    9     -9.71      0.00
   -6   15    9     -5.45      0.00
   -9   18    9     -6.00      0.00
  -10   17    9      1.64      0.00
  -10   14    9     -2.93      0.00
  -10   11    9    -13.10      0.00
   -1   11    9    -17.54      0.00
   -4   14    9      1.56      0.00
   -7   17    9     -2.49      0.00
  -10   20    9     -9.61      0.00
  -11   19    9     -7.41      0.00
  -11   16    9     -5.59      0.00
  -11   13    9     -4.77      0.00
   -2   13    9     -5.78      0.00
   -5   16    9     -8.72      0.00
   -8   19    9     -2.99      0.00
  -12   18    9     -1.67      0.00
  -12   15    9     -2.91      0.00
  -12   12    9     -3.34      0.00
    0   12    9      5.71      0.00
   -3   15    9     -7.02      0.00
   -6   18    9     -6.92      0.00
  -13   17    9     -6.13      0.00
  -13   14    9     -6.30      0.00
   -1   14    9     -3.82      0.00
   -4   17    9     -8.86      0.00
  -14   19    9      5.41      0.00
  -14   16    9     -3.91      0.00
   -2   16    9     -5.29      0.00
   -5   19    9     -2.63      0.00
  -15   18    9     -7.49      0.00
  -15   15    9     -7.22      0.00
    0   15    9     -2.19      0.00
   -3   18    9     -2.97      0.00
  -16   17    9    -10.28      0.00
   -1   17    9     -3.87      0.00
   -1    1   10   -119.30      0.00
   -2    3   10    -16.60      0.00
    0    2   10      8.61      0.00
   -3    5   10    -53.82      0.00
   -1    4   10     37.20      0.00
   -4    7   10    -58.32      0.00
   -4    4   10     43.95      0.00
   -2    6   10    -21.07      0.00
   -5    9   10    -27.66      0.00
   -5    6   10    -12.04      0.00
    0    5   10      2.14      0.00
   -3    8   10    -20.37      0.00
   -6   11   10    -14.08      0.00
   -6    8   10     -5.74      0.00
   -1    7   10    -26.65      0.00
   -4   10   10      6.34      0.00
   -7   13   10    -18.20      0.00
   -7   10   10    -10.46      0.00
   -7    7   10    -11.97      0.00
   -2    9   10     -7.63      0.00
   -5   12   10    -13.23      0.00
   -8   15   10     -1.72      0.00
   -8   12   10      1.22      0.00
   -8    9   10    -11.30      0.00
    0    8   10    -20.33      0.00
   -3   11   10     -6.99      0.00
   -6   14   10      5.95      0.00
   -9   17   10     -4.75      0.00
   -9   14   10    -13.09      0.00
   -9   11   10     -4.00      0.00
   -1   10   10     35.59      0.00
   -4   13   10     -4.54      0.00
   -7   16   10    -14.26      0.00
  -10   19   10     14.50      0.00
  -10   16   10     -2.86      0.00
  -10   13   10     -5.48      0.00
  -10   10   10    -11.81      0.00
   -2   12   10      2.30      0.00
   -5   15   10    -12.14      0.00
   -8   18   10     -0.81      0.00
  -11   18   10      4.23      0.00
  -11   15   10     -8.56      0.00
  -11   12   10    -12.89      0.00
    0   11   10      4.53      0.00
   -3   14   10    -13.98      0.00
   -6   17   10     -1.39      0.00
   -9   20   10      4.67      0.00
  -12   20   10      3.71      0.00
  -12   17   10      1.34      0.00
  -12   14   10     -7.82      0.00
   -1   13   10     -4.08      0.00
   -4   16   10      1.99      0.00
   -7   19   10     -0.77      0.00
  -13   19   10     -0.61      0.00
  -13   16   10     -3.29      0.00
  -13   13   10     -6.92      0.00
   -2   15   10     -4.48      0.00
   -5   18   10    -10.60      0.00
  -14   18   10     -5.87      0.00
  -14   15   10      1.22      0.00
    0   14   10      0.06      0.00
   -3   17   10     -0.25      0.00
  -15   17   10     -1.77      0.00
   -1   16   10     -7.10      0.00
   -4   19   10     -0.50      0.00
  -16   16   10     -1.35      0.00
   -2   18   10     -2.64      0.00
    0   17   10      6.21      0.00
   -2    2   11    -48.17      0.00
   -1    3   11    -58.74      0.00
   -3    4   11     12.15      0.00
   -2    5   11    -27.18      0.00
   -4    6   11      2.96      0.00
    0    4   11    -68.49      0.00
   -3    7   11    -38.44      0.00
   -5    8   11     -7.87      0.00
   -5    5   11    -47.44      0.00
   -1    6   11    -31.97      0.00
   -4    9   11     -8.91      0.00
   -6   10   11      3.21      0.00
   -6    7   11     -3.52      0.00
   -2    8   11      2.89      0.00
   -5   11   11     -6.99      0.00
   -7   12   11      3.43      0.00
   -7    9   11    -23.24      0.00
    0    7   11     10.10      0.00
   -3   10   11      9.06      0.00
   -6   13   11     -8.43      0.00
   -8   14   11      5.41      0.00
   -8   11   11     -1.82      0.00
   -8    8   11      3.54      0.00
   -1    9   11      3.09      0.00
   -4   12   11    -14.55      0.00
   -7   15   11     -4.76      0.00
   -9   16   11      2.89      0.00
   -9   13   11      3.77      0.00
   -9   10   11     -6.37      0.00
   -2   11   11    -17.02      0.00
   -5   14   11    -14.47      0.00
   -8   17   11      5.81      0.00
  -10   18   11      0.19      0.00
  -10   15   11     11.47      0.00
  -10   12   11     -2.66      0.00
    0   10   11    -34.62      0.00
   -3   13   11    -11.80      0.00
   -6   16   11     -1.99      0.00
   -9   19   11     -3.91      0.00
  -11   20   11      5.94      0.00
  -11   17   11     -4.17      0.00
  -11   14   11      4.09      0.00
  -11   11   11    -13.51      0.00
   -1   12   11     -3.03      0.00
   -4   15   11      3.29      0.00
   -7   18   11      2.59      0.00
  -12   19   11      0.47      0.00
  -12   16   11     -8.97      0.00
  -12   13   11      2.75      0.00
   -2   14   11     -4.32      0.00
   -5   17   11      1.64      0.00
   -8   20   11     -2.95      0.00
  -13   18   11      1.39      0.00
  -13   15   11     -3.23      0.00
    0   13   11      5.07      0.00
   -3   16   11     -9.92      0.00
   -6   19   11      2.46      0.00
  -14   17   11      1.41      0.00
  -14   14   11    -10.11      0.00
   -1   15   11     -4.24      0.00
   -4   18   11      4.50      0.00
  -15   19   11     -0.64      0.00
  -15   16   11      2.11      0.00
   -2   17   11     12.38      0.00
  -16   18   11     -5.42      0.00
    0   16   11      6.91      0.00
  -17   17   11     -8.54      0.00
   -1    2   12    -10.57      0.00
   -2    4   12     28.40      0.00
   -3    3   12    -69.19      0.00
    0    3   12    100.04      0.00
   -3    6   12     10.55      0.00
   -4    5   12     -5.62      0.00
   -1    5   12     17.70      0.00
   -4    8   12      9.26      0.00
   -5    7   12    -24.59      0.00
   -2    7   12      7.41      0.00
   -5   10   12     24.27      0.00
   -6    9   12     -4.17      0.00
   -6    6   12     33.42      0.00
    0    6   12    -15.09      0.00
   -3    9   12     13.73      0.00
   -6   12   12     -1.99      0.00
   -7   11   12     -8.10      0.00
   -7    8   12     30.73      0.00
   -1    8   12    -15.84      0.00
   -4   11   12     -6.70      0.00
   -7   14   12      3.32      0.00
   -8   13   12     -9.41      0.00
   -8   10   12     12.21      0.00
   -2   10   12     -1.10      0.00
   -5   13   12     10.83      0.00
   -8   16   12      0.55      0.00
   -9   15   12     -7.66      0.00
   -9   12   12      8.40      0.00
   -9    9   12     -7.75      0.00
    0    9   12     11.21      0.00
   -3   12   12      9.06      0.00
   -6   15   12     -0.17      0.00
   -9   18   12      9.30      0.00
  -10   17   12      5.68      0.00
  -10   14   12     -5.45      0.00
  -10   11   12      0.86      0.00
   -1   11   12     20.54      0.00
   -4   14   12     -2.67      0.00
   -7   17   12     -0.88      0.00
  -10   20   12      5.64      0.00
  -11   19   12      7.63      0.00
  -11   16   12      5.34      0.00
  -11   13   12     -2.11      0.00
   -2   13   12      6.33      0.00
   -5   16   12     -2.27      0.00
   -8   19   12      5.26      0.00
  -12   18   12      0.07      0.00
  -12   15   12      6.01      0.00
  -12   12   12      1.05      0.00
    0   12   12     -5.63      0.00
   -3   15   12      6.59      0.00
   -6   18   12     -5.14      0.00
  -13   17   12     -2.64      0.00
  -13   14   12     14.02      0.00
   -1   14   12     -3.30      0.00
   -4   17   12     10.65      0.00
  -14   19   12      1.42      0.00
  -14   16   12     -1.65      0.00
   -2   16   12      6.53      0.00
   -5   19   12     -3.92      0.00
  -15   18   12     -1.76      0.00
  -15   15   12      1.18      0.00
    0   15   12      1.35      0.00
   -3   18   12      1.94      0.00
  -16   17   12      2.64      0.00
   -1   17   12     -3.88      0.00
   -1    1   13   -102.30      0.00
   -2    3   13     44.45      0.00
    0    2   13     59.68      0.00
   -3    5   13      4.81      0.00
   -1    4   13     36.76      0.00
   -4    7   13     -1.82      0.00
   -4    4   13     49.25      0.00
   -2    6   13     15.07      0.00
   -5    9   13    -15.76      0.00
   -5    6   13      9.08      0.00
    0    5   13      8.56      0.00
   -3    8   13      3.65      0.00
   -6   11   13      3.29      0.00
   -6    8   13     26.85      0.00
   -1    7   13     10.40      0.00
   -4   10   13     12.19      0.00
   -7   13   13      9.04      0.00
   -7   10   13     19.05      0.00
   -7    7   13     -9.07      0.00
   -2    9   13     25.98      0.00
   -5   12   13     17.68      0.00
   -8   15   13      5.93      0.00
   -8   12   13     19.26      0.00
   -8    9   13     13.54      0.00
    0    8   13     21.06      0.00
   -3   11   13     20.69      0.00
   -6   14   13      9.94      0.00
   -9   17   13     -0.65      0.00
   -9   14   13     25.36      0.00
   -9   11   13      0.35      0.00
   -1   10   13     17.74      0.00
   -4   13   13      6.51      0.00
   -7   16   13     10.46      0.00
  -10   19   13      3.22      0.00
  -10   16   13      6.47      0.00
  -10   13   13     13.82      0.00
  -10   10   13      4.24      0.00
   -2   12   13     -7.78      0.00
   -5   15   13     10.43      0.00
   -8   18   13      4.94      0.00
  -11   18   13      8.51      0.00
  -11   15   13      6.53      0.00
  -11   12   13     11.92      0.00
    0   11   13      0.35      0.00
   -3   14   13      8.55      0.00
   -6   17   13     20.89      0.00
   -9   20   13      1.32      0.00
  -12   17   13      4.02      0.00
  -12   14   13      2.11      0.00
   -1   13   13      9.25      0.00
   -4   16   13     11.08      0.00
   -7   19   13      6.75      0.00
  -13   19   13     -4.03      0.00
  -13   16   13      7.37      0.00
  -13   13   13     -1.97      0.00
   -2   15   13      5.78      0.00
   -5   18   13     12.47      0.00
  -14   18   13      3.14      0.00
  -14   15   13      6.94      0.00
    0   14   13      3.20      0.00
   -3   17   13     -0.36      0.00
  -15   17   13      2.33      0.00
   -1   16   13      9.94      0.00
   -4   19   13      5.97      0.00
  -16   16   13      3.67      0.00
   -2   18   13      5.49      0.00
    0   17   13      9.06      0.00
    0    1   14     80.09      0.00
   -2    2   14     31.25      0.00
   -1    3   14     -1.77      0.00
   -3    4   14    -19.02      0.00
   -2    5   14     13.69      0.00
   -4    6   14     34.71      0.00
    0    4   14     32.87      0.00
   -3    7   14     11.69      0.00
   -5    8   14      3.58      0.00
   -5    5   14    -37.07      0.00
   -1    6   14    -11.73      0.00
   -4    9   14     18.21      0.00
   -6   10   14     17.86      0.00
   -6    7   14      1.96      0.00
   -2    8   14     12.23      0.00
   -5   11   14      9.69      0.00
   -7   12   14      5.47      0.00
   -7    9   14    -15.74      0.00
    0    7   14    -25.32      0.00
   -3   10   14      4.44      0.00
   -6   13   14     -0.77      0.00
   -8   14   14      1.06      0.00
   -8   11   14     -8.60      0.00
   -8    8   14     27.77      0.00
   -1    9   14      5.05      0.00
   -4   12   14     -6.39      0.00
   -7   15   14      5.88      0.00
   -9   16   14     11.86      0.00
   -9   13   14      3.54      0.00
   -9   10   14      0.57      0.00
   -2   11   14     -0.93      0.00
   -5   14   14      5.66      0.00
   -8   17   14      5.23      0.00
  -10   18   14      5.43      0.00
  -10   15   14      1.61      0.00
  -10   12   14     -1.63      0.00
    0   10   14      8.53      0.00
   -3   13   14     15.63      0.00
   -6   16   14     -4.04      0.00
   -9   19   14     -0.13      0.00
  -11   17   14     -1.04      0.00
  -11   14   14     15.06      0.00
  -11   11   14     -9.31      0.00
   -1   12   14     10.64      0.00
   -4   15   14     15.33      0.00
   -7   18   14      7.11      0.00
  -12   19   14      6.83      0.00
  -12   16   14     -1.98      0.00
  -12   13   14     13.85      0.00
   -2   14   14     10.02      0.00
   -5   17   14      2.15      0.00
  -13   18   14      0.21      0.00
  -13   15   14      3.65      0.00
    0   13   14     -2.23      0.00
   -3   16   14     38.12      0.00
   -6   19   14      1.89      0.00
  -14   17   14     -0.54      0.00
  -14   14   14      4.61      0.00
   -1   15   14      4.28      0.00
   -4   18   14      5.16      0.00
  -15   16   14     -0.77      0.00
   -2   17   14      4.49      0.00
  -16   18   14     10.07      0.00
    0   16   14     -2.98      0.00
  -17   17   14      8.89      0.00
   -1    2   15      9.65      0.00
   -2    4   15     37.54      0.00
   -3    3   15    -29.88      0.00
    0    3   15     72.61      0.00
   -3    6   15    -15.49      0.00
   -4    5   15    -42.84      0.00
   -1    5   15     -7.38      0.00
   -4    8   15     -2.96      0.00
   -5    7   15    -18.21      0.00
   -2    7   15    -12.63      0.00
   -5   10   15    -22.39      0.00
   -6    9   15    -17.56      0.00
   -6    6   15      5.81      0.00
    0    6   15    -10.59      0.00
   -3    9   15     -8.19      0.00
   -6   12   15     -1.59      0.00
   -7   11   15     -5.55      0.00
   -7    8   15      0.03      0.00
   -1    8   15    -15.61      0.00
   -4   11   15     -5.56      0.00
   -7   14   15     -2.11      0.00
   -8   13   15    -11.54      0.00
   -8   10   15      8.04      0.00
   -2   10   15      7.58      0.00
   -5   13   15     10.40      0.00
   -8   16   15     -8.70      0.00
   -9   15   15     -6.85      0.00
   -9   12   15      0.36      0.00
   -9    9   15     -2.24      0.00
    0    9   15     -9.73      0.00
   -3   12   15     -2.08      0.00
   -6   15   15     -2.07      0.00
   -9   18   15     -4.40      0.00
  -10   17   15     -3.36      0.00
  -10   14   15     -5.50      0.00
  -10   11   15     -7.92      0.00
   -1   11   15     -7.45      0.00
   -4   14   15    -11.33      0.00
   -7   17   15      1.37      0.00
  -11   19   15     -8.71      0.00
  -11   16   15      1.76      0.00
  -11   13   15     -9.66      0.00
   -2   13   15    -16.14      0.00
   -5   16   15      9.30      0.00
   -8   19   15      5.30      0.00
  -12   18   15     -2.43      0.00
  -12   15   15     -5.17      0.00
  -12   12   15     -0.39      0.00
    0   12   15     -7.02      0.00
   -3   15   15     -5.46      0.00
   -6   18   15     -1.11      0.00
  -13   17   15     -4.73      0.00
  -13   14   15      0.12      0.00
   -1   14   15      1.29      0.00
   -4   17   15     -3.26      0.00
  -14   19   15     -2.90      0.00
  -14   16   15      0.36      0.00
   -2   16   15     -7.31      0.00
   -5   19   15     -3.07      0.00
  -15   18   15    -11.70      0.00
  -15   15   15     -3.20      0.00
    0   15   15     -6.61      0.00
   -3   18   15      5.24      0.00
  -16   17   15     -9.62      0.00
   -1   17   15     -4.67      0.00
   -2    3   16    -29.93      0.00
    0    2   16    -47.22      0.00
   -3    5   16    -24.72      0.00
   -1    4   16    -49.48      0.00
   -4    7   16     -6.34      0.00
   -4    4   16    -22.77      0.00
   -2    6   16    -17.66      0.00
   -5    9   16    -12.50      0.00
   -5    6   16    -38.17      0.00
    0    5   16    -33.88      0.00
   -3    8   16    -40.62      0.00
   -6   11   16    -13.21      0.00
   -6    8   16     -7.04      0.00
   -1    7   16    -42.21      0.00
   -4   10   16     -8.22      0.00
   -7   13   16     -3.56      0.00
   -7   10   16    -28.64      0.00
   -7    7   16    -20.80      0.00
   -2    9   16    -13.16      0.00
   -5   12   16    -16.42      0.00
   -8   15   16      0.92      0.00
   -8   12   16     -2.57      0.00
   -8    9   16    -23.75      0.00
    0    8   16     -9.07      0.00
   -3   11   16     -9.47      0.00
   -6   14   16     -6.09      0.00
   -9   17   16     -5.37      0.00
   -9   14   16      8.90      0.00
   -9   11   16    -16.08      0.00
   -1   10   16      6.29      0.00
   -4   13   16     -5.77      0.00
   -7   16   16     -4.58      0.00
  -10   19   16      5.06      0.00
  -10   16   16     -1.96      0.00
  -10   13   16      5.06      0.00
  -10   10   16     -8.28      0.00
   -2   12   16     -3.61      0.00
   -5   15   16     -6.41      0.00
   -8   18   16    -10.21      0.00
  -11   18   16      1.14      0.00
  -11   15   16     -1.62      0.00
  -11   12   16     -6.49      0.00
    0   11   16    -18.23      0.00
   -3   14   16     17.68      0.00
   -6   17   16     -4.79      0.00
  -12   17   16     -3.46      0.00
  -12   14   16      2.79      0.00
   -1   13   16     -0.10      0.00
   -4   16   16      6.17      0.00
   -7   19   16     -7.35      0.00
  -13   19   16      4.66      0.00
  -13   16   16     -1.76      0.00
  -13   13   16    -10.38      0.00
   -2   15   16      3.55      0.00
   -5   18   16      0.97      0.00
  -14   18   16      4.37      0.00
  -14   15   16     -8.19      0.00
    0   14   16     -8.78      0.00
   -3   17   16      3.60      0.00
  -15   17   16      5.51      0.00
   -1   16   16      4.35      0.00
  -16   16   16      1.96      0.00
   -2   18   16    -15.36      0.00
    0   17   16     -2.97      0.00
    0    1   17      8.11      0.00
   -2    2   17    -22.37      0.00
   -1    3   17      5.70      0.00
   -3    4   17    -36.07      0.00
   -2    5   17      0.83      0.00
   -4    6   17     -7.59      0.00
    0    4   17    -32.32      0.00
   -3    7   17     -2.66      0.00
   -5    8   17    -24.99      0.00
   -5    5   17    -58.04      0.00
   -1    6   17    -45.66      0.00
   -4    9   17     -9.60      0.00
   -6   10   17     -1.97      0.00
   -6    7   17    -12.27      0.00
   -2    8   17    -10.51      0.00
   -5   11   17     -3.82      0.00
   -7   12   17    -13.04      0.00
   -7    9   17    -11.19      0.00
    0    7   17    -21.43      0.00
   -3   10   17    -14.27      0.00
   -6   13   17     -1.62      0.00
   -8   14   17     -9.05      0.00
   -8   11   17     -5.29      0.00
   -8    8   17     14.35      0.00
   -1    9   17     -4.41      0.00
   -4   12   17      1.16      0.00
   -7   15   17     -2.28      0.00
   -9   16   17     -2.51      0.00
   -9   13   17    -11.28      0.00
   -9   10   17    -12.87      0.00
   -2   11   17     -3.60      0.00
   -5   14   17     -7.45      0.00
   -8   17   17      3.66      0.00
  -10   18   17     -1.57      0.00
  -10   15   17     -3.34      0.00
  -10   12   17     -3.32      0.00
    0   10   17     -7.97      0.00
   -3   13   17     -7.73      0.00
   -6   16   17     -4.45      0.00
   -9   19   17     -5.11      0.00
  -11   17   17      2.84      0.00
  -11   14   17     -6.37      0.00
  -11   11   17    -13.07      0.00
   -1   12   17      0.51      0.00
   -4   15   17     -7.26      0.00
   -7   18   17      3.18      0.00
  -12   19   17     -2.30      0.00
  -12   16   17     -0.82      0.00
  -12   13   17      1.39      0.00
   -2   14   17     -5.30      0.00
   -5   17   17     -3.94      0.00
  -13   18   17     -0.75      0.00
  -13   15   17      1.60      0.00
    0   13   17     -6.69      0.00
   -3   16   17      1.46      0.00
   -6   19   17     -1.26      0.00
  -14   17   17     -4.26      0.00
  -14   14   17      3.71      0.00
   -1   15   17     -2.50      0.00
   -4   18   17      0.48      0.00
  -15   16   17     -0.45      0.00
   -2   17   17      1.39      0.00
  -16   18   17      1.24      0.00
    0   16   17     -3.67      0.00
  -17   17   17      0.96      0.00
   -1    2   18     -1.38      0.00
   -2    4   18     -4.41      0.00
   -3    3   18      1.10      0.00
    0    3   18     -6.99      0.00
   -3    6   18      4.01      0.00
   -4    5   18     11.33      0.00
   -1    5   18     -8.30      0.00
   -4    8   18     11.85      0.00
   -5    7   18      6.05      0.00
   -2    7   18      5.77      0.00
   -5   10   18    -10.59      0.00
   -6    9   18     12.28      0.00
   -6    6   18     15.98      0.00
    0    6   18     -2.57      0.00
   -3    9   18    -11.63      0.00
   -6   12   18     -4.17      0.00
   -7   11   18     -9.41      0.00
   -7    8   18      3.85      0.00
   -1    8   18    -20.14      0.00
   -4   11   18     -3.25      0.00
   -7   14   18      1.58      0.00
   -8   13   18      7.28      0.00
   -8   10   18      7.42      0.00
   -2   10   18      4.20      0.00
   -5   13   18      1.08      0.00
   -8   16   18     -1.40      0.00
   -9   15   18      1.96      0.00
   -9   12   18      2.29      0.00
   -9    9   18     -6.36      0.00
    0    9   18     15.90      0.00
   -3   12   18     -0.47      0.00
   -6   15   18     -1.29      0.00
   -9   18   18     -1.16      0.00
  -10   17   18      0.16      0.00
  -10   14   18      7.20      0.00
  -10   11   18      8.24      0.00
   -1   11   18     -8.14      0.00
   -4   14   18      3.19      0.00
   -7   17   18     -1.13      0.00
  -11   19   18      0.28      0.00
  -11   16   18      2.33      0.00
  -11   13   18     -0.62      0.00
   -2   13   18      7.33      0.00
   -5   16   18     -4.31      0.00
   -8   19   18      0.97      0.00
  -12   18   18      6.76      0.00
  -12   15   18      1.29      0.00
  -12   12   18      2.25      0.00
    0   12   18     -7.27      0.00
   -3   15   18      5.29      0.00
   -6   18   18     -1.57      0.00
  -13   17   18      8.51      0.00
  -13   14   18     -3.16      0.00
   -1   14   18      0.50      0.00
   -4   17   18     -0.04      0.00
  -14   19   18      1.41      0.00
  -14   16   18      6.07      0.00
   -2   16   18      1.04      0.00
   -5   19   18      4.40      0.00
  -15   18   18      0.81      0.00
  -15   15   18     -7.01      0.00
    0   15   18      7.17      0.00
   -3   18   18     -4.97      0.00
  -16   17   18      3.66      0.00
   -1   17   18      3.89      0.00
   -1    1   19    -11.26      0.00
   -2    3   19     15.41      0.00
    0    2   19     30.72      0.00
   -3    5   19      9.08      0.00
   -1    4   19    -12.82      0.00
   -4    7   19     32.91      0.00
   -4    4   19      7.37      0.00
   -2    6   19     21.77      0.00
   -5    9   19      3.61      0.00
   -5    6   19     -3.44      0.00
    0    5   19     -9.27      0.00
   -3    8   19     -2.61      0.00
   -6   11   19     14.33      0.00
   -6    8   19     28.60      0.00
   -1    7   19     -5.90      0.00
   -4   10   19      0.59      0.00
   -7   13   19     -0.46      0.00
   -7   10   19     13.79      0.00
   -7    7   19      0.03      0.00
   -2    9   19     15.18      0.00
   -5   12   19      8.58      0.00
   -8   15   19      5.23      0.00
   -8   12   19      5.03      0.00
   -8    9   19     18.98      0.00
    0    8   19     18.68      0.00
   -3   11   19     10.85      0.00
   -6   14   19      5.81      0.00
   -9   17   19      2.23      0.00
   -9   14   19      4.42      0.00
   -9   11   19     -0.66      0.00
   -1   10   19      8.60      0.00
   -4   13   19      9.06      0.00
   -7   16   19      4.76      0.00
  -10   19   19      0.18      0.00
  -10   16   19      3.42      0.00
  -10   13   19      9.95      0.00
  -10   10   19      0.56      0.00
   -2   12   19      3.57      0.00
   -5   15   19     -1.89      0.00
   -8   18   19      4.51      0.00
  -11   18   19      3.62      0.00
  -11   15   19     -0.84      0.00
  -11   12   19      5.43      0.00
    0   11   19      8.44      0.00
   -3   14   19      0.83      0.00
   -6   17   19      4.25      0.00
  -12   17   19     -0.70      0.00
  -12   14   19      6.65      0.00
   -1   13   19      1.45      0.00
   -4   16   19      4.25      0.00
   -7   19   19      3.00      0.00
  -13   19   19      2.35      0.00
  -13   16   19      0.76      0.00
  -13   13   19     -2.83      0.00
   -2   15   19      3.96      0.00
   -5   18   19     -1.68      0.00
  -14   18   19      6.59      0.00
  -14   15   19      2.73      0.00
    0   14   19     -2.31      0.00
   -3   17   19      2.58      0.00
  -15   17   19      1.65      0.00
   -1   16   19      4.53      0.00
  -16   16   19      8.76      0.00
    0   17   19      6.89      0.00
   -2    2   20     42.06      0.00
   -1    3   20    -26.16      0.00
   -3    4   20      5.59      0.00
   -2    5   20     -2.50      0.00
   -4    6   20     28.44      0.00
    0    4   20     14.49      0.00
   -3    7   20     14.26      0.00
   -5    8   20     15.16      0.00
   -5    5   20      5.41      0.00
   -1    6   20      8.09      0.00
   -4    9   20     16.06      0.00
   -6   10   20     15.25      0.00
   -6    7   20     10.76      0.00
   -2    8   20     16.45      0.00
   -5   11   20      1.44      0.00
   -7   12   20      5.17      0.00
   -7    9   20     -2.34      0.00
    0    7   20      5.40      0.00
   -3   10   20      6.04      0.00
   -6   13   20     10.93      0.00
   -8   14   20      6.98      0.00
   -8   11   20     11.44      0.00
   -8    8   20      7.92      0.00
   -1    9   20     11.57      0.00
   -4   12   20      4.68      0.00
   -7   15   20      2.19      0.00
   -9   16   20      2.69      0.00
   -9   13   20     -2.24      0.00
   -9   10   20     13.06      0.00
   -2   11   20     11.35      0.00
   -5   14   20     -1.78      0.00
   -8   17   20      5.76      0.00
  -10   18   20      0.99      0.00
  -10   15   20      2.71      0.00
  -10   12   20      1.96      0.00
    0   10   20      3.80      0.00
   -3   13   20      9.74      0.00
   -6   16   20      8.53      0.00
   -9   19   20      6.39      0.00
  -11   17   20      1.25      0.00
  -11   14   20     -0.40      0.00
  -11   11   20      4.45      0.00
   -1   12   20      2.09      0.00
   -4   15   20     12.04      0.00
   -7   18   20      3.74      0.00
  -12   19   20     -4.79      0.00
  -12   16   20      5.00      0.00
  -12   13   20      7.35      0.00
   -2   14   20     10.16      0.00
   -5   17   20     -2.64      0.00
  -13   18   20     -0.36      0.00
  -13   15   20     -1.25      0.00
    0   13   20     13.02      0.00
   -3   16   20      5.71      0.00
   -6   19   20      3.27      0.00
  -14   17   20      2.67      0.00
  -14   14   20      2.60      0.00
   -1   15   20     -0.26      0.00
   -4   18   20     -0.20      0.00
  -15   16   20     -1.39      0.00
   -2   17   20      0.00      0.00
    0   16   20     -0.05      0.00
  -17   17   20     -2.01      0.00
   -1    2   21    -38.33      0.00
   -2    4   21      2.16      0.00
   -3    3   21    -16.85      0.00
    0    3   21    -34.97      0.00
   -3    6   21     -6.46      0.00
   -4    5   21    -25.97      0.00
   -1    5   21    -14.62      0.00
   -4    8   21     11.70      0.00
   -5    7   21      6.89      0.00
   -2    7   21     -3.14      0.00
   -5   10   21     -6.55      0.00
   -6    9   21     11.44      0.00
   -6    6   21     -6.02      0.00
    0    6   21     19.03      0.00
   -3    9   21    -10.13      0.00
   -6   12   21     -0.60      0.00
   -7   11   21     -6.42      0.00
   -7    8   21      3.20      0.00
   -1    8   21      4.41      0.00
   -4   11   21     -1.70      0.00
   -7   14   21      1.80      0.00
   -8   13   21      0.01      0.00
   -8   10   21     -1.45      0.00
   -2   10   21      6.33      0.00
   -5   13   21      6.03      0.00
   -8   16   21      0.20      0.00
   -9   15   21     -1.31      0.00
   -9   12   21      3.65      0.00
   -9    9   21    -10.89      0.00
    0    9   21      2.17      0.00
   -3   12   21      0.08      0.00
   -6   15   21      5.45      0.00
   -9   18   21     -0.20      0.00
  -10   17   21     -0.17      0.00
  -10   14   21      0.82      0.00
  -10   11   21      0.36      0.00
   -1   11   21     -5.12      0.00
   -4   14   21      0.57      0.00
   -7   17   21      0.66      0.00
  -11   19   21      3.07      0.00
  -11   16   21     -0.44      0.00
  -11   13   21     -2.43      0.00
   -2   13   21      1.11      0.00
   -5   16   21      1.37      0.00
   -8   19   21     -4.07      0.00
  -12   18   21      3.18      0.00
  -12   15   21      2.15      0.00
  -12   12   21     -2.46      0.00
    0   12   21      3.00      0.00
   -3   15   21     -3.97      0.00
   -6   18   21     -3.69      0.00
  -13   17   21     -2.02      0.00
  -13   14   21     -0.84      0.00
   -1   14   21     -1.14      0.00
   -4   17   21      4.11      0.00
  -14   16   21      2.98      0.00
   -2   16   21     -0.93      0.00
  -15   18   21     -1.14      0.00
  -15   15   21      1.94      0.00
    0   15   21      2.88      0.00
   -3   18   21      7.63      0.00
  -16   17   21      6.83      0.00
   -1   17   21     -5.65      0.00
   -1    1   22    -15.61      0.00
   -2    3   22    -10.95      0.00
    0    2   22    -11.72      0.00
   -3    5   22     -8.54      0.00
   -1    4   22    -26.34      0.00
   -4    7   22    -17.98      0.00
   -4    4   22     22.08      0.00
   -2    6   22     -5.64      0.00
   -5    9   22     -3.62      0.00
   -5    6   22    -19.36      0.00
    0    5   22    -14.39      0.00
   -3    8   22    -19.30      0.00
   -6   11   22     -8.11      0.00
   -6    8   22     -9.41      0.00
   -1    7   22     -3.38      0.00
   -4   10   22     -6.17      0.00
   -7   13   22     -1.56      0.00
   -7   10   22     -3.57      0.00
   -7    7   22    -11.60      0.00
   -2    9   22     -9.16      0.00
   -5   12   22     -6.91      0.00
   -8   15   22     -3.65      0.00
   -8   12   22     -3.40      0.00
   -8    9   22    -18.11      0.00
    0    8   22      3.47      0.00
   -3   11   22      1.70      0.00
   -6   14   22     -5.89      0.00
   -9   17   22     -3.63      0.00
   -9   14   22     -2.61      0.00
   -9   11   22     -5.42      0.00
   -1   10   22      4.14      0.00
   -4   13   22     -8.80      0.00
   -7   16   22     -0.95      0.00
  -10   19   22     -1.22      0.00
  -10   16   22     -3.16      0.00
  -10   13   22     -9.35      0.00
  -10   10   22     -4.06      0.00
   -2   12   22      1.28      0.00
   -5   15   22     -6.82      0.00
   -8   18   22     -4.27      0.00
  -11   18   22     -4.52      0.00
  -11   15   22     -7.77      0.00
  -11   12   22     -6.74      0.00
    0   11   22    -10.35      0.00
   -3   14   22     -1.28      0.00
   -6   17   22      1.86      0.00
  -12   17   22     -2.03      0.00
  -12   14   22      0.85      0.00
   -1   13   22     -5.45      0.00
   -4   16   22     -1.91      0.00
   -7   19   22      1.04      0.00
  -13   19   22     -6.60      0.00
  -13   16   22     -0.64      0.00
  -13   13   22     -3.50      0.00
   -2   15   22     -3.95      0.00
   -5   18   22     -3.26      0.00
  -14   18   22     -8.21      0.00
  -14   15   22     -1.90      0.00
    0   14   22     -1.08      0.00
   -3   17   22    -10.73      0.00
  -15   17   22     -2.56      0.00
   -1   16   22     -7.51      0.00
  -16   16   22     -4.88      0.00
   -2    2   23    -11.96      0.00
   -1    3   23    -33.71      0.00
   -3    4   23    -25.43      0.00
   -2    5   23    -38.94      0.00
   -4    6   23    -13.82      0.00
   -3    7   23     -2.86      0.00
   -5    8   23    -11.37      0.00
   -5    5   23    -18.56      0.00
   -1    6   23     -6.67      0.00
   -4    9   23    -11.77      0.00
   -6   10   23     -1.55      0.00
   -6    7   23    -15.49      0.00
   -2    8   23      1.06      0.00
   -5   11   23     -3.69      0.00
   -7   12   23     -3.78      0.00
   -7    9   23    -12.14      0.00
    0    7   23     -5.24      0.00
   -3   10   23    -10.72      0.00
   -6   13   23     -4.77      0.00
   -8   14   23      1.32      0.00
   -8   11   23    -13.50      0.00
   -8    8   23    -11.40      0.00
   -1    9   23      6.71      0.00
   -4   12   23     -2.44      0.00
   -7   15   23     -3.43      0.00
   -9   16   23     -2.04      0.00
   -9   13   23     -3.69      0.00
   -9   10   23    -18.77      0.00
   -2   11   23    -13.24      0.00
   -5   14   23     -2.91      0.00
   -8   17   23     -2.93      0.00
  -10   18   23     -3.01      0.00
  -10   15   23     -4.71      0.00
  -10   12   23      4.43      0.00
    0   10   23     -6.49      0.00
   -3   13   23     -4.81      0.00
   -6   16   23     -4.31      0.00
   -9   19   23     -4.66      0.00
  -11   17   23      3.88      0.00
  -11   14   23     -2.93      0.00
  -11   11   23     -1.31      0.00
   -1   12   23     -1.27      0.00
   -4   15   23     -1.90      0.00
   -7   18   23     -2.32      0.00
  -12   19   23      4.94      0.00
  -12   16   23     -1.96      0.00
  -12   13   23     -3.25      0.00
   -2   14   23      2.40      0.00
   -5   17   23     -5.42      0.00
  -13   18   23      5.84      0.00
  -13   15   23      0.03      0.00
    0   13   23      0.39      0.00
   -3   16   23     -0.12      0.00
  -14   17   23     -4.86      0.00
  -14   14   23     -2.92      0.00
   -1   15   23     -7.65      0.00
   -4   18   23      6.96      0.00
  -15   16   23      3.48      0.00
   -2   17   23     -2.51      0.00
    0   16   23     -6.19      0.00
    0    0   24     15.44      0.00
   -1    2   24    -13.57      0.00
   -2    4   24      9.05      0.00
   -3    3   24      3.68      0.00
    0    3   24      1.10      0.00
   -3    6   24    -27.21      0.00
   -4    5   24     -2.51      0.00
   -1    5   24      6.44      0.00
   -4    8   24     -6.60      0.00
   -5    7   24    -12.41      0.00
   -2    7   24    -15.69      0.00
   -5   10   24     -7.33      0.00
   -6    9   24     -1.82      0.00
   -6    6   24     16.70      0.00
    0    6   24      9.85      0.00
   -3    9   24     -4.87      0.00
   -6   12   24      0.91      0.00
   -7   11   24     -3.59      0.00
   -7    8   24    -10.13      0.00
   -1    8   24     -7.46      0.00
   -4   11   24     -8.83      0.00
   -7   14   24      5.03      0.00
   -8   13   24     -9.28      0.00
   -8   10   24     13.18      0.00
   -2   10   24     -0.30      0.00
   -5   13   24      2.87      0.00
   -8   16   24     -4.07      0.00
   -9   15   24      2.18      0.00
   -9   12   24     -2.13      0.00
   -9    9   24    -12.13      0.00
    0    9   24     -6.47      0.00
   -3   12   24      2.39      0.00
   -6   15   24     -4.23      0.00
   -9   18   24      0.69      0.00
  -10   17   24     -2.65      0.00
  -10   14   24      0.50      0.00
  -10   11   24     -6.39      0.00
   -1   11   24      4.06      0.00
   -4   14   24     -0.99      0.00
   -7   17   24      1.37      0.00
  -11   19   24     -4.04      0.00
  -11   16   24      3.85      0.00
  -11   13   24     -0.76      0.00
   -2   13   24     -9.77      0.00
   -5   16   24     -0.09      0.00
   -8   19   24      2.34      0.00
  -12   18   24     -2.90      0.00
  -12   15   24      2.14      0.00
  -12   12   24      1.34      0.00
    0   12   24      0.23      0.00
   -3   15   24     -5.22      0.00
   -6   18   24     -0.95      0.00
  -13   17   24      8.66      0.00
  -13   14   24      6.65      0.00
   -1   14   24     -5.90      0.00
   -4   17   24     -4.12      0.00
  -14   16   24      2.86      0.00
   -2   16   24      8.08      0.00
  -15   18   24     -0.42      0.00
  -15   15   24      0.28      0.00
    0   15   24      2.10      0.00
   -3   18   24     -3.98      0.00
  -16   17   24      0.04      0.00
   -1   17   24      1.45      0.00
   -1    1   25    -14.67      0.00
   -2    3   25     34.55      0.00
    0    2   25     55.12      0.00
   -3    5   25     -1.24      0.00
   -1    4   25     -0.60      0.00
   -4    7   25      3.60      0.00
   -4    4   25     60.79      0.00
   -2    6   25     18.29      0.00
   -5    9   25     -7.65      0.00
   -5    6   25      9.40      0.00
    0    5   25      5.42      0.00
   -3    8   25      2.36      0.00
   -6   11   25      2.76      0.00
   -6    8   25     22.59      0.00
   -1    7   25     10.25      0.00
   -4   10   25      0.13      0.00
   -7   13   25      4.28      0.00
   -7   10   25      2.51      0.00
   -7    7   25     -7.32      0.00
   -2    9   25      6.67      0.00
   -5   12   25      9.86      0.00
   -8   15   25     -2.02      0.00
   -8   12   25      7.82      0.00
   -8    9   25     -6.66      0.00
    0    8   25     15.08      0.00
   -3   11   25      4.09      0.00
   -6   14   25     -2.13      0.00
   -9   17   25      1.57      0.00
   -9   14   25      8.87      0.00
   -9   11   25     -1.54      0.00
   -1   10   25      8.77      0.00
   -4   13   25     -3.56      0.00
   -7   16   25      2.87      0.00
  -10   19   25      8.51      0.00
  -10   16   25      1.90      0.00
  -10   13   25      1.50      0.00
  -10   10   25      8.72      0.00
   -2   12   25      2.29      0.00
   -5   15   25      1.79      0.00
   -8   18   25      0.34      0.00
  -11   18   25      9.95      0.00
  -11   15   25      3.48      0.00
  -11   12   25      6.94      0.00
    0   11   25     -1.77      0.00
   -3   14   25      6.26      0.00
   -6   17   25      3.03      0.00
  -12   17   25      2.67      0.00
  -12   14   25      6.41      0.00
   -1   13   25      7.86      0.00
   -4   16   25      9.86      0.00
  -13   16   25      4.76      0.00
  -13   13   25     -6.06      0.00
   -2   15   25     -3.86      0.00
   -5   18   25      1.58      0.00
  -14   18   25      1.04      0.00
  -14   15   25      2.70      0.00
    0   14   25      6.43      0.00
   -3   17   25      4.03      0.00
  -15   17   25     -1.86      0.00
   -1   16   25     -2.90      0.00
  -16   16   25      3.07      0.00
    0    1   26     27.32      0.00
   -2    2   26     51.05      0.00
   -1    3   26     -9.05      0.00
   -3    4   26      2.91      0.00
   -2    5   26      6.39      0.00
   -4    6   26     27.17      0.00
   -3    7   26    -13.84      0.00
   -5    8   26      5.77      0.00
   -5    5   26      4.27      0.00
   -1    6   26      8.72      0.00
   -4    9   26     17.55      0.00
   -6   10   26     16.48      0.00
   -6    7   26     21.24      0.00
   -2    8   26     17.54      0.00
   -5   11   26      5.52      0.00
   -7   12   26     11.23      0.00
   -7    9   26     -8.66      0.00
    0    7   26      1.12      0.00
   -3   10   26      7.49      0.00
   -6   13   26     10.82      0.00
   -8   14   26      0.44      0.00
   -8   11   26      9.44      0.00
   -8    8   26     21.00      0.00
   -1    9   26     -1.24      0.00
   -4   12   26     -3.93      0.00
   -7   15   26      0.81      0.00
   -9   16   26      2.37      0.00
   -9   13   26     -6.41      0.00
   -9   10   26     12.61      0.00
   -2   11   26     -5.49      0.00
   -5   14   26      9.84      0.00
   -8   17   26      3.45      0.00
  -10   18   26     -4.54      0.00
  -10   15   26      2.69      0.00
  -10   12   26      0.85      0.00
    0   10   26      2.47      0.00
   -3   13   26      4.29      0.00
   -6   16   26      3.07      0.00
   -9   19   26      0.67      0.00
  -11   17   26     -2.56      0.00
  -11   14   26      3.46      0.00
  -11   11   26     -8.40      0.00
   -1   12   26      5.87      0.00
   -4   15   26      1.34      0.00
   -7   18   26     -2.40      0.00
  -12   16   26      2.28      0.00
  -12   13   26      9.36      0.00
   -2   14   26     -4.79      0.00
   -5   17   26     -5.46      0.00
  -13   18   26     -1.62      0.00
  -13   15   26     -2.56      0.00
    0   13   26    -11.51      0.00
   -3   16   26      7.92      0.00
  -14   17   26      0.21      0.00
  -14   14   26      1.48      0.00
   -1   15   26      3.07      0.00
   -4   18   26      3.20      0.00
  -15   16   26     -2.39      0.00
   -2   17   26      6.81      0.00
    0   16   26     11.52      0.00
   -1    2   27    -14.84      0.00
   -2    4   27     39.40      0.00
   -3    3   27    -15.41      0.00
    0    3   27     27.03      0.00
   -3    6   27    -13.03      0.00
   -4    5   27     15.13      0.00
   -1    5   27    -14.50      0.00
   -4    8   27      7.05      0.00
   -5    7   27    -14.46      0.00
   -2    7   27      9.57      0.00
   -5   10   27      1.08      0.00
   -6    9   27     10.61      0.00
   -6    6   27     29.28      0.00
    0    6   27     33.19      0.00
   -3    9   27     -7.87      0.00
   -6   12   27     -2.98      0.00
   -7   11   27    -10.81      0.00
   -7    8   27     12.35      0.00
   -1    8   27      4.27      0.00
   -4   11   27      6.44      0.00
   -7   14   27      1.96      0.00
   -8   13   27      5.49      0.00
   -8   10   27      4.01      0.00
   -2   10   27      3.94      0.00
   -5   13   27      3.19      0.00
   -8   16   27     -2.24      0.00
   -9   15   27      0.75      0.00
   -9   12   27      9.10      0.00
   -9    9   27    -22.30      0.00
    0    9   27     -0.89      0.00
   -3   12   27     10.18      0.00
   -6   15   27      4.79      0.00
   -9   18   27      0.14      0.00
  -10   17   27      7.89      0.00
  -10   14   27      0.88      0.00
  -10   11   27     13.38      0.00
   -1   11   27      7.35      0.00
   -4   14   27     -4.38      0.00
   -7   17   27      3.09      0.00
  -11   16   27      0.73      0.00
  -11   13   27     -8.15      0.00
   -2   13   27     -0.08      0.00
   -5   16   27      8.30      0.00
  -12   18   27      2.47      0.00
  -12   15   27     14.84      0.00
  -12   12   27     -4.44      0.00
    0   12   27      7.39      0.00
   -3   15   27     -4.53      0.00
   -6   18   27      7.58      0.00
  -13   17   27     -4.78      0.00
  -13   14   27      4.23      0.00
   -1   14   27     -1.66      0.00
   -4   17   27      5.77      0.00
  -14   16   27      1.11      0.00
   -2   16   27     -5.87      0.00
  -15   15   27     -3.09      0.00
    0   15   27     -9.23      0.00
   -1    1   28      7.76      0.00
   -2    3   28      6.45      0.00
    0    2   28     12.64      0.00
   -3    5   28    -24.20      0.00
   -1    4   28    -12.26      0.00
   -4    7   28      4.29      0.00
   -4    4   28     18.63      0.00
   -2    6   28      7.72      0.00
   -5    9   28    -15.14      0.00
   -5    6   28      5.75      0.00
    0    5   28     14.55      0.00
   -3    8   28     -5.13      0.00
   -6   11   28     19.88      0.00
   -6    8   28     -8.20      0.00
   -1    7   28    -14.77      0.00
   -4   10   28      1.94      0.00
   -7   13   28      5.86      0.00
   -7   10   28      1.09      0.00
   -7    7   28    -14.40      0.00
   -2    9   28      4.20      0.00
   -5   12   28      4.59      0.00
   -8   15   28      5.86      0.00
   -8   12   28     -5.38      0.00
   -8    9   28      5.16      0.00
    0    8   28      3.52      0.00
   -3   11   28    -11.59      0.00
   -6   14   28     -9.58      0.00
   -9   17   28     -1.13      0.00
   -9   14   28      1.66      0.00
   -9   11   28    -15.89      0.00
   -1   10   28      1.27      0.00
   -4   13   28      1.75      0.00
   -7   16   28      2.83      0.00
  -10   16   28     -4.11      0.00
  -10   13   28      6.66      0.00
  -10   10   28     -3.86      0.00
   -2   12   28     -3.22      0.00
   -5   15   28     -0.75      0.00
   -8   18   28     -1.35      0.00
  -11   18   28     -7.82      0.00
  -11   15   28     -6.49      0.00
  -11   12   28      2.80      0.00
    0   11   28      1.88      0.00
   -3   14   28      8.15      0.00
   -6   17   28      1.70      0.00
  -12   17   28      4.58      0.00
  -12   14   28     -0.69      0.00
   -1   13   28     -4.89      0.00
   -4   16   28     -2.00      0.00
  -13   16   28     -3.55      0.00
  -13   13   28     -7.09      0.00
   -2   15   28      3.51      0.00
   -5   18   28     -4.29      0.00
  -14   18   28      0.70      0.00
  -14   15   28      0.02      0.00
    0   14   28      0.92      0.00
   -3   17   28      0.47      0.00
  -15   17   28      2.98      0.00
   -1   16   28      9.51      0.00
  -16   16   28      7.49      0.00
    0    1   29     -7.67      0.00
   -2    2   29    -38.25      0.00
   -1    3   29    -10.69      0.00
   -3    4   29     -8.01      0.00
   -2    5   29      9.78      0.00
   -4    6   29     -9.97      0.00
    0    4   29      4.68      0.00
   -3    7   29    -16.57      0.00
   -5    8   29    -10.15      0.00
   -5    5   29     -6.40      0.00
   -1    6   29     -3.40      0.00
   -4    9   29     15.19      0.00
   -6   10   29     -6.87      0.00
   -6    7   29     16.09      0.00
   -2    8   29      2.44      0.00
   -5   11   29     -0.85      0.00
   -7   12   29     -9.33      0.00
   -7    9   29    -17.61      0.00
    0    7   29      6.72      0.00
   -3   10   29     -8.16      0.00
   -6   13   29      1.85      0.00
   -8   14   29     -8.22      0.00
   -8   11   29      4.72      0.00
   -8    8   29     -5.93      0.00
   -1    9   29    -11.51      0.00
   -4   12   29     -6.77      0.00
   -7   15   29     -3.24      0.00
   -9   16   29     -4.10      0.00
   -9   13   29     -5.89      0.00
   -9   10   29     -0.25      0.00
   -2   11   29     -1.03      0.00
   -5   14   29     -1.18      0.00
   -8   17   29      3.39      0.00
  -10   18   29     -0.60      0.00
  -10   15   29      7.00      0.00
  -10   12   29      0.40      0.00
    0   10   29     -3.75      0.00
   -3   13   29     -6.47      0.00
   -6   16   29     -3.03      0.00
  -11   17   29     -4.19      0.00
  -11   14   29     -2.76      0.00
  -11   11   29     -5.42      0.00
   -1   12   29      3.68      0.00
   -4   15   29      1.79      0.00
   -7   18   29      0.74      0.00
  -12   16   29     -1.11      0.00
  -12   13   29      2.32      0.00
   -2   14   29    -12.67      0.00
   -5   17   29     -2.23      0.00
  -13   18   29     -9.84      0.00
  -13   15   29     -1.02      0.00
    0   13   29     -2.90      0.00
   -3   16   29     -4.05      0.00
  -14   17   29     -9.32      0.00
  -14   14   29      1.58      0.00
   -1   15   29    -24.95      0.00
  -15   16   29     -8.67      0.00
   -2   17   29     -1.95      0.00
    0   16   29    -20.14      0.00
    0    0   30    -18.02      0.00
   -1    2   30      8.84      0.00
   -2    4   30    -14.73      0.00
   -3    3   30      7.61      0.00
    0    3   30     18.19      0.00
   -3    6   30     -2.73      0.00
   -4    5   30     18.42      0.00
   -1    5   30      3.37      0.00
   -4    8   30    -11.47      0.00
   -5    7   30    -10.27      0.00
   -2    7   30     14.12      0.00
   -5   10   30     -5.96      0.00
   -6    9   30     10.61      0.00
   -6    6   30     -6.91      0.00
    0    6   30     -4.93      0.00
   -3    9   30     -5.32      0.00
   -6   12   30      9.59      0.00
   -7   11   30      0.35      0.00
   -7    8   30      1.69      0.00
   -1    8   30     -4.49      0.00
   -4   11   30      6.40      0.00
   -7   14   30     -4.24      0.00
   -8   13   30      5.71      0.00
   -8   10   30      6.65      0.00
   -2   10   30     -1.64      0.00
   -5   13   30     -4.00      0.00
   -8   16   30     -0.78      0.00
   -9   15   30      2.40      0.00
   -9   12   30     -7.94      0.00
   -9    9   30     -2.79      0.00
    0    9   30     12.68      0.00
   -3   12   30     -3.56      0.00
   -6   15   30     -2.47      0.00
   -9   18   30     -3.10      0.00
  -10   17   30     -0.68      0.00
  -10   14   30      3.86      0.00
  -10   11   30      0.90      0.00
   -1   11   30      0.59      0.00
   -4   14   30     -2.25      0.00
   -7   17   30      0.44      0.00
  -11   16   30     -6.05      0.00
  -11   13   30      0.41      0.00
   -2   13   30      5.22      0.00
   -5   16   30     -4.92      0.00
  -12   18   30     -2.80      0.00
  -12   15   30     -1.90      0.00
  -12   12   30      2.25      0.00
    0   12   30     -2.83      0.00
   -3   15   30     -5.30      0.00
   -6   18   30     -6.60      0.00
  -13   17   30      3.31      0.00
  -13   14   30     -6.53      0.00
   -1   14   30     -3.69      0.00
   -4   17   30      4.26      0.00
  -14   16   30      5.28      0.00
   -2   16   30      0.88      0.00
  -15   15   30     -0.77      0.00
    0   15   30     13.72      0.00
   -1    1   31     10.37      0.00
   -2    3   31      8.02      0.00
    0    2   31    -22.51      0.00
   -3    5   31      8.56      0.00
   -1    4   31      3.58      0.00
   -4    7   31     17.62      0.00
   -4    4   31     -6.90      0.00
   -2    6   31     -4.83      0.00
   -5    9   31     -0.91      0.00
   -5    6   31     11.09      0.00
    0    5   31     24.72      0.00
   -3    8   31     -0.29      0.00
   -6   11   31     13.20      0.00
   -6    8   31      4.70      0.00
   -1    7   31     -1.38      0.00
   -4   10   31      8.37      0.00
   -7   13   31      0.11      0.00
   -7   10   31     -9.49      0.00
   -7    7   31      6.06      0.00
   -2    9   31     12.43      0.00
   -5   12   31      0.96      0.00
   -8   15   31     -2.61      0.00
   -8   12   31      8.56      0.00
   -8    9   31      0.68      0.00
    0    8   31     -7.34      0.00
   -3   11   31     -4.72      0.00
   -6   14   31      4.15      0.00
   -9   17   31     -0.34      0.00
   -9   14   31     -1.33      0.00
   -9   11   31      4.74      0.00
   -1   10   31     -2.70      0.00
   -4   13   31      2.56      0.00
   -7   16   31     -1.13      0.00
  -10   16   31      3.60      0.00
  -10   13   31      0.93      0.00
  -10   10   31     16.34      0.00
   -2   12   31      2.58      0.00
   -5   15   31      6.75      0.00
   -8   18   31     -1.91      0.00
  -11   18   31      1.38      0.00
  -11   15   31      8.66      0.00
  -11   12   31      0.59      0.00
    0   11   31     13.59      0.00
   -3   14   31     -2.11      0.00
   -6   17   31      6.28      0.00
  -12   17   31     -2.88      0.00
  -12   14   31     11.29      0.00
   -1   13   31     -1.51      0.00
   -4   16   31     10.19      0.00
  -13   16   31     -2.11      0.00
  -13   13   31      7.81      0.00
   -2   15   31     -0.60      0.00
  -14   15   31     -4.00      0.00
    0   14   31     -8.86      0.00
   -3   17   31      3.96      0.00
   -1   16   31     -8.54      0.00
  -16   16   31      9.91      0.00
    0    1   32     42.08      0.00
   -2    2   32      6.81      0.00
   -1    3   32      8.14      0.00
   -3    4   32     13.97      0.00
   -2    5   32     22.11      0.00
   -4    6   32      7.39      0.00
    0    4   32     15.72      0.00
   -3    7   32     -2.19      0.00
   -5    8   32     -4.32      0.00
   -5    5   32      9.79      0.00
   -1    6   32      7.69      0.00
   -4    9   32      7.65      0.00
   -6   10   32     12.38      0.00
   -6    7   32      4.86      0.00
   -2    8   32      2.20      0.00
   -5   11   32      2.91      0.00
   -7   12   32     -5.43      0.00
   -7    9   32      2.85      0.00
    0    7   32     12.27      0.00
   -3   10   32     -0.09      0.00
   -6   13   32     -0.77      0.00
   -8   14   32      8.71      0.00
   -8   11   32     -5.48      0.00
   -8    8   32     18.78      0.00
   -1    9   32     -3.26      0.00
   -4   12   32      4.08      0.00
   -7   15   32     -0.20      0.00
   -9   16   32     -1.79      0.00
   -9   13   32     -2.78      0.00
   -9   10   32     -2.33      0.00
   -2   11   32      3.54      0.00
   -5   14   32     -5.59      0.00
   -8   17   32      6.04      0.00
  -10   18   32     -3.27      0.00
  -10   15   32     -1.37      0.00
  -10   12   32      7.77      0.00
    0   10   32      0.66      0.00
   -3   13   32      4.71      0.00
   -6   16   32      7.01      0.00
  -11   17   32     -1.51      0.00
  -11   14   32     -4.81      0.00
  -11   11   32      0.61      0.00
   -1   12   32     -1.46      0.00
   -4   15   32      1.64      0.00
   -7   18   32     -5.39      0.00
  -12   16   32      5.13      0.00
  -12   13   32     -1.00      0.00
   -2   14   32      1.73      0.00
   -5   17   32      0.26      0.00
  -13   15   32      1.66      0.00
    0   13   32      7.39      0.00
   -3   16   32     -0.46      0.00
  -14   17   32     -3.58      0.00
  -14   14   32      7.34      0.00
   -1   15   32     -0.55      0.00
  -15   16   32     -4.15      0.00
    0    0   33    -12.17      0.00
   -1    2   33     -5.79      0.00
   -2    4   33      9.30      0.00
   -3    3   33      2.22      0.00
    0    3   33      3.49      0.00
   -3    6   33      4.10      0.00
   -4    5   33      8.29      0.00
   -1    5   33     -2.44      0.00
   -4    8   33     11.26      0.00
   -5    7   33     14.59      0.00
   -2    7   33      8.07      0.00
   -5   10   33     -1.60      0.00
   -6    9   33      4.71      0.00
   -6    6   33     12.76      0.00
    0    6   33     11.91      0.00
   -3    9   33     -2.59      0.00
   -6   12   33     11.52      0.00
   -7   11   33     -2.35      0.00
   -7    8   33      5.81      0.00
   -1    8   33     -2.89      0.00
   -4   11   33      0.37      0.00
   -7   14   33     -5.98      0.00
   -8   13   33     -2.07      0.00
   -8   10   33     12.92      0.00
   -2   10   33      3.82      0.00
   -5   13   33      1.02      0.00
   -8   16   33      1.77      0.00
   -9   15   33     -2.91      0.00
   -9   12   33     -3.37      0.00
   -9    9   33     -2.36      0.00
    0    9   33     -2.52      0.00
   -3   12   33     -2.11      0.00
   -6   15   33      0.32      0.00
   -9   18   33     -2.65      0.00
  -10   17   33     -1.71      0.00
  -10   14   33      6.51      0.00
  -10   11   33      2.86      0.00
   -1   11   33     -0.27      0.00
   -4   14   33      1.70      0.00
   -7   17   33     -1.43      0.00
  -11   16   33     -0.02      0.00
  -11   13   33     -5.75      0.00
   -2   13   33     -2.93      0.00
   -5   16   33      0.03      0.00
  -12   15   33      5.07      0.00
  -12   12   33      3.70      0.00
    0   12   33     -3.86      0.00
   -3   15   33     -1.23      0.00
  -13   17   33      3.61      0.00
  -13   14   33     -0.65      0.00
   -1   14   33    -12.69      0.00
   -4   17   33      1.55      0.00
  -14   16   33      1.13      0.00
   -2   16   33     -1.56      0.00
  -15   15   33      0.51      0.00
    0   15   33     -0.17      0.00
   -1    1   34     19.23      0.00
   -2    3   34     -2.94      0.00
    0    2   34     -3.63      0.00
   -3    5   34      1.11      0.00
   -1    4   34    -15.90      0.00
   -4    7   34     -3.49      0.00
   -4    4   34      8.78      0.00
   -2    6   34      5.60      0.00
   -5    9   34     -1.60      0.00
   -5    6   34    -11.12      0.00
    0    5   34      7.00      0.00
   -3    8   34    -12.12      0.00
   -6   11   34      1.61      0.00
   -6    8   34      4.63      0.00
   -1    7   34     -9.13      0.00
   -4   10   34      9.61      0.00
   -7   13   34     -4.07      0.00
   -7   10   34     -8.92      0.00
   -7    7   34      0.85      0.00
   -2    9   34     -3.66      0.00
   -5   12   34     -3.79      0.00
   -8   15   34     -0.30      0.00
   -8   12   34     -2.35      0.00
   -8    9   34     -5.78      0.00
    0    8   34      2.30      0.00
   -3   11   34     -4.52      0.00
   -6   14   34     -3.34      0.00
   -9   17   34      0.71      0.00
   -9   14   34     -1.59      0.00
   -9   11   34    -20.17      0.00
   -1   10   34     -2.91      0.00
   -4   13   34     -4.14      0.00
   -7   16   34      4.97      0.00
  -10   16   34     -1.71      0.00
  -10   13   34      1.75      0.00
  -10   10   34      2.83      0.00
   -2   12   34     -1.64      0.00
   -5   15   34     -2.49      0.00
   -8   18   34      3.03      0.00
  -11   18   34     -2.00      0.00
  -11   15   34     -5.52      0.00
  -11   12   34      0.61      0.00
    0   11   34     -6.87      0.00
   -3   14   34     -1.27      0.00
   -6   17   34     -2.64      0.00
  -12   17   34      3.76      0.00
  -12   14   34      0.40      0.00
   -1   13   34     -2.54      0.00
   -4   16   34      3.20      0.00
  -13   16   34     -1.90      0.00
  -13   13   34     -1.86      0.00
   -2   15   34     -0.13      0.00
  -14   15   34      4.48      0.00
    0   14   34      7.24      0.00
   -3   17   34      0.49      0.00
   -1   16   34     -2.85      0.00
    0    1   35     -2.09      0.00
   -2    2   35     -6.61      0.00
   -1    3   35     -0.86      0.00
   -3    4   35     -8.80      0.00
   -2    5   35     -3.82      0.00
   -4    6   35      2.91      0.00
    0    4   35     -0.06      0.00
   -3    7   35      0.21      0.00
   -5    8   35     -6.54      0.00
   -5    5   35      2.79      0.00
   -1    6   35     -6.13      0.00
   -4    9   35     -4.03      0.00
   -6   10   35      0.19      0.00
   -6    7   35     -5.28      0.00
   -2    8   35      8.36      0.00
   -5   11   35     -3.67      0.00
   -7   12   35     -6.18      0.00
   -7    9   35     -3.96      0.00
    0    7   35     -4.19      0.00
   -3   10   35     -6.60      0.00
   -6   13   35     -1.25      0.00
   -8   14   35     -4.58      0.00
   -8   11   35      2.58      0.00
   -8    8   35      3.00      0.00
   -1    9   35     -5.85      0.00
   -4   12   35      0.76      0.00
   -7   15   35     -1.32      0.00
   -9   16   35      2.30      0.00
   -9   13   35     -7.29      0.00
   -9   10   35     -0.17      0.00
   -2   11   35     -1.07      0.00
   -5   14   35      0.17      0.00
   -8   17   35      0.20      0.00
  -10   15   35      6.95      0.00
  -10   12   35      0.02      0.00
    0   10   35     -1.69      0.00
   -3   13   35      2.30      0.00
   -6   16   35     -6.65      0.00
  -11   17   35     -3.50      0.00
  -11   14   35      0.00      0.00
  -11   11   35    -10.92      0.00
   -1   12   35      0.05      0.00
   -4   15   35     -1.12      0.00
  -12   16   35     -0.01      0.00
  -12   13   35      5.64      0.00
   -2   14   35     -1.99      0.00
   -5   17   35     -5.75      0.00
  -13   15   35     -1.84      0.00
    0   13   35     -6.59      0.00
   -3   16   35      5.65      0.00
  -14   14   35      0.15      0.00
   -1   15   35     -7.33      0.00
  -15   16   35      0.27      0.00
    0    0   36    -13.77      0.00
   -1    2   36      1.78      0.00
   -2    4   36     -4.05      0.00
   -3    3   36     25.52      0.00
    0    3   36     -5.84      0.00
   -3    6   36     -3.08      0.00
   -4    5   36      0.44      0.00
   -1    5   36      5.27      0.00
   -4    8   36      2.32      0.00
   -5    7   36     10.27      0.00
   -2    7   36      0.88      0.00
   -5   10   36     -3.42      0.00
   -6    9   36     10.03      0.00
   -6    6   36     -6.52      0.00
    0    6   36      8.55      0.00
   -3    9   36      1.66      0.00
   -6   12   36      2.95      0.00
   -7   11   36     -1.62      0.00
   -7    8   36      1.53      0.00
   -1    8   36     -3.46      0.00
   -4   11   36     -0.05      0.00
   -7   14   36     -1.03      0.00
   -8   13   36      6.05      0.00
   -8   10   36     -1.91      0.00
   -2   10   36      7.05      0.00
   -5   13   36      0.22      0.00
   -8   16   36     -1.49      0.00
   -9   15   36     -2.67      0.00
   -9   12   36     -3.69      0.00
   -9    9   36     -6.65      0.00
    0    9   36      5.67      0.00
   -3   12   36     -5.08      0.00
   -6   15   36     -5.62      0.00
  -10   17   36      1.94      0.00
  -10   14   36     -2.86      0.00
  -10   11   36      5.22      0.00
   -1   11   36     -0.63      0.00
   -4   14   36     -7.74      0.00
   -7   17   36     -1.80      0.00
  -11   16   36     -0.66      0.00
  -11   13   36     -7.21      0.00
   -2   13   36     -5.44      0.00
   -5   16   36      0.76      0.00
  -12   15   36      1.96      0.00
  -12   12   36     -4.66      0.00
    0   12   36     -9.84      0.00
   -3   15   36     -6.00      0.00
  -13   17   36     -4.81      0.00
  -13   14   36     -0.02      0.00
   -1   14   36      0.93      0.00
   -4   17   36      1.21      0.00
  -14   16   36     -3.54      0.00
   -2   16   36     -7.16      0.00
  -15   15   36     -3.27      0.00
    0   15   36      0.51      0.00
   -1    1   37     19.63      0.00
   -2    3   37      7.92      0.00
    0    2   37      2.71      0.00
   -3    5   37     21.16      0.00
   -1    4   37      5.11      0.00
   -4    7   37     12.28      0.00
   -4    4   37      8.04      0.00
   -2    6   37      7.12      0.00
   -5    9   37      3.82      0.00
   -5    6   37      0.43      0.00
    0    5   37     12.14      0.00
   -3    8   37      3.22      0.00
   -6   11   37      4.76      0.00
   -6    8   37      1.78      0.00
   -1    7   37      6.96      0.00
   -4   10   37      5.59      0.00
   -7   13   37     -0.33      0.00
   -7   10   37      0.60      0.00
   -7    7   37      5.09      0.00
   -2    9   37     10.88      0.00
   -5   12   37      0.91      0.00
   -8   15   37      0.56      0.00
   -8   12   37      5.21      0.00
   -8    9   37      7.68      0.00
    0    8   37      6.09      0.00
   -3   11   37      4.84      0.00
   -6   14   37     -1.24      0.00
   -9   17   37      0.47      0.00
   -9   14   37      2.94      0.00
   -9   11   37      4.86      0.00
   -1   10   37      0.06      0.00
   -4   13   37     -2.10      0.00
   -7   16   37     -0.34      0.00
  -10   16   37      1.08      0.00
  -10   13   37      9.27      0.00
  -10   10   37      6.01      0.00
   -2   12   37      2.62      0.00
   -5   15   37      0.95      0.00
  -11   15   37     -0.31      0.00
  -11   12   37      3.39      0.00
    0   11   37      0.03      0.00
   -3   14   37      5.59      0.00
   -6   17   37     -7.62      0.00
  -12   17   37      0.91      0.00
  -12   14   37     -0.19      0.00
   -1   13   37      6.15      0.00
   -4   16   37      1.71      0.00
  -13   16   37     -2.95      0.00
  -13   13   37     -5.21      0.00
   -2   15   37     -0.57      0.00
  -14   15   37     -5.58      0.00
    0   14   37     -2.08      0.00
    0    1   38      4.88      0.00
   -2    2   38     13.46      0.00
   -1    3   38     14.90      0.00
   -3    4   38      8.32      0.00
   -2    5   38      6.06      0.00
   -4    6   38      4.65      0.00
    0    4   38     12.17      0.00
   -3    7   38      4.07      0.00
   -5    8   38      4.98      0.00
   -5    5   38      7.77      0.00
   -1    6   38      5.47      0.00
   -4    9   38      4.14      0.00
   -6   10   38      3.73      0.00
   -6    7   38      6.04      0.00
   -2    8   38      7.70      0.00
   -5   11   38     -0.36      0.00
   -7   12   38      3.74      0.00
   -7    9   38      7.38      0.00
    0    7   38      8.62      0.00
   -3   10   38      5.74      0.00
   -6   13   38      4.27      0.00
   -8   14   38      5.63      0.00
   -8   11   38      6.59      0.00
   -8    8   38      4.19      0.00
   -1    9   38      6.06      0.00
   -4   12   38      3.67      0.00
   -7   15   38      2.41      0.00
   -9   16   38      2.97      0.00
   -9   13   38      1.95      0.00
   -9   10   38      7.49      0.00
   -2   11   38      5.25      0.00
   -5   14   38      2.69      0.00
   -8   17   38      4.95      0.00
  -10   15   38      5.81      0.00
  -10   12   38      1.38      0.00
    0   10   38      0.23      0.00
   -3   13   38     16.29      0.00
   -6   16   38      2.90      0.00
  -11   17   38      2.12      0.00
  -11   14   38     -1.22      0.00
  -11   11   38      7.99      0.00
   -1   12   38      0.56      0.00
   -4   15   38     -0.99      0.00
  -12   16   38      5.64      0.00
  -12   13   38      1.83      0.00
   -2   14   38      4.19      0.00
   -5   17   38      4.06      0.00
  -13   15   38      6.12      0.00
    0   13   38      0.60      0.00
   -3   16   38      4.13      0.00
  -14   14   38      7.32      0.00
   -1   15   38      3.37      0.00
    0    0   39     -7.50      0.00
   -1    2   39    -10.86      0.00
   -2    4   39     13.82      0.00
   -3    3   39      2.89      0.00
    0    3   39     -6.00      0.00
   -3    6   39      6.32      0.00
   -4    5   39      2.39      0.00
   -1    5   39     -4.30      0.00
   -4    8   39      3.66      0.00
   -5    7   39      2.18      0.00
   -2    7   39     -1.21      0.00
   -5   10   39     -2.87      0.00
   -6    9   39      0.95      0.00
   -6    6   39     -8.33      0.00
    0    6   39      7.86      0.00
   -3    9   39     -3.28      0.00
   -6   12   39      6.24      0.00
   -7   11   39     -2.90      0.00
   -7    8   39      1.96      0.00
   -1    8   39      2.63      0.00
   -4   11   39     -1.85      0.00
   -7   14   39     -0.38      0.00
   -8   13   39      4.74      0.00
   -8   10   39     -1.09      0.00
   -2   10   39      3.92      0.00
   -5   13   39      4.93      0.00
   -8   16   39      4.88      0.00
   -9   15   39     -1.99      0.00
   -9   12   39      3.68      0.00
   -9    9   39     -1.22      0.00
    0    9   39     -2.14      0.00
   -3   12   39     -0.65      0.00
   -6   15   39     -0.69      0.00
  -10   17   39     -0.95      0.00
  -10   14   39      6.54      0.00
  -10   11   39      1.79      0.00
   -1   11   39      4.40      0.00
   -4   14   39      2.97      0.00
   -7   17   39     -6.80      0.00
  -11   16   39     -2.66      0.00
  -11   13   39      2.09      0.00
   -2   13   39     -4.18      0.00
   -5   16   39     -0.85      0.00
  -12   15   39      2.53      0.00
  -12   12   39     -8.37      0.00
    0   12   39     -1.77      0.00
   -3   15   39      1.87      0.00
  -13   14   39    -12.82      0.00
   -1   14   39     -0.17      0.00
  -15   15   39      0.54      0.00
    0   15   39      4.49      0.00
   -1    1   40     -4.19      0.00
   -2    3   40     -7.43      0.00
    0    2   40     28.59      0.00
   -3    5   40     -4.75      0.00
   -1    4   40     -5.63      0.00
   -4    7   40     -5.14      0.00
   -4    4   40     10.12      0.00
   -2    6   40      2.68      0.00
   -5    9   40     -7.32      0.00
   -5    6   40     -1.83      0.00
    0    5   40    -12.99      0.00
   -3    8   40     -2.44      0.00
   -6   11   40     -1.42      0.00
   -6    8   40     -3.53      0.00
   -1    7   40     -6.25      0.00
   -4   10   40      0.94      0.00
   -7   13   40     -6.36      0.00
   -7   10   40     -1.52      0.00
   -7    7   40      1.84      0.00
   -2    9   40     -4.21      0.00
   -5   12   40     -3.31      0.00
   -8   15   40     -0.03      0.00
   -8   12   40     -0.14      0.00
   -8    9   40      0.21      0.00
    0    8   40     -4.17      0.00
   -3   11   40     -2.32      0.00
   -6   14   40      2.39      0.00
   -9   17   40     -0.98      0.00
   -9   14   40     -3.71      0.00
   -9   11   40     -6.00      0.00
   -1   10   40     -4.54      0.00
   -4   13   40      1.16      0.00
   -7   16   40      0.30      0.00
  -10   16   40      2.84      0.00
  -10   13   40     -3.51      0.00
  -10   10   40      2.73      0.00
   -2   12   40      1.65      0.00
   -5   15   40     -6.30      0.00
  -11   15   40      1.75      0.00
  -11   12   40     -6.44      0.00
    0   11   40    -27.92      0.00
   -3   14   40      2.90      0.00
  -12   14   40      1.68      0.00
   -1   13   40     -1.96      0.00
   -4   16   40      5.37      0.00
  -13   16   40     -6.67      0.00
  -13   13   40      7.59      0.00
   -2   15   40     -4.21      0.00
  -14   15   40     -2.48      0.00
    0   14   40      2.39      0.00
    0    1   41    -31.35      0.00
   -2    2   41      4.45      0.00
   -1    3   41    -10.20      0.00
   -3    4   41     -8.95      0.00
   -2    5   41    -14.06      0.00
   -4    6   41     -1.84      0.00
    0    4   41     -1.67      0.00
   -3    7   41     -6.52      0.00
   -5    8   41     -2.44      0.00
   -5    5   41    -13.07      0.00
   -1    6   41     -9.93      0.00
   -4    9   41     -9.85      0.00
   -6   10   41     -6.23      0.00
   -6    7   41     -8.95      0.00
   -2    8   41     -5.82      0.00
   -5   11   41    -11.27      0.00
   -7   12   41      0.16      0.00
   -7    9   41     -6.27      0.00
    0    7   41    -14.47      0.00
   -3   10   41     -9.00      0.00
   -6   13   41     11.10      0.00
   -8   14   41      0.88      0.00
   -8   11   41      0.54      0.00
   -8    8   41     -0.03      0.00
   -1    9   41     -6.40      0.00
   -4   12   41      0.45      0.00
   -7   15   41     -3.50      0.00
   -9   16   41     -0.19      0.00
   -9   13   41     -1.76      0.00
   -9   10   41     -3.75      0.00
   -2   11   41     -5.53      0.00
   -5   14   41      2.53      0.00
   -8   17   41      2.26      0.00
  -10   15   41      2.25      0.00
  -10   12   41     -0.34      0.00
    0   10   41     -4.52      0.00
   -3   13   41     -1.28      0.00
   -6   16   41      3.06      0.00
  -11   14   41     -2.07      0.00
  -11   11   41     -1.96      0.00
   -1   12   41     -2.06      0.00
   -4   15   41      1.60      0.00
  -12   16   41      5.32      0.00
  -12   13   41     -3.85      0.00
   -2   14   41      2.15      0.00
  -13   15   41     12.94      0.00
    0   13   41     -9.47      0.00
   -3   16   41     -7.90      0.00
  -14   14   41      0.17      0.00
   -1   15   41     -1.85      0.00
    0    0   42      0.71      0.00
   -1    2   42     -8.65      0.00
   -2    4   42      1.92      0.00
   -3    3   42    -10.61      0.00
    0    3   42     -4.67      0.00
   -3    6   42     -0.90      0.00
   -4    5   42     -7.10      0.00
   -1    5   42    -10.56      0.00
   -4    8   42     -3.36      0.00
   -5    7   42     -1.97      0.00
   -2    7   42    -13.48      0.00
   -5   10   42     -3.95      0.00
   -6    9   42     -1.76      0.00
   -6    6   42     -0.01      0.00
    0    6   42     -7.78      0.00
   -3    9   42     -4.25      0.00
   -6   12   42      0.98      0.00
   -7   11   42     -2.41      0.00
   -7    8   42     -0.07      0.00
   -1    8   42     -6.29      0.00
   -4   11   42      0.46      0.00
   -7   14   42     -3.76      0.00
   -8   13   42      1.41      0.00
   -8   10   42      1.53      0.00
   -2   10   42      4.23      0.00
   -5   13   42      0.21      0.00
   -8   16   42     -2.05      0.00
   -9   15   42     -4.94      0.00
   -9   12   42     -2.31      0.00
   -9    9   42      1.01      0.00
    0    9   42     -5.59      0.00
   -3   12   42     -2.45      0.00
   -6   15   42     -3.26      0.00
  -10   14   42     -0.27      0.00
  -10   11   42      0.75      0.00
   -1   11   42     -6.01      0.00
   -4   14   42     -2.33      0.00
  -11   16   42     -6.12      0.00
  -11   13   42      0.66      0.00
   -2   13   42     -1.73      0.00
   -5   16   42     -3.93      0.00
  -12   15   42     -0.30      0.00
  -12   12   42     -1.45      0.00
    0   12   42     -6.77      0.00
   -3   15   42     -6.36      0.00
  -13   14   42     -2.23      0.00
   -1   14   42      2.93      0.00
   -1    1   43     -4.74      0.00
   -2    3   43      2.54      0.00
    0    2   43      5.36      0.00
   -3    5   43      3.38      0.00
   -1    4   43      0.17      0.00
   -4    7   43      6.59      0.00
   -4    4   43      3.70      0.00
   -2    6   43      0.64      0.00
   -5    9   43      1.69      0.00
   -5    6   43     -0.75      0.00
    0    5   43      2.74      0.00
   -3    8   43      4.32      0.00
   -6   11   43      4.02      0.00
   -6    8   43      0.77      0.00
   -1    7   43      1.93      0.00
   -4   10   43     -2.01      0.00
   -7   13   43      2.63      0.00
   -7   10   43      2.20      0.00
   -7    7   43      6.37      0.00
   -2    9   43      4.99      0.00
   -5   12   43     -1.63      0.00
   -8   15   43      3.37      0.00
   -8   12   43      3.58      0.00
   -8    9   43      6.45      0.00
    0    8   43     -1.71      0.00
   -3   11   43     -2.00      0.00
   -6   14   43      1.11      0.00
   -9   14   43     -3.36      0.00
   -9   11   43      0.18      0.00
   -1   10   43     -6.33      0.00
   -4   13   43      2.25      0.00
   -7   16   43      2.60      0.00
  -10   16   43     -0.15      0.00
  -10   13   43     -3.46      0.00
  -10   10   43      3.71      0.00
   -2   12   43      2.16      0.00
   -5   15   43     -0.80      0.00
  -11   15   43     -5.92      0.00
  -11   12   43      1.04      0.00
    0   11   43     -4.13      0.00
   -3   14   43     -0.81      0.00
  -12   14   43      4.46      0.00
   -1   13   43     -2.09      0.00
   -4   16   43     -0.25      0.00
  -13   13   43     -0.80      0.00
   -2   15   43      0.36      0.00
    0   14   43     -1.94      0.00
    0    1   44      1.25      0.00
   -2    2   44     -4.33      0.00
   -1    3   44      7.73      0.00
   -3    4   44      3.03      0.00
   -2    5   44     13.93      0.00
   -4    6   44      8.89      0.00
    0    4   44      1.84      0.00
   -3    7   44      5.76      0.00
   -5    8   44      5.62      0.00
   -5    5   44      3.11      0.00
   -1    6   44      0.35      0.00
   -4    9   44      5.19      0.00
   -6   10   44      2.88      0.00
   -6    7   44      8.90      0.00
   -2    8   44      0.15      0.00
   -5   11   44     -1.67      0.00
   -7   12   44      1.93      0.00
   -7    9   44      4.48      0.00
    0    7   44      8.32      0.00
   -3   10   44      2.02      0.00
   -6   13   44      6.44      0.00
   -8   14   44      3.05      0.00
   -8   11   44      5.46      0.00
   -8    8   44     10.86      0.00
   -1    9   44      2.83      0.00
   -4   12   44      1.39      0.00
   -7   15   44     -4.17      0.00
   -9   16   44      1.10      0.00
   -9   13   44      0.86      0.00
   -9   10   44     12.10      0.00
   -2   11   44      9.54      0.00
   -5   14   44     -3.25      0.00
  -10   15   44      0.03      0.00
  -10   12   44      7.43      0.00
    0   10   44      1.99      0.00
   -3   13   44      5.11      0.00
   -6   16   44    -10.18      0.00
  -11   14   44      1.15      0.00
  -11   11   44      3.62      0.00
   -1   12   44     -0.73      0.00
   -4   15   44     -6.42      0.00
  -12   13   44      0.13      0.00
   -2   14   44      1.19      0.00
  -13   15   44      1.34      0.00
    0   13   44      7.36      0.00
  -14   14   44      5.35      0.00
    0    0   45     -8.61      0.00
   -1    2   45      2.69      0.00
   -2    4   45      2.59      0.00
   -3    3   45     -3.47      0.00
    0    3   45     10.23      0.00
   -3    6   45      4.93      0.00
   -4    5   45      4.82      0.00
   -1    5   45     -2.79      0.00
   -4    8   45      6.65      0.00
   -5    7   45      0.64      0.00
   -2    7   45      7.63      0.00
   -5   10   45     -1.42      0.00
   -6    9   45      3.62      0.00
   -6    6   45     -0.40      0.00
    0    6   45      4.29      0.00
   -3    9   45      1.44      0.00
   -6   12   45      5.23      0.00
   -7   11   45     -0.05      0.00
   -7    8   45      4.42      0.00
   -1    8   45      4.86      0.00
   -4   11   45      2.28      0.00
   -7   14   45     -0.89      0.00
   -8   13   45     -1.64      0.00
   -8   10   45      2.79      0.00
   -2   10   45      5.84      0.00
   -5   13   45      1.55      0.00
   -8   16   45      5.66      0.00
   -9   15   45     -0.73      0.00
   -9   12   45      1.89      0.00
   -9    9   45     -6.60      0.00
    0    9   45      7.64      0.00
   -3   12   45      0.03      0.00
   -6   15   45      1.57      0.00
  -10   14   45      2.93      0.00
  -10   11   45     -0.92      0.00
   -1   11   45      4.27      0.00
   -4   14   45      0.40      0.00
  -11   13   45      0.07      0.00
   -2   13   45      2.95      0.00
  -12   15   45     -0.73      0.00
  -12   12   45      5.00      0.00
    0   12   45     -0.10      0.00
   -3   15   45      0.24      0.00
  -13   14   45     -0.47      0.00
   -1   14   45     -4.03      0.00
   -1    1   46    -12.06      0.00
   -2    3   46     -7.62      0.00
    0    2   46     -5.34      0.00
   -3    5   46     -3.15      0.00
   -1    4   46     -6.68      0.00
   -4    7   46      4.25      0.00
   -4    4   46     -5.77      0.00
   -2    6   46      1.26      0.00
   -5    9   46     -4.21      0.00
   -5    6   46     -0.71      0.00
    0    5   46      1.86      0.00
   -3    8   46     -0.07      0.00
   -6   11   46      0.56      0.00
   -6    8   46     -8.96      0.00
   -1    7   46     -0.08      0.00
   -4   10   46      0.93      0.00
   -7   13   46     -2.60      0.00
   -7   10   46     -4.10      0.00
   -7    7   46     -1.06      0.00
   -2    9   46      9.01      0.00
   -5   12   46     -3.11      0.00
   -8   15   46      1.15      0.00
   -8   12   46      3.17      0.00
   -8    9   46      1.80      0.00
    0    8   46     -3.97      0.00
   -3   11   46     -4.75      0.00
   -6   14   46      1.42      0.00
   -9   14   46      1.93      0.00
   -9   11   46     -7.63      0.00
   -1   10   46     -0.60      0.00
   -4   13   46      0.30      0.00
   -7   16   46     -1.50      0.00
  -10   13   46     -3.36      0.00
  -10   10   46      5.21      0.00
   -2   12   46      4.60      0.00
   -5   15   46    -18.31      0.00
  -11   15   46     -0.74      0.00
  -11   12   46     -3.07      0.00
    0   11   46     -5.94      0.00
   -3   14   46     -2.92      0.00
  -12   14   46      2.06      0.00
   -1   13   46     -0.33      0.00
  -13   13   46     -1.59      0.00
    0    1   47     -7.14      0.00
   -2    2   47     -2.58      0.00
   -1    3   47     -2.57      0.00
   -3    4   47    -11.11      0.00
   -2    5   47     -7.00      0.00
   -4    6   47     -3.17      0.00
    0    4   47     -6.71      0.00
   -3    7   47     -2.58      0.00
   -5    8   47     -5.01      0.00
   -5    5   47     -7.87      0.00
   -1    6   47    -11.76      0.00
   -4    9   47     -3.34      0.00
   -6   10   47     -5.25      0.00
   -6    7   47     -7.02      0.00
   -2    8   47     -8.04      0.00
   -5   11   47    -14.45      0.00
   -7   12   47     -5.92      0.00
   -7    9   47     -6.94      0.00
    0    7   47     -2.52      0.00
   -3   10   47     -7.46      0.00
   -6   13   47      3.18      0.00
   -8   14   47      0.59      0.00
   -8   11   47     -2.10      0.00
   -8    8   47     -6.09      0.00
   -1    9   47     -4.64      0.00
   -4   12   47      0.47      0.00
   -7   15   47     -5.80      0.00
   -9   13   47     -1.66      0.00
   -9   10   47    -16.04      0.00
   -2   11   47     -0.59      0.00
   -5   14   47      5.61      0.00
  -10   15   47     -0.76      0.00
  -10   12   47      1.91      0.00
    0   10   47     -0.38      0.00
   -3   13   47    -10.41      0.00
  -11   14   47     -1.30      0.00
  -11   11   47     -9.69      0.00
   -1   12   47     -2.49      0.00
   -4   15   47     -1.64      0.00
  -12   13   47     -2.09      0.00
   -2   14   47     -3.29      0.00
    0   13   47    -17.95      0.00
    0    0   48     -3.96      0.00
   -1    2   48     -7.17      0.00
   -2    4   48     -6.23      0.00
   -3    3   48     -8.04      0.00
    0    3   48     -9.68      0.00
   -3    6   48     -3.55      0.00
   -4    5   48     -6.87      0.00
   -1    5   48     -4.68      0.00
   -4    8   48     -4.97      0.00
   -5    7   48     -5.76      0.00
   -2    7   48     -6.11      0.00
   -5   10   48     -4.02      0.00
   -6    9   48     -3.77      0.00
   -6    6   48     -1.16      0.00
    0    6   48     -1.61      0.00
   -3    9   48     -5.05      0.00
   -6   12   48     -0.60      0.00
   -7   11   48     -0.44      0.00
   -7    8   48     -8.22      0.00
   -1    8   48     -5.75      0.00
   -4   11   48      2.57      0.00
   -7   14   48      1.97      0.00
   -8   13   48      7.08      0.00
   -8   10   48     -2.88      0.00
   -2   10   48      1.97      0.00
   -5   13   48     -7.94      0.00
   -9   15   48      0.94      0.00
   -9   12   48     -4.49      0.00
   -9    9   48     -0.63      0.00
    0    9   48     -2.48      0.00
   -3   12   48     -1.47      0.00
   -6   15   48     -2.99      0.00
  -10   14   48     -0.46      0.00
  -10   11   48     -4.00      0.00
   -1   11   48     -7.00      0.00
   -4   14   48     -5.39      0.00
  -11   13   48      3.27      0.00
   -2   13   48      0.32      0.00
  -12   12   48     -2.72      0.00
    0   12   48     -0.14      0.00
  -13   14   48      1.24      0.00
   -1   14   48      0.97      0.00
   -1    1   49     -3.42      0.00
   -2    3   49     -6.33      0.00
    0    2   49     -2.57      0.00
   -3    5   49     -1.61      0.00
   -1    4   49     -5.18      0.00
   -4    7   49      1.06      0.00
   -4    4   49     -3.48      0.00
   -2    6   49     -0.49      0.00
   -5    9   49      0.37      0.00
   -5    6   49     -2.74      0.00
    0    5   49     -5.32      0.00
   -3    8   49      2.13      0.00
   -6   11   49     -1.73      0.00
   -6    8   49     -5.24      0.00
   -1    7   49     -5.08      0.00
   -4   10   49     -4.68      0.00
   -7   13   49      1.57      0.00
   -7   10   49     -2.89      0.00
   -7    7   49      5.66      0.00
   -2    9   49      0.99      0.00
   -5   12   49     -0.82      0.00
   -8   15   49      4.01      0.00
   -8   12   49     -1.80      0.00
   -8    9   49     -3.48      0.00
    0    8   49     -0.82      0.00
   -3   11   49     -5.79      0.00
   -6   14   49     -0.06      0.00
   -9   14   49      0.41      0.00
   -9   11   49      4.24      0.00
   -1   10   49     -4.33      0.00
   -4   13   49      0.99      0.00
  -10   13   49      1.55      0.00
  -10   10   49     -9.58      0.00
   -2   12   49     -1.02      0.00
   -5   15   49     -1.25      0.00
  -11   12   49     -1.45      0.00
    0   11   49     -1.84      0.00
   -3   14   49      1.23      0.00
  -12   14   49      0.63      0.00
   -1   13   49     -6.44      0.00
  -13   13   49      4.35      0.00
    0    1   50      2.69      0.00
   -2    2   50      4.14      0.00
   -1    3   50      0.04      0.00
   -3    4   50     -1.64      0.00
   -2    5   50      2.41      0.00
   -4    6   50      4.29      0.00
    0    4   50      6.12      0.00
   -3    7   50     -2.69      0.00
   -5    8   50      2.93      0.00
   -5    5   50      2.06      0.00
   -1    6   50      0.65      0.00
   -4    9   50     -6.68      0.00
   -6   10   50     -3.78      0.00
   -6    7   50     -0.01      0.00
   -2    8   50     -4.61      0.00
   -5   11   50     -6.94      0.00
   -7   12   50     -3.60      0.00
   -7    9   50      5.42      0.00
    0    7   50     -0.54      0.00
   -3   10   50      2.74      0.00
   -6   13   50     -0.46      0.00
   -8   14   50      0.78      0.00
   -8   11   50     -0.10      0.00
   -8    8   50     -1.43      0.00
   -1    9   50     -2.31      0.00
   -4   12   50      0.77      0.00
   -7   15   50      0.31      0.00
   -9   13   50      6.71      0.00
   -9   10   50     -0.56      0.00
   -2   11   50      2.12      0.00
   -5   14   50      4.82      0.00
  -10   12   50      0.78      0.00
    0   10   50     -1.90      0.00
   -3   13   50      3.00      0.00
  -11   14   50      0.51      0.00
  -11   11   50      3.88      0.00
   -1   12   50      1.11      0.00
  -12   13   50     -2.76      0.00
   -2   14   50     -0.79      0.00
    0   13   50      6.73      0.00
    0    0   51      2.41      0.00
   -1    2   51      2.76      0.00
   -2    4   51      2.73      0.00
   -3    3   51     -5.53      0.00
    0    3   51      1.08      0.00
   -3    6   51     10.04      0.00
   -4    5   51      6.48      0.00
   -1    5   51      0.55      0.00
   -4    8   51      5.04      0.00
   -5    7   51     -0.49      0.00
   -2    7   51      0.88      0.00
   -5   10   51      5.25      0.00
   -6    9   51     -2.25      0.00
   -6    6   51      6.89      0.00
    0    6   51      5.01      0.00
   -3    9   51      0.39      0.00
   -6   12   51      2.77      0.00
   -7   11   51      2.11      0.00
   -7    8   51      7.24      0.00
   -1    8   51      2.95      0.00
   -4   11   51     -2.23      0.00
   -7   14   51      1.52      0.00
   -8   13   51     -3.94      0.00
   -8   10   51      0.48      0.00
   -2   10   51      0.28      0.00
   -5   13   51      1.22      0.00
   -9   12   51      4.97      0.00
   -9    9   51      1.95      0.00
    0    9   51     -0.11      0.00
   -3   12   51     -0.96      0.00
  -10   14   51     -2.37      0.00
  -10   11   51      2.90      0.00
   -1   11   51      2.88      0.00
   -4   14   51     -7.30      0.00
  -11   13   51      4.49      0.00
   -2   13   51      3.67      0.00
  -12   12   51     -1.73      0.00
    0   12   51     -6.05      0.00
   -1    1   52     -2.63      0.00
   -2    3   52      0.46      0.00
    0    2   52      3.65      0.00
   -3    5   52     -5.97      0.00
   -1    4   52      1.06      0.00
   -4    7   52      0.84      0.00
   -4    4   52      4.12      0.00
   -2    6   52      4.94      0.00
   -5    9   52     -3.10      0.00
   -5    6   52      6.06      0.00
    0    5   52      2.90      0.00
   -3    8   52      4.82      0.00
   -6   11   52    -23.64      0.00
   -6    8   52     -2.45      0.00
   -1    7   52     -1.66      0.00
   -4   10   52     -2.10      0.00
   -7   13   52     -4.76      0.00
   -7   10   52      3.29      0.00
   -7    7   52      0.13      0.00
   -2    9   52      0.86      0.00
   -5   12   52     -2.92      0.00
   -8   12   52     -0.42      0.00
   -8    9   52      1.50      0.00
    0    8   52     -1.14      0.00
   -3   11   52      3.90      0.00
   -6   14   52      4.82      0.00
   -9   14   52      3.65      0.00
   -9   11   52      0.45      0.00
   -1   10   52      3.00      0.00
   -4   13   52      3.33      0.00
  -10   13   52     -1.88      0.00
  -10   10   52      1.21      0.00
   -2   12   52      0.55      0.00
  -11   12   52      3.16      0.00
    0   11   52     -0.19      0.00
   -1   13   52      7.20      0.00
    0    1   53     -2.33      0.00
   -2    2   53      5.66      0.00
   -1    3   53     -7.07      0.00
   -3    4   53     -5.49      0.00
   -2    5   53     -2.85      0.00
   -4    6   53      1.04      0.00
    0    4   53     -1.28      0.00
   -3    7   53     -3.13      0.00
   -5    8   53      3.51      0.00
   -5    5   53     -7.14      0.00
   -1    6   53     -0.02      0.00
   -4    9   53     -2.79      0.00
   -6   10   53      1.33      0.00
   -6    7   53     -0.73      0.00
   -2    8   53     -3.88      0.00
   -5   11   53     -2.35      0.00
   -7   12   53      0.65      0.00
   -7    9   53     -4.79      0.00
    0    7   53      3.93      0.00
   -3   10   53      2.00      0.00
   -6   13   53     -3.51      0.00
   -8   14   53      1.18      0.00
   -8   11   53     -3.31      0.00
   -8    8   53     -2.35      0.00
   -1    9   53     -0.24      0.00
   -4   12   53      3.86      0.00
   -9   13   53     -4.76      0.00
   -9   10   53     -1.22      0.00
   -2   11   53      2.34      0.00
   -5   14   53     -0.07      0.00
  -10   12   53      4.86      0.00
    0   10   53      1.40      0.00
   -3   13   53     -5.80      0.00
  -11   11   53     -6.46      0.00
   -1   12   53      2.03      0.00
    0    0   54      4.68      0.00
   -1    2   54     -0.71      0.00
   -2    4   54     -4.69      0.00
   -3    3   54     -5.01      0.00
    0    3   54     -2.57      0.00
   -3    6   54      0.36      0.00
   -4    5   54     -0.28      0.00
   -1    5   54     -0.20      0.00
   -4    8   54      0.23      0.00
   -5    7   54    -10.30      0.00
   -2    7   54     -0.94      0.00
   -5   10   54     -5.84      0.00
   -6    9   54     -3.03      0.00
   -6    6   54      3.18      0.00
    0    6   54     -9.65      0.00
   -3    9   54     -0.60      0.00
   -6   12   54     -6.08      0.00
   -7   11   54     -7.75      0.00
   -7    8   54     -2.43      0.00
   -1    8   54     -5.34      0.00
   -4   11   54     -1.00      0.00
   -7   14   54      2.53      0.00
   -8   13   54     -1.99      0.00
   -8   10   54      4.61      0.00
   -2   10   54     -0.62      0.00
   -5   13   54      1.64      0.00
   -9   12   54      1.31      0.00
   -9    9   54     -3.98      0.00
    0    9   54      1.70      0.00
   -3   12   54     -1.87      0.00
  -10   11   54      1.70      0.00
   -1   11   54     -2.73      0.00
  -11   13   54      2.71      0.00
   -2   13   54     -0.88      0.00
  -12   12   54      2.47      0.00
    0   12   54     -1.18      0.00
   -1    1   55     -1.71      0.00
   -2    3   55      1.90      0.00
    0    2   55      0.10      0.00
   -3    5   55     -6.17      0.00
   -1    4   55     -1.84      0.00
   -4    7   55      2.47      0.00
   -4    4   55     -1.23      0.00
   -2    6   55     -3.39      0.00
   -5    9   55     -0.41      0.00
   -5    6   55     -1.92      0.00
    0    5   55      6.10      0.00
   -3    8   55      1.21      0.00
   -6   11   55      1.65      0.00
   -6    8   55      2.21      0.00
   -1    7   55      0.50      0.00
   -4   10   55      2.59      0.00
   -7   13   55     -1.32      0.00
   -7   10   55     -0.07      0.00
   -7    7   55     -5.62      0.00
   -2    9   55      6.99      0.00
   -5   12   55     -1.69      0.00
   -8   12   55      1.18      0.00
   -8    9   55      0.25      0.00
    0    8   55      0.37      0.00
   -3   11   55     -0.15      0.00
   -9   11   55      1.01      0.00
   -1   10   55     -3.99      0.00
   -4   13   55     -0.88      0.00
  -10   13   55      1.46      0.00
  -10   10   55      3.94      0.00
   -2   12   55      0.53      0.00
  -11   12   55     -1.13      0.00
    0   11   55      3.06      0.00
    0    1   56      1.82      0.00
   -2    2   56     -4.43      0.00
   -1    3   56     -3.11      0.00
   -3    4   56     -0.91      0.00
   -2    5   56      8.86      0.00
   -4    6   56      0.20      0.00
    0    4   56     -2.89      0.00
   -3    7   56      0.67      0.00
   -5    8   56     -0.85      0.00
   -5    5   56      2.07      0.00
   -1    6   56     -0.68      0.00
   -4    9   56      6.15      0.00
   -6   10   56      3.33      0.00
   -6    7   56      0.23      0.00
   -2    8   56     -6.37      0.00
   -5   11   56     -1.65      0.00
   -7   12   56     -5.77      0.00
   -7    9   56     -0.60      0.00
    0    7   56      7.34      0.00
   -3   10   56     -3.55      0.00
   -6   13   56     10.68      0.00
   -8   11   56      7.05      0.00
   -8    8   56      1.59      0.00
   -1    9   56     -0.96      0.00
   -4   12   56      3.24      0.00
   -9   13   56     -2.49      0.00
   -9   10   56      0.38      0.00
   -2   11   56      3.74      0.00
  -10   12   56      5.26      0.00
    0   10   56      1.56      0.00
  -11   11   56     -1.93      0.00
   -1   12   56     -0.41      0.00
    0    0   57    -15.80      0.00
   -1    2   57      2.76      0.00
   -2    4   57     -5.89      0.00
   -3    3   57      0.56      0.00
    0    3   57      8.79      0.00
   -3    6   57     -1.87      0.00
   -4    5   57      3.67      0.00
   -1    5   57      2.22      0.00
   -4    8   57     -1.27      0.00
   -5    7   57     -5.97      0.00
   -2    7   57      4.78      0.00
   -5   10   57     -3.32      0.00
   -6    9   57     -0.47      0.00
   -6    6   57      0.78      0.00
    0    6   57     -4.77      0.00
   -3    9   57      3.11      0.00
   -6   12   57      5.61      0.00
   -7   11   57     -2.84      0.00
   -7    8   57     -1.97      0.00
   -1    8   57     -0.57      0.00
   -4   11   57      2.97      0.00
   -8   13   57      1.71      0.00
   -8   10   57      3.56      0.00
   -2   10   57     -3.34      0.00
   -5   13   57     -1.46      0.00
   -9   12   57     -2.83      0.00
   -9    9   57     -2.01      0.00
    0    9   57     -0.28      0.00
   -3   12   57     -6.79      0.00
  -10   11   57      2.05      0.00
   -1   11   57      1.14      0.00
   -1    1   58     -5.84      0.00
   -2    3   58      1.94      0.00
    0    2   58    -12.23      0.00
   -3    5   58      0.53      0.00
   -1    4   58      2.15      0.00
   -4    7   58      2.40      0.00
   -4    4   58     -0.50      0.00
   -2    6   58     -1.77      0.00
   -5    9   58     -0.08      0.00
   -5    6   58      2.48      0.00
    0    5   58      2.12      0.00
   -3    8   58     -3.22      0.00
   -6   11   58     -2.67      0.00
   -6    8   58     -0.20      0.00
   -1    7   58     -0.23      0.00
   -4   10   58      1.44      0.00
   -7   10   58      0.71      0.00
   -7    7   58     -0.92      0.00
   -2    9   58     -0.18      0.00
   -5   12   58     -2.69      0.00
   -8   12   58     -0.06      0.00
   -8    9   58      0.37      0.00
    0    8   58      4.78      0.00
   -3   11   58     -1.46      0.00
   -9   11   58     -5.15      0.00
   -1   10   58     -2.65      0.00
  -10   10   58      0.70      0.00
   -2   12   58     -0.55      0.00
    0   11   58      2.62      0.00
    0    1   59      0.06      0.00
   -2    2   59     -6.39      0.00
   -1    3   59      2.78      0.00
   -3    4   59      2.27      0.00
   -2    5   59      1.59      0.00
   -4    6   59     -2.10      0.00
    0    4   59     -2.34      0.00
   -3    7   59      1.77      0.00
   -5    8   59     -2.59      0.00
   -5    5   59      4.81      0.00
   -1    6   59      4.07      0.00
   -4    9   59     -0.44      0.00
   -6   10   59      0.81      0.00
   -6    7   59     -0.45      0.00
   -2    8   59      0.24      0.00
   -5   11   59      3.61      0.00
   -7   12   59      0.70      0.00
   -7    9   59      0.24      0.00
    0    7   59      0.20      0.00
   -3   10   59     -2.14      0.00
   -8   11   59     -2.82      0.00
   -8    8   59     -1.55      0.00
   -1    9   59     -0.38      0.00
   -4   12   59      0.58      0.00
   -9   10   59      0.79      0.00
   -2   11   59      3.43      0.00
    0   10   59      2.21      0.00
    0    0   60     -5.75      0.00
   -1    2   60      2.38      0.00
   -2    4   60     -0.64      0.00
   -3    3   60      3.83      0.00
    0    3   60     -1.01      0.00
   -3    6   60      0.26      0.00
   -4    5   60      0.15      0.00
   -1    5   60      4.64      0.00
   -4    8   60     -0.29      0.00
   -5    7   60     -2.45      0.00
   -2    7   60     -8.47      0.00
   -5   10   60     -0.10      0.00
   -6    9   60     -1.49      0.00
   -6    6   60      3.69      0.00
    0    6   60     -2.52      0.00
   -3    9   60      0.36      0.00
   -6   12   60      0.78      0.00
   -7   11   60     -0.21      0.00
   -7    8   60     -0.49      0.00
   -1    8   60      1.58      0.00
   -4   11   60      2.27      0.00
   -8   10   60     -0.24      0.00
   -2   10   60     -0.18      0.00
   -9    9   60     -0.27      0.00
    0    9   60      0.71      0.00
  -10   11   60     -1.92      0.00
   -1   11   60     -5.69      0.00
   -1    1   61     -0.33      0.00
   -2    3   61      0.14      0.00
    0    2   61     -1.50      0.00
   -3    5   61      2.77      0.00
   -1    4   61      2.95      0.00
   -4    7   61     -3.25      0.00
   -4    4   61      1.30      0.00
   -2    6   61      1.91      0.00
   -5    9   61      2.49      0.00
   -5    6   61     -1.18      0.00
    0    5   61     -4.80      0.00
   -3    8   61      0.99      0.00
   -6   11   61      6.00      0.00
   -6    8   61      2.49      0.00
   -1    7   61      4.20      0.00
   -4   10   61      0.75      0.00
   -7   10   61     -0.18      0.00
   -7    7   61     -1.67      0.00
   -2    9   61     -0.23      0.00
   -8    9   61      0.46      0.00
    0    8   61      3.27      0.00
   -3   11   61      0.07      0.00
   -9   11   61      2.67      0.00
   -1   10   61     -1.65      0.00
  -10   10   61      4.68      0.00
    0    1   62      5.31      0.00
   -2    2   62      4.46      0.00
   -1    3   62      3.08      0.00
   -3    4   62      0.38      0.00
   -2    5   62      0.70      0.00
   -4    6   62      0.89      0.00
    0    4   62      6.63      0.00
   -3    7   62      1.30      0.00
   -5    8   62     -0.13      0.00
   -5    5   62      4.17      0.00
   -1    6   62      3.35      0.00
   -4    9   62      1.08      0.00
   -6   10   62      2.83      0.00
   -6    7   62      0.84      0.00
   -2    8   62     -2.89      0.00
   -5   11   62      8.55      0.00
   -7    9   62      3.91      0.00
    0    7   62      0.19      0.00
   -3   10   62      1.95      0.00
   -8   11   62      1.74      0.00
   -8    8   62      1.26      0.00
   -1    9   62      0.85      0.00
   -9   10   62     -1.70      0.00
    0    0   63     -0.63      0.00
   -1    2   63      0.62      0.00
   -2    4   63      6.39      0.00
   -3    3   63      2.20      0.00
    0    3   63      1.65      0.00
   -3    6   63      0.57      0.00
   -4    5   63     -0.43      0.00
   -1    5   63      2.26      0.00
   -4    8   63     -1.64      0.00
   -5    7   63     -2.25      0.00
   -2    7   63     -0.94      0.00
   -5   10   63     -2.27      0.00
   -6    9   63      1.22      0.00
   -6    6   63     -1.75      0.00
    0    6   63     -0.93      0.00
   -3    9   63      1.26      0.00
   -7    8   63     -1.51      0.00
   -1    8   63      3.04      0.00
   -8   10   63     -0.64      0.00
   -2   10   63     -3.88      0.00
   -9    9   63     -0.15      0.00
    0    9   63     -0.89      0.00
   -1    1   64     -0.10      0.00
   -2    3   64      0.28      0.00
    0    2   64      0.03      0.00
   -3    5   64     -1.34      0.00
   -1    4   64      1.04      0.00
   -4    7   64      0.57      0.00
   -4    4   64      0.51      0.00
   -2    6   64     -2.11      0.00
   -5    9   64     -0.23      0.00
   -5    6   64      1.04      0.00
    0    5   64      0.94      0.00
   -3    8   64     -0.98      0.00
   -6    8   64     -1.05      0.00
   -1    7   64      0.19      0.00
   -4   10   64      0.49      0.00
   -7   10   64     -1.52      0.00
   -7    7   64     -0.26      0.00
   -2    9   64     -3.81      0.00
   -8    9   64     -1.59      0.00
    0    8   64     -5.84      0.00
    0    1   65     -1.23      0.00
   -2    2   65      0.78      0.00
   -1    3   65     -2.39      0.00
   -3    4   65      0.34      0.00
   -2    5   65      1.98      0.00
   -4    6   65     -1.62      0.00
    0    4   65     -0.66      0.00
   -3    7   65     -3.18      0.00
   -5    8   65     -1.94      0.00
   -5    5   65     -1.81      0.00
   -1    6   65      1.97      0.00
   -4    9   65     -2.27      0.00
   -6   10   65     -0.68      0.00
   -6    7   65     -0.05      0.00
   -2    8   65     -2.98      0.00
   -7    9   65      1.21      0.00
    0    7   65     -1.48      0.00
   -8    8   65     -2.79      0.00
   -1    9   65      3.06      0.00
    0    0   66      2.67      0.00
   -1    2   66      3.48      0.00
   -2    4   66      2.18      0.00
   -3    3   66      1.37      0.00
    0    3   66      2.50      0.00
   -3    6   66      2.67      0.00
   -4    5   66      3.72      0.00
   -1    5   66      0.20      0.00
   -4    8   66     -0.44      0.00
   -5    7   66      0.27      0.00
   -2    7   66     -0.85      0.00
   -6    9   66     -0.12      0.00
   -6    6   66      2.91      0.00
    0    6   66     -5.03      0.00
   -3    9   66     -2.09      0.00
   -7    8   66      0.87      0.00
   -1    8   66      0.04      0.00
   -1    1   67      6.30      0.00
   -2    3   67      3.30      0.00
    0    2   67      2.68      0.00
   -3    5   67      1.33      0.00
   -1    4   67      1.90      0.00
   -4    7   67      1.38      0.00
   -4    4   67      0.47      0.00
   -2    6   67     -0.25      0.00
   -5    9   67      0.24      0.00
   -5    6   67      3.78      0.00
    0    5   67      2.05      0.00
   -3    8   67      2.12      0.00
   -6    8   67      3.36      0.00
   -1    7   67      0.59      0.00
   -7    7   67      2.38      0.00
    0    1   68      1.42      0.00
   -2    2   68      0.41      0.00
   -1    3   68     -0.94      0.00
   -3    4   68      0.57      0.00
   -2    5   68      2.78      0.00
   -4    6   68      0.69      0.00
    0    4   68      3.11      0.00
   -3    7   68      1.55      0.00
   -5    8   68      0.66      0.00
   -5    5   68      1.00      0.00
   -1    6   68      2.58      0.00
   -6    7   68      1.52      0.00
   -2    8   68     -0.39      0.00
    0    7   68      8.22      0.00
    0    0   69      2.29      0.00
   -1    2   69      1.65      0.00
   -2    4   69     -0.36      0.00
   -3    3   69     -1.87      0.00
    0    3   69      1.24      0.00
   -3    6   69      0.40      0.00
   -4    5   69      0.04      0.00
   -1    5   69     -2.91      0.00
   -5    7   69      1.74      0.00
   -2    7   69      3.74      0.00
   -6    6   69     -1.23      0.00
    0    6   69     -2.87      0.00
   -1    1   70     -1.26      0.00
   -2    3   70     -0.78      0.00
    0    2   70     -1.01      0.00
   -3    5   70      1.51      0.00
   -1    4   70      1.40      0.00
   -4    7   70      1.18      0.00
   -4    4   70     -0.15      0.00
   -2    6   70      2.05      0.00
   -5    6   70     -0.17      0.00
    0    5   70     11.99      0.00
    0    1   71     -3.77      0.00
   -2    2   71     -3.81      0.00
   -1    3   71     -3.60      0.00
   -3    4   71     -3.84      0.00
   -2    5   71      0.12      0.00
   -4    6   71     -1.87      0.00
    0    4   71     -5.93      0.00
   -5    5   71     -1.52      0.00
   -1    6   71     -1.79      0.00
    0    0   72     -0.66      0.00
   -1    2   72     -2.85      0.00
   -2    4   72     -1.66      0.00
   -3    3   72     -2.72      0.00
    0    3   72      0.05      0.00
   -4    5   72      0.87      0.00
   -1    5   72      2.11      0.00
   -1    1   73      0.73      0.00
   -2    3   73      2.28      0.00
    0    2   73      3.55      0.00
   -1    4   73      1.05      0.00
    0    1   74      5.75      0.00
   -2    2   74      0.66      0.00
    0    3    0    -44.76      0.00
   -4    8    0    125.75      0.00
   -1    1    1   -170.82      0.00
    0    2    1    357.18      0.00
   -2    3    1    -13.09      0.00
   -4    4    1    188.46      0.00
    0    1    2    240.56      0.00
    0    0    3   -165.97      0.00
   -3    3    3   -154.42      0.00
    0    3    3     37.08      0.00
    0    2    4   -320.87      0.00
   -1    4    4   -118.65      0.00
    0    1    5     -6.05      0.00
    0    4    5   -142.81      0.00
    0    3    6     27.21      0.00
   -1    1    7     67.77      0.00
    0    4    8    119.64      0.00
    0    0    9     14.06      0.00
    0    6    9     23.91      0.00
    0    1   11   -126.80      0.00
    0    0   12     50.70      0.00
    0    0   15    -49.28      0.00
   -1    1   16     11.03      0.00
    0    0   18     52.77      0.00
    0    1   20     16.47      0.00
    0    0   21    -34.97      0.00
    0    1   23    -56.70      0.00
    0    4   23    -26.31      0.00
    0    4   26     65.29      0.00
    0    0   27    -15.29      0.00
    0    0    0      0.00      0.00
# SQUEEZE RESULTS (Version = 230318)
# Note: Data are Listed for all Voids in the P1 Unit Cell
# i.e. Centre of Gravity, Solvent Accessible Volume,
# Recovered number of Electrons in the Void and
# Details about the Squeezed Material
loop_
  _platon_squeeze_void_nr
  _platon_squeeze_void_average_x
  _platon_squeeze_void_average_y
  _platon_squeeze_void_average_z
  _platon_squeeze_void_volume
  _platon_squeeze_void_count_electrons
  _platon_squeeze_void_content
   1  0.000  0.000  0.000       721       113 ' '
   2 -0.019  0.483 -0.006      3692       814 ' '
   3  0.333  0.667  0.667       722       114 ' '
   4  0.667  0.333  0.333       722       114 ' '
# Missing Reflections Below sin(th)/lambda = 0.25
loop_
  _platon_missing_refln_index_h
  _platon_missing_refln_index_k
  _platon_missing_refln_index_l
  _platon_missing_refln_theta
    0    3    0     4.620
   -1    1    1     1.581
    0    2    1     3.099
   -2    3    1     4.089
   -4    4    1     6.175
    0    1    2     1.701
    0    0    3     1.089
   -3    3    3     4.747
    0    3    3     4.747
    0    2    4     3.404
   -1    4    4     5.743
    0    1    5     2.380
    0    4    5     6.428
    0    3    6     5.110
   -1    1    7     2.972
    0    4    8     6.820
    0    0    9     3.269
    0    6    9     9.839
    0    1   11     4.283
    0    0   12     4.361
    0    0   15     5.454
   -1    1   16     6.020
    0    0   18     6.549
    0    1   20     7.443
    0    0   21     7.647
    0    1   23     8.522
    0    0   27     9.851
_platon_squeeze_void_probe_radius                  1.20
_platon_squeeze_details
)
TITL 20200527zh_jhgz1117_0m_a.res in R-3m
CELL   15.2848   15.2848   56.0840     90.00     90.00    120.00
SPGR R-3m
# Solvent Accessible Volume =      5856
# Electrons Found in S.A.V. =      1144
# Note: Atoms in Void are Labelled as Cxxx and Qxxx for all Others
C101 1.000 1.001 0.156 !      10.51 eA-3
Q102 0.387 0.549 0.446 !       6.12 eA-3
Q103 0.533 1.000 0.500 !       3.38 eA-3
C104 0.622 0.816 0.254 !       3.37 eA-3
C105 0.687 0.845 0.449 !       3.18 eA-3
C106 0.749 0.877 0.430 !       3.14 eA-3
Q107 0.124 0.500 0.316 !       3.09 eA-3
Q108 0.886 0.236 0.367 !       2.89 eA-3
Q109 0.111 0.761 0.012 !       2.82 eA-3
Q110 0.870 0.595 0.196 !       2.81 eA-3
Q111 0.109 0.496 0.292 !       2.77 eA-3
C112 1.000 1.001 0.113 !       2.66 eA-3
Q113 0.941 0.619 0.187 !       2.64 eA-3
C114 0.156 0.305 0.339 !       2.61 eA-3
Q115 0.717 0.988 0.778 !       2.51 eA-3
Q116 0.971 0.424 0.559 !       2.38 eA-3
Q117 0.029 0.576 0.441 !       2.38 eA-3
Q118 0.594 0.794 0.055 !       2.06 eA-3
C119 0.343 0.170 0.816 !       2.04 eA-3
Q120 0.167 0.824 0.048 !       2.02 eA-3
C121 0.453 0.908 0.021 !       2.00 eA-3
C122 1.000 0.994 0.031 !       1.93 eA-3
C123 0.767 0.530 0.276 !       1.89 eA-3
Q124 0.841 0.926 0.348 !       1.78 eA-3
C125 0.469 0.937 0.043 !       1.74 eA-3
Q126 0.123 0.061 0.277 !       1.63 eA-3
C127 0.162 0.581 0.094 !       1.62 eA-3
C128 0.527 0.464 0.153 !       1.52 eA-3
C129 1.000 1.002 0.707 !       1.49 eA-3
Q130 0.188 0.123 0.185 !       1.47 eA-3
C131 0.873 0.332 0.833 !       1.42 eA-3
Q132 0.216 0.107 0.340 !       1.41 eA-3
C133 0.744 0.378 0.457 !       1.36 eA-3
C134 1.000 0.998 0.012 !       1.30 eA-3
C135 1.000 1.000 0.000 !       1.26 eA-3
Q136 0.436 0.391 0.251 !       1.26 eA-3
Q137 0.847 0.156 0.929 !       1.25 eA-3
C138 1.001 0.993 0.605 !       1.21 eA-3
Q139 0.701 0.684 0.129 !       1.20 eA-3
Q140 0.128 0.058 0.301 !       1.17 eA-3
Q141 0.812 0.631 0.062 !       1.07 eA-3
Q142 0.875 0.283 0.439 !       1.04 eA-3
Q143 0.485 0.974 0.916 !       1.04 eA-3
C144 0.370 0.686 0.262 !       1.03 eA-3
Q145 0.283 0.144 0.410 !       0.99 eA-3
C146 0.602 0.298 0.480 !       0.98 eA-3
Q147 0.908 0.236 0.887 !       0.94 eA-3
C148 0.078 1.000 0.500 !       0.93 eA-3
Q149 0.798 0.206 0.468 !       0.92 eA-3
Q150 0.798 0.597 0.469 !       0.92 eA-3
Q151 0.357 1.002 0.742 !       0.92 eA-3
Q152 0.107 0.749 0.089 !       0.91 eA-3
C153 0.482 0.152 0.301 !       0.90 eA-3
Q154 0.389 0.766 0.449 !       0.88 eA-3
Q155 0.847 0.153 0.292 !       0.87 eA-3
Q156 0.875 0.748 0.222 !       0.86 eA-3
C157 0.879 0.939 0.496 !       0.83 eA-3
Q158 0.844 0.689 0.876 !       0.81 eA-3
C159 0.966 0.920 0.077 !       0.79 eA-3
C160 0.891 0.779 0.508 !       0.78 eA-3
C161 0.779 0.392 0.863 !       0.77 eA-3
C162 0.286 0.720 0.132 !       0.77 eA-3
C163 0.438 0.716 0.246 !       0.75 eA-3
Q164 0.653 0.248 0.206 !       0.74 eA-3
Q165 1.001 0.703 0.499 !       0.72 eA-3
Q166 0.369 0.220 0.555 !       0.72 eA-3
Q167 0.859 0.715 0.331 !       0.71 eA-3
Q168 1.002 1.002 0.269 !       0.71 eA-3
Q169 0.625 0.246 0.484 !       0.71 eA-3
Q170 0.016 0.845 0.219 !       0.70 eA-3
Q171 0.903 0.094 0.782 !       0.69 eA-3
Q172 0.968 0.484 0.566 !       0.68 eA-3
Q173 0.705 0.405 0.168 !       0.67 eA-3
Q174 0.345 0.501 0.888 !       0.67 eA-3
Q175 0.347 0.845 0.886 !       0.67 eA-3
Q176 0.668 0.335 0.603 !       0.67 eA-3
C177 0.236 0.653 0.074 !       0.67 eA-3
C178 0.795 0.343 0.867 !       0.66 eA-3
C179 0.579 0.158 0.354 !       0.66 eA-3
Q180 0.638 0.280 0.610 !       0.65 eA-3
Q181 0.716 0.358 0.610 !       0.65 eA-3
C182 0.985 0.984 0.500 !       0.65 eA-3
Q183 0.335 0.656 0.983 !       0.64 eA-3
C184 0.667 0.333 0.646 !       0.64 eA-3
Q185 0.547 0.098 0.215 !       0.64 eA-3
C186 0.592 0.194 0.345 !       0.64 eA-3
C187 0.298 0.591 0.221 !       0.64 eA-3
Q188 1.001 1.004 0.820 !       0.64 eA-3
C189 0.046 0.093 0.554 !       0.63 eA-3
C190 0.609 0.218 0.399 !       0.61 eA-3
Q191 0.097 0.047 0.781 !       0.61 eA-3
Q192 0.190 0.590 0.554 !       0.61 eA-3
Q193 0.688 0.376 0.604 !       0.60 eA-3
Q194 0.125 0.567 0.347 !       0.60 eA-3
Q195 0.637 0.748 0.465 !       0.59 eA-3
C196 0.889 0.983 0.476 !       0.58 eA-3
C197 1.000 1.001 0.371 !       0.58 eA-3
Q198 0.470 0.936 0.513 !       0.58 eA-3
Q199 0.127 0.703 0.523 !       0.58 eA-3
)
;
_shelx_fab_checksum              25972
loop_
_space_group_symop_operation_xyz
'x, y, z'
'-y, x-y, z'
'-x+y, -x, z'
'y, x, -z'
'x-y, -y, -z'
'-x, -x+y, -z'
'x+2/3, y+1/3, z+1/3'
'-y+2/3, x-y+1/3, z+1/3'
'-x+y+2/3, -x+1/3, z+1/3'
'y+2/3, x+1/3, -z+1/3'
'x-y+2/3, -y+1/3, -z+1/3'
'-x+2/3, -x+y+1/3, -z+1/3'
'x+1/3, y+2/3, z+2/3'
'-y+1/3, x-y+2/3, z+2/3'
'-x+y+1/3, -x+2/3, z+2/3'
'y+1/3, x+2/3, -z+2/3'
'x-y+1/3, -y+2/3, -z+2/3'
'-x+1/3, -x+y+2/3, -z+2/3'
'-x, -y, -z'
'y, -x+y, -z'
'x-y, x, -z'
'-y, -x, z'
'-x+y, y, z'
'x, x-y, z'
'-x+2/3, -y+1/3, -z+1/3'
'y+2/3, -x+y+1/3, -z+1/3'
'x-y+2/3, x+1/3, -z+1/3'
'-y+2/3, -x+1/3, z+1/3'
'-x+y+2/3, y+1/3, z+1/3'
'x+2/3, x-y+1/3, z+1/3'
'-x+1/3, -y+2/3, -z+2/3'
'y+1/3, -x+y+2/3, -z+2/3'
'x-y+1/3, x+2/3, -z+2/3'
'-y+1/3, -x+2/3, z+2/3'
'-x+y+1/3, y+2/3, z+2/3'
'x+1/3, x-y+2/3, z+2/3'
loop_
_atom_site_label
_atom_site_type_symbol
_atom_site_fract_x
_atom_site_fract_y
_atom_site_fract_z
_atom_site_U_iso_or_equiv
_atom_site_adp_type
_atom_site_occupancy
_atom_site_site_symmetry_order
_atom_site_calc_flag
_atom_site_refinement_flags_posn
_atom_site_refinement_flags_adp
_atom_site_refinement_flags_occupancy
_atom_site_disorder_assembly
_atom_site_disorder_group
C1 C 0.6378(2) 0.6029(2) 0.45506(5) 0.0262(5) Uani 1 1 d . U . . .
C2 C 0.7341(2) 0.6253(2) 0.44281(5) 0.0290(6) Uani 1 1 d . U . . .
C3 C 0.80399(17) 0.6080(3) 0.45444(7) 0.0283(8) Uani 1 2 d S TU P . .
H3A H 0.792134 0.584208 0.470620 0.034 Uiso 1 2 d R U P . .
C4 C 0.7506(2) 0.6588(3) 0.41927(5) 0.0375(7) Uani 1 1 d . U . . .
H4A H 0.702186 0.670350 0.411094 0.045 Uiso 1 1 d R U . . .
C5 C 0.8373(2) 0.6745(4) 0.40783(8) 0.0403(11) Uani 1 2 d S TU P . .
In1 In 0.41998(2) 0.58002(2) 0.44648(2) 0.01603(8) Uani 1 2 d S T P . .
In2 In 0.500000 0.500000 0.500000 0.01588(9) Uani 1 4 d S T P . .
O1 O 0.62718(16) 0.57227(19) 0.47609(4) 0.0366(5) Uani 1 1 d . U . . .
O2 O 0.57652(16) 0.6157(2) 0.44310(3) 0.0351(5) Uani 1 1 d . U . . .
O3 O 0.42948(10) 0.57052(10) 0.48350(4) 0.0249(5) Uani 1 2 d S T P . .
H3M H 0.399961 0.600023 0.492682 0.030 Uiso 0.5 2 d R U P . .
O4 O 0.4711(2) 0.73557(10) 0.44486(5) 0.0245(5) Uani 1 2 d S T P . .
C6 C 0.355(2) 0.496(2) 0.3926(4) 0.029(3) Uani 0.413(3) 1 d . U P A -1
H6A H 0.295233 0.446839 0.400363 0.034 Uiso 0.413(3) 1 calc R U P A -1
C7 C 0.362(2) 0.4863(18) 0.3684(3) 0.031(2) Uani 0.413(3) 1 d . U P A -1
H7A H 0.309658 0.431349 0.359940 0.037 Uiso 0.413(3) 1 calc R U P A -1
C9 C 0.522(2) 0.638(2) 0.3717(4) 0.041(3) Uani 0.413(3) 1 d . U P A -1
H9A H 0.581613 0.689542 0.364274 0.050 Uiso 0.413(3) 1 calc R U P A -1
C10 C 0.509(2) 0.642(2) 0.3956(4) 0.031(3) Uani 0.413(3) 1 d . U P A -1
H10A H 0.559731 0.695462 0.404695 0.038 Uiso 0.413(3) 1 calc R U P A -1
C11 C 0.45745(16) 0.54255(16) 0.33173(3) 0.0515(13) Uani 1 2 d GS TU P . .
C12 C 0.55227(18) 0.5668(4) 0.32307(4) 0.072(3) Uani 0.5 1 d G U P B -1
H12A H 0.608358 0.591923 0.333604 0.086 Uiso 0.5 1 calc R U P B -1
C13 C 0.5650(3) 0.5544(5) 0.29900(4) 0.068(2) Uani 0.5 1 d G U P B -1
H13A H 0.629710 0.571092 0.293083 0.081 Uiso 0.5 1 calc R U P B -1
N2 N 0.4828(4) 0.5176(4) 0.28360(4) 0.0484(11) Uani 1 2 d G TU P B .
C14 C 0.3880(3) 0.4926(4) 0.29226(6) 0.067(2) Uani 0.5 1 d G U P B -1
H14A H 0.331814 0.467028 0.281741 0.080 Uiso 0.5 1 calc R U P B -1
C15 C 0.3753(2) 0.5050(4) 0.31633(5) 0.068(2) Uani 0.5 1 d G U P B -1
H15A H 0.310419 0.487838 0.322251 0.082 Uiso 0.5 1 calc R U P B -1
N1 N 0.4266(6) 0.5720(6) 0.40623(4) 0.0252(6) Uani 1 2 d G TU P A .
C6A C 0.3984(7) 0.6240(6) 0.39047(8) 0.033(3) Uani 0.087(3) 1 d G U P A -2
H6AA H 0.373111 0.665307 0.396409 0.039 Uiso 0.087(3) 1 calc R U P A -2
C7A C 0.4072(5) 0.6153(4) 0.36603(7) 0.039(4) Uani 0.087(3) 1 d G U P A -2
H7AA H 0.387761 0.650493 0.355262 0.047 Uiso 0.087(3) 1 calc R U P A -2
C8 C 0.4442(3) 0.5551(2) 0.35736(3) 0.0422(10) Uani 1 2 d G TU P A .
C9A C 0.4725(5) 0.5033(4) 0.37312(5) 0.039(4) Uani 0.087(3) 1 d G U P A -2
H9AA H 0.497788 0.461961 0.367179 0.047 Uiso 0.087(3) 1 calc R U P A -2
C10A C 0.4637(6) 0.5120(5) 0.39756(4) 0.033(3) Uani 0.087(3) 1 d G U P A -2
H10B H 0.483140 0.476774 0.408322 0.040 Uiso 0.087(3) 1 calc R U P A -2
loop_
_atom_site_aniso_label
_atom_site_aniso_U_11
_atom_site_aniso_U_22
_atom_site_aniso_U_33
_atom_site_aniso_U_23
_atom_site_aniso_U_13
_atom_site_aniso_U_12
C1 0.0238(12) 0.0380(14) 0.0219(11) 0.0059(10) 0.0045(9) 0.0193(11)
C2 0.0262(13) 0.0425(15) 0.0238(12) 0.0071(11) 0.0054(10) 0.0213(12)
C3 0.0274(13) 0.040(2) 0.0215(16) 0.0067(15) 0.0034(8) 0.0201(11)
C4 0.0331(15) 0.062(2) 0.0272(13) 0.0123(13) 0.0051(11) 0.0314(15)
C5 0.0387(16) 0.069(3) 0.0234(18) 0.0131(19) 0.0066(10) 0.0343(16)
In1 0.01997(10) 0.01997(10) 0.01271(12) 0.00003(4) -0.00003(4) 0.01341(10)
In2 0.01931(13) 0.01931(13) 0.01128(14) 0.00012(5) -0.00012(5) 0.01134(13)
O1 0.0284(10) 0.0613(15) 0.0276(9) 0.0187(10) 0.0110(8) 0.0281(10)
O2 0.0278(10) 0.0646(15) 0.0239(9) 0.0092(9) 0.0053(8) 0.0314(11)
O3 0.0374(12) 0.0374(12) 0.0138(10) 0.0001(4) -0.0001(4) 0.0291(13)
O4 0.0228(13) 0.0201(9) 0.0315(13) 0.0004(5) 0.0008(11) 0.0114(6)
C6 0.031(4) 0.037(4) 0.021(5) 0.005(4) -0.001(4) 0.019(3)
C7 0.039(4) 0.040(4) 0.011(4) -0.001(3) 0.000(3) 0.019(3)
C9 0.044(5) 0.045(4) 0.025(5) 0.001(5) 0.001(4) 0.015(4)
C10 0.038(5) 0.038(4) 0.016(5) -0.001(4) 0.001(4) 0.017(4)
C11 0.0562(19) 0.0562(19) 0.0246(19) -0.0083(11) 0.0083(11) 0.015(2)
C12 0.046(4) 0.094(5) 0.045(4) -0.011(4) 0.004(3) 0.013(4)
C13 0.044(4) 0.091(5) 0.042(3) -0.012(4) -0.001(3) 0.013(4)
N2 0.0471(15) 0.0471(15) 0.0250(17) -0.0099(10) 0.0099(10) 0.0041(19)
C14 0.044(4) 0.100(5) 0.033(3) -0.013(4) 0.002(3) 0.019(4)
C15 0.043(4) 0.103(5) 0.033(3) -0.018(4) 0.001(3) 0.017(4)
N1 0.0313(12) 0.0313(12) 0.0162(13) 0.0004(6) -0.0004(6) 0.0178(14)
C6A 0.032(5) 0.041(5) 0.022(5) 0.000(5) -0.001(5) 0.016(5)
C7A 0.041(5) 0.046(5) 0.021(5) -0.001(5) -0.001(5) 0.015(5)
C8 0.0484(17) 0.0484(17) 0.0224(17) -0.0035(9) 0.0035(9) 0.019(2)
C9A 0.044(5) 0.045(5) 0.024(5) -0.003(5) 0.003(5) 0.018(5)
C10A 0.037(5) 0.039(5) 0.023(5) 0.000(5) -0.001(5) 0.019(5)
loop_
_atom_type_symbol
_atom_type_description
_atom_type_scat_dispersion_real
_atom_type_scat_dispersion_imag
_atom_type_scat_source
C C 0.0033 0.0016 'International Tables Vol C Tables 4.2.6.8 and 6.1.1.4'
H H 0.0000 0.0000 'International Tables Vol C Tables 4.2.6.8 and 6.1.1.4'
In In -0.7276 1.3100 'International Tables Vol C Tables 4.2.6.8 and 6.1.1.4'
N N 0.0061 0.0033 'International Tables Vol C Tables 4.2.6.8 and 6.1.1.4'
O O 0.0106 0.0060 'International Tables Vol C Tables 4.2.6.8 and 6.1.1.4'
loop_
_geom_angle_atom_site_label_1
_geom_angle_atom_site_label_2
_geom_angle_atom_site_label_3
_geom_angle
_geom_angle_site_symmetry_1
_geom_angle_site_symmetry_3
_geom_angle_publ_flag
O2 C1 O1 126.9(2) . . ?
O2 C1 C2 116.5(2) . . ?
O1 C1 C2 116.5(2) . . ?
C3 C2 C4 120.0(3) . . ?
C3 C2 C1 120.2(2) . . ?
C4 C2 C1 119.7(2) . . ?
C2 C3 C2 120.1(3) 23_655 . ?
C2 C3 H3A 119.9 23_655 . ?
C2 C3 H3A 120.0 . . ?
C5 C4 C2 119.2(3) . . ?
C5 C4 H4A 120.5 . . ?
C2 C4 H4A 120.4 . . ?
C4 C5 C4 121.5(4) 23_655 . ?
C4 C5 N2 119.1(5) 23_655 32 ?
C4 C5 N2 119.3(6) . 32 ?
O3 In1 O4 97.01(9) . 3_565 ?
O3 In1 O4 97.01(9) . . ?
O4 In1 O4 97.52(14) 3_565 . ?
O3 In1 O2 89.89(7) . 22_665 ?
O4 In1 O2 88.43(10) 3_565 22_665 ?
O4 In1 O2 170.24(10) . 22_665 ?
O3 In1 O2 89.89(7) . . ?
O4 In1 O2 170.24(9) 3_565 . ?
O4 In1 O2 88.43(10) . . ?
O2 In1 O2 84.69(14) 22_665 . ?
O3 In1 N1 168.18(11) . . ?
O4 In1 N1 90.56(19) 3_565 . ?
O4 In1 N1 90.95(18) . . ?
O2 In1 N1 81.23(16) 22_665 . ?
O2 In1 N1 81.58(18) . . ?
O3 In2 O3 180.00(5) 19_666 . ?
O3 In2 O1 88.51(7) 19_666 22_665 ?
O3 In2 O1 91.48(7) . 22_665 ?
O3 In2 O1 91.49(7) 19_666 4_556 ?
O3 In2 O1 88.52(7) . 4_556 ?
O1 In2 O1 180.00(12) 22_665 4_556 ?
O3 In2 O1 88.52(7) 19_666 . ?
O3 In2 O1 91.48(7) . . ?
O1 In2 O1 89.96(14) 22_665 . ?
O1 In2 O1 90.04(14) 4_556 . ?
O3 In2 O1 91.49(7) 19_666 19_666 ?
O3 In2 O1 88.52(7) . 19_666 ?
O1 In2 O1 90.04(14) 22_665 19_666 ?
O1 In2 O1 89.96(14) 4_556 19_666 ?
O1 In2 O1 180.0 . 19_666 ?
C1 O1 In2 133.96(19) . . ?
C1 O2 In1 137.07(18) . . ?
In2 O3 In1 123.27(12) . . ?
In2 O3 H3M 120.3 . . ?
In1 O3 H3M 116.5 . . ?
In1 O4 In1 142.04(14) . 2_665 ?
C7 C6 N1 125(2) . . ?
C7 C6 H6A 117.6 . . ?
N1 C6 H6A 117.6 . . ?
C8 C7 C6 118(2) . . ?
C8 C7 H7A 120.9 . . ?
C6 C7 H7A 120.9 . . ?
C10 C9 C8 120(2) . . ?
C10 C9 H9A 120.0 . . ?
C8 C9 H9A 120.0 . . ?
N1 C10 C9 121(2) . . ?
N1 C10 H10A 119.5 . . ?
C9 C10 H10A 119.5 . . ?
C12 C11 C15 119.9 . . ?
C12 C11 C8 119.8 . . ?
C15 C11 C8 120.3 . . ?
C11 C12 C13 120.0 . . ?
C11 C12 H12A 120.0 . . ?
C13 C12 H12A 120.0 . . ?
N2 C13 C12 120.0 . . ?
N2 C13 H13A 120.0 . . ?
C12 C13 H13A 120.0 . . ?
C13 N2 C14 120.1 . . ?
C13 N2 C5 119.7(3) . 33_545 ?
C14 N2 C5 120.2(3) . 33_545 ?
C15 C14 N2 120.0 . . ?
C15 C14 H14A 120.0 . . ?
N2 C14 H14A 120.0 . . ?
C14 C15 C11 120.1 . . ?
C14 C15 H15A 120.0 . . ?
C11 C15 H15A 120.0 . . ?
C10 N1 C6 118.0(5) . . ?
C6A N1 C10A 120.0 . . ?
C10 N1 In1 117.4(11) . . ?
C6 N1 In1 124.5(12) . . ?
C6A N1 In1 124.49(16) . . ?
C10A N1 In1 115.44(18) . . ?
C7A C6A N1 119.88(7) . . ?
C7A C6A H6AA 120.1 . . ?
N1 C6A H6AA 120.1 . . ?
C8 C7A C6A 120.06(9) . . ?
C8 C7A H7AA 120.0 . . ?
C6A C7A H7AA 120.0 . . ?
C9A C8 C7A 120.0 . . ?
C7 C8 C9 117.8(4) . . ?
C7 C8 C11 119.4(10) . . ?
C9A C8 C11 116.22(9) . . ?
C7A C8 C11 123.74(11) . . ?
C9 C8 C11 122.7(11) . . ?
C8 C9A C10A 119.91(7) . . ?
C8 C9A H9AA 120.0 . . ?
C10A C9A H9AA 120.0 . . ?
C9A C10A N1 120.07(9) . . ?
C9A C10A H10B 120.0 . . ?
N1 C10A H10B 120.0 . . ?
loop_
_geom_bond_atom_site_label_1
_geom_bond_atom_site_label_2
_geom_bond_distance
_geom_bond_site_symmetry_2
_geom_bond_publ_flag
C1 O2 1.244(3) . ?
C1 O1 1.249(3) . ?
C1 C2 1.500(4) . ?
C2 C3 1.386(3) . ?
C2 C4 1.392(4) . ?
C3 H3A 0.9605 . ?
C4 C5 1.380(4) . ?
C4 H4A 0.9599 . ?
C5 N2 1.434(11) 32 ?
In1 O3 2.092(2) . ?
In1 O4 2.1007(9) 3_565 ?
In1 O4 2.1007(9) . ?
In1 O2 2.180(2) 22_665 ?
In1 O2 2.180(2) . ?
In1 N1 2.266(2) . ?
In2 O3 2.084(3) 19_666 ?
In2 O3 2.084(3) . ?
In2 O1 2.156(2) 22_665 ?
In2 O1 2.156(2) 4_556 ?
In2 O1 2.156(2) . ?
In2 O1 2.156(2) 19_666 ?
O3 H3M 0.9356 . ?
C6 C7 1.37(3) . ?
C6 N1 1.36(3) . ?
C6 H6A 0.9500 . ?
C7 C8 1.32(2) . ?
C7 H7A 0.9500 . ?
C9 C10 1.36(3) . ?
C9 C8 1.47(2) . ?
C9 H9A 0.9500 . ?
C10 N1 1.32(3) . ?
C10 H10A 0.9500 . ?
C11 C12 1.3916 . ?
C11 C15 1.3898 . ?
C11 C8 1.4773 . ?
C12 C13 1.3900 . ?
C12 H12A 0.9500 . ?
C13 N2 1.3902 . ?
C13 H13A 0.9500 . ?
N2 C14 1.3890 . ?
C14 C15 1.3900 . ?
C14 H14A 0.9500 . ?
C15 H15A 0.9500 . ?
N1 C6A 1.3936(13) . ?
N1 C10A 1.3857 . ?
C6A C7A 1.3900 . ?
C6A H6AA 0.9500 . ?
C7A C8 1.3866 . ?
C7A H7AA 0.9500 . ?
C8 C9A 1.3929(13) . ?
C9A C10A 1.3900 . ?
C9A H9AA 0.9500 . ?
C10A H10B 0.9500 . ?
