#------------------------------------------------------------------------------
#$Date: 2020-09-06 12:41:43 +0300 (Sun, 06 Sep 2020) $
#$Revision: 256101 $
#$URL: file:///home/coder/svn-repositories/cod/cif/7/70/48/7704834.cif $
#------------------------------------------------------------------------------
#
# This file is available in the Crystallography Open Database (COD),
# http://www.crystallography.net/
#
# All data on this site have been placed in the public domain by the
# contributors.
#
data_7704834
loop_
_publ_author_name
'Liu, Meiying'
'Liang, Jingjing'
'Xu, Xuebin'
'Liu, Zhiliang'
_publ_section_title
;
 An unusual high-frequency ferroelectric obtained via the post-synthetic
 modification of a metal-organic framework.
;
_journal_issue                   31
_journal_name_full
'Dalton transactions (Cambridge, England : 2003)'
_journal_page_first              10895
_journal_page_last               10900
_journal_paper_doi               10.1039/d0dt02066d
_journal_volume                  49
_journal_year                    2020
_chemical_absolute_configuration ad
_chemical_formula_moiety         'C68 H69 Cd4 N8 O24'
_chemical_formula_sum            'C68 H69 Cd4 N8 O24'
_chemical_formula_weight         1831.91
_space_group_crystal_system      monoclinic
_space_group_IT_number           5
_space_group_name_Hall           'C 2y'
_space_group_name_H-M_alt        'C 1 2 1'
_atom_sites_solution_hydrogens   mixed
_audit_creation_method           SHELXL-2014
_audit_update_record
;
2020-03-07 deposited with the CCDC.	2020-07-13 downloaded from the CCDC.
;
_cell_angle_alpha                90
_cell_angle_beta                 91.478(4)
_cell_angle_gamma                90
_cell_formula_units_Z            4
_cell_length_a                   25.895(2)
_cell_length_b                   26.301(2)
_cell_length_c                   12.2932(11)
_cell_measurement_reflns_used    9415
_cell_measurement_temperature    293(2)
_cell_measurement_theta_max      28.39
_cell_measurement_theta_min      2.95
_cell_volume                     8369.7(12)
_computing_cell_refinement       'Bruker SAINT'
_computing_data_collection       'Bruker APEX2'
_computing_data_reduction        'Bruker SAINT'
_computing_molecular_graphics    'Bruker SHELXTL'
_computing_publication_material  'Bruker SHELXTL'
_computing_structure_refinement  'SHELXL-2014 (Sheldrick, 2014)'
_diffrn_ambient_temperature      293(2)
_diffrn_measured_fraction_theta_full 0.974
_diffrn_measured_fraction_theta_max 0.998
_diffrn_measurement_device_type  'Bruker APEX-II CCD'
_diffrn_measurement_method       '\f and \w scans'
_diffrn_radiation_type           MoK\a
_diffrn_radiation_wavelength     0.71073
_diffrn_reflns_av_R_equivalents  0.0543
_diffrn_reflns_av_unetI/netI     0.0233
_diffrn_reflns_Laue_measured_fraction_full 0.974
_diffrn_reflns_Laue_measured_fraction_max 0.998
_diffrn_reflns_limit_h_max       30
_diffrn_reflns_limit_h_min       -30
_diffrn_reflns_limit_k_max       31
_diffrn_reflns_limit_k_min       -31
_diffrn_reflns_limit_l_max       14
_diffrn_reflns_limit_l_min       -14
_diffrn_reflns_number            148974
_diffrn_reflns_point_group_measured_fraction_full 0.974
_diffrn_reflns_point_group_measured_fraction_max 0.998
_diffrn_reflns_theta_full        25.242
_diffrn_reflns_theta_max         25.018
_diffrn_reflns_theta_min         2.949
_diffrn_source                   'fine-focus sealed tube'
_exptl_absorpt_coefficient_mu    1.074
_exptl_absorpt_correction_T_max  0.7457
_exptl_absorpt_correction_T_min  0.6435
_exptl_absorpt_correction_type   multi-scan
_exptl_absorpt_process_details
;
SADABS-2014/5 (Bruker,2014/5) was used for absorption correction.
wR2(int) was 0.0892 before and 0.0764 after correction.
The Ratio of minimum to maximum transmission is 0.8629.
The \l/2 correction factor is Not present.
;
_exptl_crystal_colour            yellow
_exptl_crystal_density_diffrn    1.454
_exptl_crystal_description       block
_exptl_crystal_F_000             3668
_exptl_crystal_size_max          0.03
_exptl_crystal_size_mid          0.02
_exptl_crystal_size_min          0.01
_refine_diff_density_max         2.930
_refine_diff_density_min         -1.588
_refine_diff_density_rms         0.162
_refine_ls_abs_structure_details
;
 Refined as an inversion twin.
;
_refine_ls_abs_structure_Flack   0.05(4)
_refine_ls_extinction_method     none
_refine_ls_goodness_of_fit_ref   1.051
_refine_ls_hydrogen_treatment    mixed
_refine_ls_matrix_type           full
_refine_ls_number_parameters     960
_refine_ls_number_reflns         14755
_refine_ls_number_restraints     21
_refine_ls_restrained_S_all      12.338
_refine_ls_R_factor_all          0.0578
_refine_ls_R_factor_gt           0.0563
_refine_ls_shift/su_max          0.001
_refine_ls_shift/su_mean         0.000
_refine_ls_structure_factor_coef Fsqd
_refine_ls_weighting_details
'w=1/[\s^2^(Fo^2^)+(0.1006P)^2^+68.4360P] where P=(Fo^2^+2Fc^2^)/3'
_refine_ls_weighting_scheme      calc
_refine_ls_wR_factor_gt          0.1536
_refine_ls_wR_factor_ref         0.1552
_reflns_Friedel_coverage         0.954
_reflns_Friedel_fraction_full    0.974
_reflns_Friedel_fraction_max     0.998
_reflns_number_gt                14130
_reflns_number_total             14755
_reflns_threshold_expression     'I > 2\s(I)'
_cod_data_source_file            d0dt02066d2.cif
_cod_data_source_block           a-auto_sq
_cod_depositor_comments          'Adding full bibliography for 7704834.cif.'
_cod_original_cell_volume        8369.7(13)
_cod_original_sg_symbol_H-M      'C 2'
_cod_database_code               7704834
_shelx_space_group_comment
;
The symmetry employed for this shelxl refinement is uniquely defined
by the following loop, which should always be used as a source of
symmetry information in preference to the above space-group names.
They are only intended as comments.
;
_shelxl_version_number           2014-3
_shelx_res_file
;
TITL a_a.res in C2
CELL 0.71073 25.8954 26.3006 12.2932 90 91.478 90
ZERR 4 0.0023 0.0023 0.0011 0 0.004 0
LATT -7
SYMM -X,+Y,-Z
SFAC C H Cd N O
UNIT 272 276 16 32 96
EQIV $1 2-X,+Y,1-Z
EQIV $2 1.5-X,-0.5+Y,1-Z
EQIV $3 1-X,+Y,1-Z
EQIV $4 +X,+Y,-1+Z
EQIV $5 0.5+X,0.5+Y,+Z
EQIV $6 +X,+Y,1+Z
DFIX 2.52 0.01 H1b H16
DFIX 0.82 O3 H3
DFIX 0.82 O23 H23
DFIX 0.85 0.01 O15 H15
DFIX 0.85 0.01 O11 H11
DANG 3.131603 0.02 Cd3 H15
DANG 1.905301 0.02 C33 H15
DANG 3.144575 0.02 Cd2 H11
DANG 1.881354 0.02 C50 H11

L.S. 5
PLAN  10
TEMP 20
HTAB O23 O18_$2
HTAB O3 O7_$1
HTAB C12 O2_$1
HTAB C16 O3_$1
HTAB C56 O12_$6
HTAB C57 O23_$3
HTAB C53 O22_$3
HTAB C24 O24_$5
HTAB C36 O15
HTAB C23 O11
HTAB C22 O4_$4
HTAB C58 O12_$3
HTAB C1 O16_$2
HTAB C1 O3_$1
FREE Cd4 O21
FREE Cd2 O13
FREE Cd1 O1
FREE Cd3 O9
BOND $H
CONF
HTAB
BUMP 0.01
fmap 2
acta
TWIN -1 0 0 0 -1 0 0 0 -1 2
OMIT -3 50.04
OMIT -8 0 2
REM <olex2.extras>
REM <HklSrc "%.\\a-auto_sq.hkl">
REM </olex2.extras>

WGHT    0.100600   68.435997
BASF   0.05488
FVAR       1.46233
CD1   3    1.025120    0.355984    0.365326    11.00000    0.02737    0.02324 =
         0.03586    0.00028    0.00272    0.00226
CD2   3    0.736803    0.566900    0.375488    11.00000    0.03819    0.01564 =
         0.03275   -0.00283    0.00153    0.00235
CD3   3    0.739665    0.620138    0.642927    11.00000    0.03673    0.01719 =
         0.03298   -0.00252    0.00319   -0.00339
CD4   3    0.528778    0.333309    0.632175    11.00000    0.02830    0.02411 =
         0.03374    0.00006   -0.00206   -0.00231
O3    5    0.950759    0.373465    0.827307    11.00000    0.04076    0.02605 =
         0.04287   -0.00477   -0.00230   -0.00312
C1    1    0.948260    0.307354    0.141331    11.00000    0.04725    0.06864 =
         0.07248   -0.02059   -0.00835    0.00854
AFIX 137
H1A   2    0.983075    0.302045    0.118839    11.00000   -1.50000
H1B   2    0.932851    0.334414    0.099338    11.00000   -1.50000
H1C   2    0.928661    0.276736    0.130055    11.00000   -1.50000
AFIX   0
N1    4    0.897696    0.397900    0.631956    11.00000    0.02553    0.03641 =
         0.03974   -0.00210    0.00457   -0.00254
O2    5    0.951160    0.345248    0.456326    11.00000    0.02331    0.03712 =
         0.04522    0.00012    0.00074   -0.00420
O8    5    0.986821    0.435654    0.341073    11.00000    0.04207    0.03552 =
         0.05795    0.00629    0.00191    0.01353
O7    5    0.967458    0.440059    0.163671    11.00000    0.05852    0.04608 =
         0.04322    0.00399    0.01418    0.02016
N3    4    0.821037    0.533320    0.333948    11.00000    0.04550    0.03032 =
         0.04841   -0.00262    0.00714    0.00521
O6    5    1.153198    0.106670    0.357121    11.00000    0.05826    0.02767 =
         0.05352   -0.00817    0.00298    0.01096
O11   5    0.710911    0.547049    0.187806    11.00000    0.04880    0.02341 =
         0.05507   -0.00158    0.00136    0.00196
H11   2    0.706490    0.563304    0.127873    11.00000   -1.50000
O12   5    0.643427    0.445702    0.047702    11.00000    0.16574    0.09915 =
         0.06660    0.00260   -0.01763   -0.06263
AFIX 147
H12   2    0.649323    0.424614    0.095558    11.00000   -1.50000
AFIX   0
O9    5    0.773338    0.545546    0.760174    11.00000    0.06812    0.02909 =
         0.03422    0.00672   -0.00294   -0.00085
N5    4    0.824570    0.652387    0.678981    11.00000    0.04214    0.02681 =
         0.05567   -0.00406    0.00224   -0.00073
O17   5    0.988218    0.751911    0.650459    11.00000    0.04438    0.03427 =
         0.05861    0.00011    0.00069   -0.01211
O18   5    0.980444    0.745281    0.829689    11.00000    0.06108    0.05014 =
         0.04348    0.00872   -0.01296   -0.02466
N6    4    0.712948    0.703718    0.649583    11.00000    0.06927    0.02462 =
         0.03444   -0.00250    0.00813    0.00409
O15   5    0.717258    0.639769    0.830390    11.00000    0.05054    0.01975 =
         0.05801    0.00523    0.00935   -0.00336
H15   2    0.709342    0.621222    0.884966    11.00000   -1.50000
O13   5    0.770014    0.640855    0.261018    11.00000    0.06784    0.02518 =
         0.03885    0.00768    0.00785    0.00087
O14   5    0.749563    0.641432    0.466212    11.00000    0.05419    0.01076 =
         0.04203   -0.00103   -0.00283    0.00011
O10   5    0.751320    0.544652    0.552458    11.00000    0.06184    0.01860 =
         0.02225   -0.00879    0.00510   -0.00188
O19   5    0.657282    0.582969    0.654372    11.00000    0.05611    0.03595 =
         0.06197    0.00226    0.01224   -0.00866
C58   1    0.457817    0.380337    0.865202    11.00000    0.04454    0.07315 =
         0.05038   -0.00869   -0.00040   -0.00726
AFIX 137
H58A  2    0.487848    0.400918    0.879495    11.00000   -1.50000
H58B  2    0.460099    0.349812    0.907877    11.00000   -1.50000
H58C  2    0.427438    0.398941    0.884092    11.00000   -1.50000
AFIX   0
O23   5    0.444664    0.313907    0.178371    11.00000    0.04185    0.02307 =
         0.05206    0.00372   -0.00035    0.00622
O22   5    0.452037    0.345514    0.545111    11.00000    0.02550    0.03482 =
         0.03230    0.00332    0.00246    0.00081
O20   5    0.652115    0.566076    0.830030    11.00000    0.07790    0.03836 =
         0.05039   -0.00158    0.01185   -0.02567
O5    5    1.148196    0.122695    0.178055    11.00000    0.07691    0.03583 =
         0.04561   -0.00720   -0.00102    0.02399
C2    1    0.903345    0.339550    0.293628    11.00000    0.03812    0.01746 =
         0.05178    0.00734    0.00027   -0.00236
C8    1    0.862720    0.398471    0.557062    11.00000    0.02960    0.03168 =
         0.06105    0.00668    0.00621    0.00716
AFIX  43
H8    2    0.832473    0.415487    0.573881    11.00000   -1.20000
AFIX   0
C7    1    0.908923    0.352765    0.401072    11.00000    0.02308    0.02320 =
         0.04033    0.00592   -0.00348    0.00035
N4    4    0.707921    0.484253    0.367713    11.00000    0.07074    0.02559 =
         0.03955    0.00408   -0.00678   -0.01095
C42   1    0.754982    0.500287    0.720302    11.00000    0.04065    0.01985 =
         0.03750    0.00441    0.00412    0.00238
C31   1    0.707210    0.734719    0.572095    11.00000    0.05681    0.01958 =
         0.04335   -0.00250    0.00145    0.00235
AFIX  43
H31   2    0.693555    0.766149    0.590718    11.00000   -1.20000
AFIX   0
C26   1    0.751174    0.685795    0.299207    11.00000    0.03837    0.02012 =
         0.03704   -0.00297   -0.00090   -0.00340
N7    4    0.563432    0.415817    0.666159    11.00000    0.04488    0.02427 =
         0.04646   -0.00056   -0.00342   -0.01016
C59   1    0.408775    0.347996    0.711316    11.00000    0.04355    0.01851 =
         0.03191    0.00050   -0.00405    0.00302
N8    4    0.394282    0.291103    0.370563    11.00000    0.03080    0.04106 =
         0.04304    0.00197   -0.00090    0.00421
N2    4    1.059853    0.273165    0.335008    11.00000    0.04575    0.02619 =
         0.04341    0.00191    0.00319    0.00617
O1    5    0.948542    0.320317    0.252114    11.00000    0.03703    0.04820 =
         0.03985   -0.01369   -0.00193   -0.00041
C3    1    0.859100    0.347490    0.230526    11.00000    0.04927    0.03034 =
         0.03600   -0.00066   -0.00673   -0.00484
AFIX  43
H3A   2    0.858054    0.338887    0.157123    11.00000   -1.20000
AFIX   0
C4    1    0.816559    0.368434    0.278736    11.00000    0.03534    0.04529 =
         0.05802    0.00660   -0.01122    0.00093
AFIX  43
H4    2    0.786156    0.372699    0.237828    11.00000   -1.20000
AFIX   0
C5    1    0.818188    0.382834    0.383932    11.00000    0.03133    0.03662 =
         0.05640    0.00439    0.00203    0.00255
AFIX  43
H5    2    0.789045    0.397284    0.413991    11.00000   -1.20000
AFIX   0
C6    1    0.863666    0.376347    0.449910    11.00000    0.02705    0.02914 =
         0.04642    0.00580    0.00317   -0.00043
C10   1    0.899042    0.392005    0.830058    11.00000    0.03892    0.04953 =
         0.04540   -0.00657    0.00953   -0.00505
AFIX  13
H10   2    0.875872    0.362659    0.823099    11.00000   -1.20000
AFIX   0
C11   1    0.888470    0.417353    0.936059    11.00000    0.06664    0.06194 =
         0.03364    0.00020    0.01861   -0.00358
AFIX  43
H11A  2    0.862793    0.406742    0.982458    11.00000   -1.20000
AFIX   0
O4    5    0.920567    0.457958    0.958004    11.00000    0.10571    0.06063 =
         0.05880   -0.01055    0.01174   -0.00569
AFIX 147
H4A   2    0.914096    0.480965    0.914746    11.00000   -1.50000
AFIX   0
C9    1    0.888081    0.426843    0.732226    11.00000    0.05468    0.03759 =
         0.03941    0.00172    0.00914    0.00749
AFIX  23
H9A   2    0.852488    0.438334    0.732296    11.00000   -1.20000
H9B   2    0.910414    0.456430    0.736163    11.00000   -1.20000
AFIX   0
C18   1    0.959513    0.449612    0.259627    11.00000    0.04003    0.02420 =
         0.05593   -0.00111    0.00279    0.00622
C21   1    0.910482    0.480672    0.283228    11.00000    0.03820    0.02778 =
         0.03892    0.00657    0.00832    0.00454
C22   1    0.872532    0.487489    0.207495    11.00000    0.04993    0.04627 =
         0.03819   -0.00474    0.01106    0.02047
AFIX  43
H22   2    0.875705    0.474494    0.137627    11.00000   -1.20000
AFIX   0
C23   1    0.827985    0.514641    0.236042    11.00000    0.04407    0.05138 =
         0.04367    0.00627    0.00161    0.00918
AFIX  43
H23A  2    0.802190    0.519620    0.183072    11.00000   -1.20000
AFIX   0
C19   1    0.858180    0.524885    0.410725    11.00000    0.05621    0.03848 =
         0.04555   -0.00155    0.01070    0.00648
AFIX  43
H19   2    0.853269    0.537213    0.480604    11.00000   -1.20000
AFIX   0
C20   1    0.902588    0.499119    0.390603    11.00000    0.04331    0.03345 =
         0.05004    0.00145    0.00615    0.01105
AFIX  43
H20   2    0.927229    0.493682    0.445751    11.00000   -1.20000
AFIX   0
C50   1    0.678222    0.503743    0.183053    11.00000    0.05545    0.03911 =
         0.05199    0.00308   -0.00475   -0.01091
AFIX  13
H50   2    0.643678    0.513704    0.205865    11.00000   -1.20000
AFIX   0
C51   1    0.675037    0.487771    0.064618    11.00000    0.13627    0.05376 =
         0.04609    0.00204   -0.01852   -0.03337
AFIX  43
H51   2    0.692317    0.504295    0.009438    11.00000   -1.20000
AFIX   0
C49   1    0.697758    0.465575    0.255424    11.00000    0.08765    0.02653 =
         0.06206   -0.01035   -0.00691   -0.00791
AFIX  23
H49A  2    0.729598    0.452152    0.227059    11.00000   -1.20000
H49B  2    0.673068    0.437884    0.257705    11.00000   -1.20000
AFIX   0
C48   1    0.704922    0.452443    0.446002    11.00000    0.05893    0.01491 =
         0.05264   -0.00260    0.00029   -0.00171
AFIX  43
H48   2    0.691062    0.421004    0.426619    11.00000   -1.20000
AFIX   0
C46   1    0.719481    0.457432    0.558836    11.00000    0.04142    0.01846 =
         0.05416   -0.00217    0.00863   -0.00158
C47   1    0.741741    0.503589    0.607057    11.00000    0.03305    0.01720 =
         0.05430    0.00316    0.00119    0.00318
C41   1    0.787694    0.545051    0.874663    11.00000    0.09065    0.05766 =
         0.03921   -0.00931   -0.02271   -0.01725
AFIX 137
H41A  2    0.812806    0.518820    0.888382    11.00000   -1.50000
H41B  2    0.757643    0.538602    0.916661    11.00000   -1.50000
H41C  2    0.802160    0.577404    0.894930    11.00000   -1.50000
AFIX   0
C40   1    0.857983    0.660702    0.600013    11.00000    0.04689    0.03901 =
         0.04150   -0.01379   -0.00538   -0.00671
AFIX  43
H40   2    0.849523    0.648119    0.531135    11.00000   -1.20000
AFIX   0
C39   1    0.904219    0.686602    0.612825    11.00000    0.03280    0.04333 =
         0.05502    0.00321    0.00476   -0.01122
AFIX  43
H39   2    0.925935    0.690896    0.554443    11.00000   -1.20000
AFIX   0
C38   1    0.917361    0.705831    0.713576    11.00000    0.04505    0.02768 =
         0.03749    0.00705   -0.00426   -0.00352
C35   1    0.966526    0.736817    0.732625    11.00000    0.03603    0.02698 =
         0.05676    0.00143   -0.00025   -0.00573
C37   1    0.884034    0.697509    0.797713    11.00000    0.04525    0.03545 =
         0.03629   -0.00561   -0.00111   -0.00569
AFIX  43
H37   2    0.892366    0.708786    0.867687    11.00000   -1.20000
AFIX   0
C36   1    0.838386    0.672316    0.776459    11.00000    0.04291    0.04513 =
         0.03959    0.00192    0.00416   -0.00636
AFIX  43
H36   2    0.815519    0.668786    0.833074    11.00000   -1.20000
AFIX   0
C32   1    0.707273    0.722918    0.759235    11.00000    0.09383    0.02589 =
         0.05069   -0.00644    0.02289    0.00559
AFIX  23
H32A  2    0.684846    0.752459    0.756734    11.00000   -1.20000
H32B  2    0.740803    0.733796    0.787498    11.00000   -1.20000
AFIX   0
C33   1    0.685622    0.684880    0.834624    11.00000    0.04659    0.03261 =
         0.04247    0.00314    0.00612    0.01180
AFIX  13
H33   2    0.650428    0.676308    0.809771    11.00000   -1.20000
AFIX   0
C34   1    0.684419    0.701883    0.951741    11.00000    0.11958    0.04775 =
         0.04579    0.01001    0.01171    0.01581
AFIX  23
H34A  2    0.668444    0.675443    0.994398    11.00000   -1.20000
H34B  2    0.719621    0.706089    0.979154    11.00000   -1.20000
AFIX   0
O16   5    0.658439    0.745935    0.966060    11.00000    0.16145    0.08456 =
         0.06524   -0.00584    0.00921    0.05185
AFIX 147
H16   2    0.649303    0.757453    0.906640    11.00000   -1.50000
AFIX   0
C30   1    0.718762    0.728543    0.458465    11.00000    0.04098    0.01668 =
         0.03510   -0.00058    0.00113    0.00006
C29   1    0.709626    0.771466    0.390504    11.00000    0.04738    0.01654 =
         0.05658   -0.00471   -0.00352    0.00216
AFIX  43
H29   2    0.695442    0.800498    0.420928    11.00000   -1.20000
AFIX   0
C28   1    0.720348    0.772001    0.286236    11.00000    0.07143    0.01667 =
         0.04439    0.00784   -0.00252    0.00611
AFIX  43
H28   2    0.714415    0.801243    0.245255    11.00000   -1.20000
AFIX   0
C27   1    0.740848    0.728187    0.236687    11.00000    0.05784    0.03279 =
         0.02953    0.00697    0.00730   -0.00157
AFIX  43
H27   2    0.747293    0.727999    0.162614    11.00000   -1.20000
AFIX   0
C24   1    0.784588    0.640063    0.150147    11.00000    0.09559    0.03225 =
         0.04328   -0.01537    0.01805    0.00617
AFIX 137
H24A  2    0.754559    0.645093    0.103974    11.00000   -1.50000
H24B  2    0.799980    0.607824    0.133939    11.00000   -1.50000
H24C  2    0.809051    0.666737    0.137769    11.00000   -1.50000
AFIX   0
C25   1    0.739361    0.683351    0.410136    11.00000    0.03133    0.01832 =
         0.03899    0.00826   -0.00057   -0.00031
C52   1    0.642631    0.556622    0.732810    11.00000    0.03909    0.03256 =
         0.04947   -0.00658    0.00472   -0.00682
C55   1    0.613198    0.507367    0.707439    11.00000    0.04507    0.02610 =
         0.04787   -0.00373    0.01163   -0.00745
C54   1    0.594502    0.495795    0.606158    11.00000    0.05529    0.02759 =
         0.05694   -0.00182    0.00059   -0.00498
AFIX  43
H54   2    0.598030    0.518940    0.549640    11.00000   -1.20000
AFIX   0
C53   1    0.570133    0.449501    0.586763    11.00000    0.05765    0.03421 =
         0.04367   -0.00252   -0.00681   -0.00616
AFIX  43
H53   2    0.558204    0.441826    0.516671    11.00000   -1.20000
AFIX   0
O21   5    0.454893    0.367254    0.750618    11.00000    0.04177    0.04690 =
         0.03729   -0.00071    0.00574    0.00097
C64   1    0.410910    0.335456    0.599165    11.00000    0.02369    0.02292 =
         0.06177    0.00048    0.00403    0.00233
C63   1    0.365474    0.312253    0.553364    11.00000    0.03119    0.03281 =
         0.04477    0.00187    0.00220    0.00024
C65   1    0.361357    0.290158    0.445792    11.00000    0.03162    0.03476 =
         0.05020   -0.00157   -0.00631   -0.00058
AFIX  43
H65   2    0.330711    0.273041    0.429386    11.00000   -1.20000
AFIX   0
C67   1    0.393299    0.293683    0.170676    11.00000    0.03982    0.03667 =
         0.04443   -0.00037   -0.00871    0.00257
AFIX  13
H67   2    0.368873    0.322151    0.169154    11.00000   -1.20000
AFIX   0
C68   1    0.386695    0.264431    0.066009    11.00000    0.05651    0.06315 =
         0.04329   -0.01419   -0.00289    0.00002
AFIX  43
H68   2    0.413435    0.258616    0.018495    11.00000   -1.20000
AFIX   0
O24   5    0.336083    0.246828    0.047426    11.00000    0.08080    0.08128 =
         0.05418   -0.00110   -0.00817   -0.03561
AFIX 147
H24   2    0.316337    0.271132    0.042274    11.00000   -1.50000
AFIX   0
C66   1    0.383682    0.261842    0.272336    11.00000    0.04318    0.03702 =
         0.05209   -0.00604   -0.00931   -0.00322
AFIX  23
H66A  2    0.348029    0.250502    0.271341    11.00000   -1.20000
H66B  2    0.405671    0.231987    0.272121    11.00000   -1.20000
AFIX   0
C62   1    0.321983    0.305372    0.621142    11.00000    0.02153    0.04099 =
         0.06857    0.00795    0.00629   -0.00433
AFIX  43
H62   2    0.291953    0.291364    0.590765    11.00000   -1.20000
AFIX   0
C61   1    0.322691    0.318266    0.726624    11.00000    0.03549    0.04250 =
         0.05593    0.01030    0.01148   -0.00039
AFIX  43
H61   2    0.293579    0.312917    0.767867    11.00000   -1.20000
AFIX   0
C60   1    0.366352    0.339400    0.774148    11.00000    0.04769    0.03204 =
         0.03478    0.00401    0.00902    0.00404
AFIX  43
H60   2    0.367206    0.347764    0.847677    11.00000   -1.20000
AFIX   0
C57   1    0.582071    0.426690    0.765454    11.00000    0.06040    0.02295 =
         0.04386    0.00610   -0.00181   -0.01154
AFIX  43
H57   2    0.578485    0.402806    0.820532    11.00000   -1.20000
AFIX   0
C56   1    0.606878    0.472774    0.789978    11.00000    0.05693    0.03640 =
         0.05349   -0.01217   -0.00020   -0.01526
AFIX  43
H56   2    0.618792    0.479816    0.860388    11.00000   -1.20000
AFIX   0
C43   1    0.745874    0.457560    0.781278    11.00000    0.05953    0.03962 =
         0.02753    0.01289    0.00173    0.00101
AFIX  43
H43   2    0.753476    0.457491    0.855629    11.00000   -1.20000
AFIX   0
C44   1    0.725045    0.414046    0.730752    11.00000    0.06902    0.01470 =
         0.06608    0.00839    0.01903   -0.00112
AFIX  43
H44   2    0.719768    0.384698    0.771175    11.00000   -1.20000
AFIX   0
C45   1    0.712784    0.414819    0.624375    11.00000    0.05561    0.02548 =
         0.04345   -0.00254    0.00152   -0.00181
AFIX  43
H45   2    0.699131    0.385499    0.592621    11.00000   -1.20000
AFIX   0
C16   1    1.076554    0.261218    0.235803    11.00000    0.05917    0.02297 =
         0.04260   -0.00004    0.00259    0.01051
AFIX  43
H16A  2    1.071558    0.284382    0.179350    11.00000   -1.20000
AFIX   0
C15   1    1.101158    0.215231    0.214454    11.00000    0.05745    0.02648 =
         0.05523   -0.00148    0.00799    0.00981
AFIX  43
H15A  2    1.111752    0.207588    0.144616    11.00000   -1.20000
AFIX   0
C14   1    1.109454    0.181540    0.297966    11.00000    0.04066    0.02608 =
         0.05541   -0.00708   -0.00226    0.00367
C13   1    1.092641    0.192626    0.399872    11.00000    0.04575    0.02791 =
         0.05576   -0.00230    0.00412    0.00736
AFIX  43
H13   2    1.097109    0.169864    0.457240    11.00000   -1.20000
AFIX   0
C12   1    1.068000    0.240497    0.414442    11.00000    0.05453    0.02224 =
         0.07544   -0.00218    0.01414    0.00818
AFIX  43
H12A  2    1.057148    0.249038    0.483616    11.00000   -1.20000
AFIX   0
C17   1    1.138309    0.131986    0.275466    11.00000    0.04173    0.02587 =
         0.04530    0.00838   -0.00144    0.00623
H3    2    0.968582    0.384448    0.878819    11.00000    0.02888
H23   2    0.463838    0.294054    0.145950    11.00000    0.05151
HKLF 4

REM  a_a.res in C2
REM R1 =  0.0563 for   14130 Fo > 4sig(Fo)  and  0.0578 for all   14755 data
REM    960 parameters refined using     21 restraints

END

WGHT      0.1006     68.4960

REM Instructions for potential hydrogen bonds
HTAB C1 O3_$1
HTAB C1 O16_$2
HTAB C58 O12_$3
HTAB C22 O4_$4
HTAB C23 O11
HTAB C36 O15
HTAB C24 O24_$5
HTAB C53 O22_$3
HTAB C57 O23_$3
HTAB C56 O12_$6
HTAB C16 O3_$1
HTAB C12 O2_$1
HTAB O3 O7_$1
HTAB O23 O18_$2

REM Highest difference peak  2.930,  deepest hole -1.588,  1-sigma level  0.162
Q1    1   0.7035  0.6206  0.6363  11.00000  0.05    2.93
Q2    1   0.4927  0.3341  0.6359  11.00000  0.05    2.84
Q3    1   1.0608  0.3569  0.3671  11.00000  0.05    2.83
Q4    1   0.7002  0.5683  0.3685  11.00000  0.05    2.73
Q5    1   0.7379  0.6209  0.5741  11.00000  0.05    2.58
Q6    1   0.9883  0.3569  0.3725  11.00000  0.05    2.54
Q7    1   0.7723  0.5681  0.3691  11.00000  0.05    2.40
Q8    1   0.7776  0.6208  0.6441  11.00000  0.05    2.39
Q9    1   0.5664  0.3336  0.6303  11.00000  0.05    2.23
Q10   1   0.7345  0.5670  0.3043  11.00000  0.05    2.15
;
_shelx_res_checksum              3019
_shelx_fab_file
;
    0    0    2     67.34      2.78
    0    0    3     31.73     -0.91
    0    0    4     21.67     -0.26
    0    0    5     10.59     -0.08
    0    0    6      1.93      0.56
    0    0    7      3.41      0.44
    0    0    8     -3.82      0.24
    0    0    9     -0.35     -0.08
    0    0   10     -4.29     -0.32
    0    0   11     -2.11     -0.10
    0    0   12     -0.54     -0.15
    0    0   13     -0.15      0.21
    0    0   14      2.80     -0.28
   -1    1   14     -1.10      1.69
   -1    1   13     -4.70      0.01
   -1    1   12     -3.66      0.72
   -1    1   11      4.34      1.31
   -1    1   10     -3.22     -1.15
   -1    1    9     -2.06     -1.23
   -1    1    8      0.81      0.37
   -1    1    7      1.57      0.48
   -1    1    6      1.95     -1.54
   -1    1    5      2.00     -3.36
   -1    1    4      4.42     -1.80
   -1    1    3     11.26      0.97
   -1    1    2      5.38     -2.03
    1    1    2      0.12      3.08
    1    1    3      0.87      3.23
    1    1    4     -2.69      3.03
    1    1    5     -4.16     -0.10
    1    1    6     -1.08      1.21
    1    1    7      2.99      5.13
    1    1    8     -0.05      1.17
    1    1    9     -1.42     -2.25
    1    1   10      1.53     -1.33
    1    1   11      9.96     -0.97
    1    1   12      0.12     -4.63
    1    1   13      0.58     -2.25
    1    1   14      0.92     -1.00
   -2    2   14     -5.10      2.76
   -2    2   13     -0.23      2.33
   -2    2   12     -0.15      0.52
   -2    2   11     -1.70     -0.46
   -2    2   10     -3.54     -1.98
   -2    2    9     -1.28     -0.23
   -2    2    8     -3.32     -3.12
   -2    2    7     -2.03      1.92
   -2    2    6     -3.71      1.75
   -2    2    5      0.15      5.53
   -2    2    4     -5.93     15.19
   -2    2    3     -4.66     16.95
   -2    2    2      8.64     47.44
    2    2    2     12.50     39.83
    2    2    3     -0.80     17.87
    2    2    4      2.65     14.45
    2    2    5      3.00      7.31
    2    2    6      1.03      2.20
    2    2    7     -1.65      1.53
    2    2    8     -1.28      0.94
    2    2    9      1.22      0.96
    2    2   10     -2.66     -2.94
    2    2   11     -0.20     -1.25
    2    2   12      0.37      0.55
    2    2   13     -1.50     -1.26
    2    2   14     -3.12      7.19
   -3    3   14      1.44     -2.88
   -3    3   13      2.54     -5.48
   -3    3   12      1.67     -0.76
   -3    3   11     10.12      2.36
   -3    3   10      4.11     -2.33
   -3    3    9      2.46     -0.56
   -3    3    8      0.11      2.23
   -3    3    7      1.36      0.93
   -3    3    6      3.17      3.51
   -3    3    5      2.90      6.59
   -3    3    4      4.49      5.84
   -3    3    3      3.89      8.03
   -3    3    2      3.72      8.28
   -3    3    1      4.78      1.38
    3    3    0      3.67     -6.59
    3    3    1     -2.10     -4.96
    3    3    2     -4.83      3.02
    3    3    3     -1.80     -0.75
    3    3    4     -1.97     -4.47
    3    3    5     -2.08     -1.81
    3    3    6     -0.03      1.28
    3    3    7     -4.09      1.27
    3    3    8     -1.99     -1.39
    3    3    9      2.26     -1.55
    3    3   10      1.94      0.60
    3    3   11      7.26      8.19
    3    3   12      8.08      1.85
    3    3   13      2.52      2.74
    3    3   14      3.70      0.91
   -4    4   14     -2.86     -3.45
   -4    4   13     -1.76      0.60
   -4    4   12     -2.68     -0.51
   -4    4   11     -1.10     -2.53
   -4    4   10     -1.05     -3.46
   -4    4    9     -0.97     -1.01
   -4    4    8     -1.66     -2.12
   -4    4    7     -0.80      1.19
   -4    4    6     -3.80     -3.12
   -4    4    5     -3.98     -0.73
   -4    4    4    -12.22     -6.15
   -4    4    3     -4.36     -9.35
   -4    4    2    -11.51     -0.13
   -4    4    1    -12.32     14.64
    4    4    0    -24.40     17.96
    4    4    1    -23.19     -5.97
    4    4    2     -7.96     -4.16
    4    4    3     -4.81     -6.27
    4    4    4      0.09     -1.42
    4    4    5     -0.96      3.04
    4    4    6      4.29      0.90
    4    4    7      1.68     -4.20
    4    4    8      0.31      0.85
    4    4    9      0.88      1.49
    4    4   10      2.66     -0.90
    4    4   11      2.45      0.46
    4    4   12     -0.41     -1.62
    4    4   13      2.98     -5.16
    4    4   14     -5.88      0.28
   -5    5   14      3.30      3.38
   -5    5   13      7.57      4.20
   -5    5   12      1.73      3.94
   -5    5   11      4.02     10.49
   -5    5   10      0.60      4.05
   -5    5    9      0.23      1.95
   -5    5    8     -0.84      0.63
   -5    5    7     -0.22      0.85
   -5    5    6     -2.86      1.85
   -5    5    5     -4.83      3.30
   -5    5    4     -3.13      2.68
   -5    5    3     -2.20      1.39
   -5    5    2     -2.98      4.79
   -5    5    1     -3.38     -1.73
    5    5    0      1.92      3.39
    5    5    1      2.85      2.46
    5    5    2     -4.66     -4.38
    5    5    3     -5.50     -3.56
    5    5    4     -0.06      0.88
    5    5    5     -0.62      0.54
    5    5    6     -2.26      0.68
    5    5    7     -0.47     -1.24
    5    5    8      1.43     -1.18
    5    5    9     -1.03      1.09
    5    5   10      0.89      3.61
    5    5   11      0.38      5.89
    5    5   12     -0.96      8.73
    5    5   13     -4.24      6.30
    5    5   14      1.31      7.60
   -6    6   14      0.26     -0.33
   -6    6   13      0.05      0.43
   -6    6   12     -0.61     -2.34
   -6    6   11      1.70     -1.25
   -6    6   10      1.55     -1.49
   -6    6    9      0.80     -0.94
   -6    6    8      1.90     -2.43
   -6    6    7     -1.13      0.08
   -6    6    6     -0.42     -1.67
   -6    6    5      2.93     -1.07
   -6    6    4      3.32     -2.10
   -6    6    3     10.32     -0.57
   -6    6    2      9.69      3.24
   -6    6    1      1.54     -0.59
    6    6    0      9.80      3.81
    6    6    1      5.18      0.50
    6    6    2     11.52      0.18
    6    6    3      5.58     -1.97
    6    6    4      3.11      0.25
    6    6    5     -2.67      1.28
    6    6    6      0.59      3.95
    6    6    7      2.03      0.80
    6    6    8     -0.04      0.46
    6    6    9     -0.75     -0.30
    6    6   10     -0.70      0.58
    6    6   11     -0.96      0.96
    6    6   12      3.39     -0.92
    6    6   13     10.49      4.05
   -7    7   13     -0.02      5.27
   -7    7   12     -1.14      0.92
   -7    7   11     -3.62      1.49
   -7    7   10     -3.60     -0.22
   -7    7    9      0.44     -0.36
   -7    7    8      1.54      0.05
   -7    7    7      0.39     -0.82
   -7    7    6      0.28     -2.88
   -7    7    5     -0.27     -0.89
   -7    7    4      1.31     -1.47
   -7    7    3      2.59     -0.18
   -7    7    2     -1.45      4.36
   -7    7    1      5.35     -0.46
    7    7    0     -2.23      0.56
    7    7    1      0.04      0.07
    7    7    2      0.64      0.39
    7    7    3      1.38     -1.33
    7    7    4     -1.00      0.17
    7    7    5     -1.48      0.56
    7    7    6     -0.84      0.26
    7    7    7     -1.40      0.66
    7    7    8     -0.88      0.59
    7    7    9      0.16     -1.91
    7    7   10     -1.29     -0.63
    7    7   11     -0.56      0.57
    7    7   12     -3.21      0.29
    7    7   13     -6.45     -3.59
   -8    8   13     -0.11      1.94
   -8    8   12     -0.79     -0.81
   -8    8   11     -0.28      0.17
   -8    8   10     -0.66      0.16
   -8    8    9      0.24      0.30
   -8    8    8      0.31      0.10
   -8    8    7     -0.31      1.39
   -8    8    6     -1.88     -2.47
   -8    8    5      1.61      3.13
   -8    8    4     -0.27      3.34
   -8    8    3      2.16      7.26
   -8    8    2      0.64      8.83
   -8    8    1     -3.34      1.26
    8    8    0     -2.04      7.36
    8    8    1     -0.76      0.65
    8    8    2     -1.80      4.94
    8    8    3     -1.44      5.44
    8    8    4      1.59      1.11
    8    8    5     -0.38     -1.04
    8    8    6      0.37      1.27
    8    8    7      0.70     -0.33
    8    8    8      1.67      0.09
    8    8    9      2.44      0.71
    8    8   10      1.17     -2.20
    8    8   11     -1.11     -0.35
    8    8   12      0.44      2.88
    8    8   13     -4.09     11.15
   -9    9   13     -0.53      0.93
   -9    9   12     -1.32     -0.48
   -9    9   11      0.38      0.64
   -9    9   10     -0.85     -0.32
   -9    9    9      1.70      0.14
   -9    9    8      0.72      1.35
   -9    9    7      0.64     -0.68
   -9    9    6      2.14     -0.77
   -9    9    5      0.64     -0.58
   -9    9    4      0.50      0.61
   -9    9    3     -1.18      2.86
   -9    9    2     -2.99     -0.41
   -9    9    1     -1.69      1.37
    9    9    0     -3.81     -1.57
    9    9    1      2.12      1.71
    9    9    2     -1.88      1.03
    9    9    3     -0.52      1.87
    9    9    4     -0.64      0.61
    9    9    5     -0.45      0.01
    9    9    6     -1.68      1.17
    9    9    7     -2.73     -1.38
    9    9    8     -1.67     -0.24
    9    9    9      0.79      0.62
    9    9   10     -0.39      0.88
    9    9   11      1.41      1.07
    9    9   12      0.44      0.79
    9    9   13      1.16     -2.78
  -10   10   13     -1.69      2.50
  -10   10   12      0.09     -0.94
  -10   10   11     -0.84      0.54
  -10   10   10      0.26      0.35
  -10   10    9     -0.11     -1.07
  -10   10    8     -0.16     -1.29
  -10   10    7     -2.94      0.42
  -10   10    6      0.51     -3.02
  -10   10    5      1.03     -0.31
  -10   10    4     -0.75      0.31
  -10   10    3     -2.13      1.77
  -10   10    2     -0.22      2.97
  -10   10    1     -2.07     -1.60
   10   10    0     -1.80      0.23
   10   10    1     -0.43      1.37
   10   10    2      1.09     -1.63
   10   10    3     -1.04     -2.31
   10   10    4      0.07     -0.53
   10   10    5      2.61      0.16
   10   10    6     -1.04      0.49
   10   10    7     -0.46      1.35
   10   10    8      1.02      0.29
   10   10    9     -2.46      1.43
   10   10   10      1.47      0.11
   10   10   11     -0.99     -1.98
   10   10   12     -2.22     -1.00
  -11   11   12     -0.22     -1.94
  -11   11   11     -1.73     -0.21
  -11   11   10     -1.83     -0.43
  -11   11    9      0.77      1.38
  -11   11    8      0.13      1.09
  -11   11    7      1.00     -0.43
  -11   11    6      0.42     -0.33
  -11   11    5      0.98     -1.27
  -11   11    4     -0.84      0.44
  -11   11    3     -1.70     -1.92
  -11   11    2      0.64     -2.82
  -11   11    1      0.26     -2.81
   11   11    0      0.56     -3.88
   11   11    1      0.46     -1.46
   11   11    2      0.22     -2.46
   11   11    3     -0.54      1.02
   11   11    4     -1.09     -0.46
   11   11    5      1.10      0.25
   11   11    6     -1.26     -0.73
   11   11    7      0.62     -1.39
   11   11    8     -0.91     -1.35
   11   11    9      0.00      0.64
   11   11   10     -1.04      0.07
   11   11   11      0.21      0.37
   11   11   12      0.06      1.70
  -12   12   12     -0.60      1.00
  -12   12   11     -0.32      1.10
  -12   12   10      0.08      0.57
  -12   12    9      1.43      0.25
  -12   12    8      0.93      0.03
  -12   12    7      0.28     -0.51
  -12   12    6      1.67     -1.54
  -12   12    5      0.72      0.42
  -12   12    4      0.97      0.79
  -12   12    3      0.29     -2.39
  -12   12    2     -1.94      1.06
  -12   12    1     -3.31     -0.63
   12   12    0     -1.93      0.89
   12   12    1     -2.19     -0.35
   12   12    2      1.15      1.95
   12   12    3      2.21      1.68
   12   12    4     -0.10      0.66
   12   12    5      0.71      1.33
   12   12    6      0.16     -0.85
   12   12    7      0.25     -0.98
   12   12    8      0.01     -0.75
   12   12    9      0.26     -0.56
   12   12   10      2.56      1.02
   12   12   11      1.42     -0.54
   12   12   12      1.04     -0.70
  -13   13   11      0.01      0.35
  -13   13   10      0.00      1.55
  -13   13    9      0.20      1.04
  -13   13    8     -0.86      0.88
  -13   13    7      0.07      1.27
  -13   13    6     -0.38     -0.11
  -13   13    5      1.18      0.71
  -13   13    4     -0.70     -0.17
  -13   13    3      1.37     -0.92
  -13   13    2      0.27     -2.80
  -13   13    1      0.35     -1.32
   13   13    0      1.77     -0.57
   13   13    1      3.00     -1.61
   13   13    2      3.45     -1.03
   13   13    3     -1.27     -0.01
   13   13    4      0.13     -0.10
   13   13    5     -0.15      1.15
   13   13    6     -0.19     -0.71
   13   13    7     -0.15      0.24
   13   13    8     -0.58     -2.25
   13   13    9     -0.44      0.15
   13   13   10     -1.11      0.16
   13   13   11      0.39     -0.13
  -14   14   11     -1.61      0.08
  -14   14   10      0.43      0.58
  -14   14    9      0.74      0.28
  -14   14    8      0.57     -0.86
  -14   14    7     -0.14      1.52
  -14   14    6      0.96      1.41
  -14   14    5      1.07     -0.43
  -14   14    4      0.19      1.37
  -14   14    3      1.19      0.43
  -14   14    2     -0.13     -0.79
  -14   14    1     -1.31      0.01
   14   14    0     -1.03     -0.75
   14   14    1     -1.88      0.21
   14   14    2     -1.19     -0.43
   14   14    3     -2.33      1.20
   14   14    4     -3.12     -0.18
   14   14    5      0.57     -1.84
   14   14    6     -0.05     -1.16
   14   14    7     -0.15      0.09
   14   14    8      0.67     -0.93
   14   14    9      1.39      0.35
   14   14   10     -1.17      1.94
   14   14   11      0.42      0.18
  -15   15   10     -3.06      0.20
  -15   15    9     -0.54     -1.21
  -15   15    8     -1.58     -1.18
  -15   15    7     -1.80     -0.74
  -15   15    6     -1.29     -1.42
  -15   15    5      0.41     -0.30
  -15   15    4      0.57     -1.35
  -15   15    3     -0.39      0.84
  -15   15    2      1.75     -1.45
  -15   15    1      1.61     -0.53
   15   15    0      0.87      1.11
   15   15    1      1.25      1.33
   15   15    2      1.42      1.16
   15   15    3     -1.34     -0.18
   15   15    4     -1.03      1.95
   15   15    5     -1.24     -0.65
   15   15    6      0.29      0.27
   15   15    7      0.27      0.52
   15   15    8      2.67     -0.06
   15   15    9      1.90      0.60
   15   15   10     -0.61      0.69
  -16   16   10      1.02     -0.55
  -16   16    9      1.45     -0.88
  -16   16    8      2.92     -1.60
  -16   16    7      0.68      0.06
  -16   16    6      0.27      0.46
  -16   16    5      0.61      0.46
  -16   16    4     -0.41      1.98
  -16   16    3     -0.30      0.64
  -16   16    2      0.24      1.76
  -16   16    1     -1.16     -0.09
   16   16    0     -0.13     -0.11
   16   16    1     -2.36      0.60
   16   16    2      0.81     -0.24
   16   16    3     -0.62     -0.55
   16   16    4     -1.50     -2.61
   16   16    5      0.63     -1.00
   16   16    6      0.23     -0.58
   16   16    7     -0.06      0.70
   16   16    8      1.60      0.97
   16   16    9      2.49      1.48
  -17   17    9      1.58     -0.38
  -17   17    8      0.36     -0.73
  -17   17    7      0.66     -0.53
  -17   17    6      1.45     -1.53
  -17   17    5      0.58      0.46
  -17   17    4      0.70      0.95
  -17   17    3     -0.87      0.87
  -17   17    2     -0.60      1.63
  -17   17    1      1.37      1.42
   17   17    0      0.32      2.17
   17   17    1     -0.14      0.48
   17   17    2      0.38      0.05
   17   17    3      0.82     -0.13
   17   17    4     -0.64     -0.66
   17   17    5      0.58     -1.42
   17   17    6      0.76     -0.29
   17   17    7      0.63      0.18
   17   17    8      0.38      1.83
   17   17    9     -0.09      1.86
  -18   18    8      2.57      1.06
  -18   18    7      0.52      2.03
  -18   18    6     -0.35      0.69
  -18   18    5     -0.63      0.34
  -18   18    4     -0.15      0.46
  -18   18    3     -0.82      0.46
  -18   18    2     -0.92      0.87
  -18   18    1      1.31      0.03
   18   18    0      0.90      1.07
   18   18    1     -0.88      0.12
   18   18    2     -0.18      0.59
   18   18    3      1.30      0.36
   18   18    4      1.70     -1.41
   18   18    5      1.24     -2.44
   18   18    6      1.34      0.00
   18   18    7     -0.07      1.20
   18   18    8      0.40      0.70
  -19   19    7     -1.59      1.42
  -19   19    6      0.00      1.66
  -19   19    5     -0.94      0.55
  -19   19    4     -0.55     -0.43
  -19   19    3     -1.85      1.05
  -19   19    2     -2.27     -1.10
  -19   19    1      0.47      0.98
   19   19    0     -1.40      2.33
   19   19    1     -1.34      1.24
   19   19    2      1.16      0.63
   19   19    3      0.08      1.04
   19   19    4      1.23      0.49
   19   19    5      1.55     -0.43
   19   19    6      2.69     -0.21
   19   19    7      1.85      0.58
  -20   20    6     -1.21     -0.69
  -20   20    5     -0.46      0.68
  -20   20    4      0.95      2.87
  -20   20    3     -0.79      1.07
  -20   20    2      0.18      0.22
  -20   20    1     -0.93      1.30
   20   20    0     -1.08      1.12
   20   20    1     -0.57      0.19
   20   20    2     -0.82     -0.50
   20   20    3      0.62      1.53
   20   20    4     -0.24      1.31
   20   20    5      1.22     -0.07
  -21   21    4      1.32      0.72
  -21   21    3     -2.25     -0.31
  -21   21    2      0.28     -0.40
  -21   21    1      0.84      1.55
   21   21    0     -2.06      0.29
   21   21    1     -2.15     -1.45
   21   21    2     -1.44      0.70
   21   21    3     -1.09     -0.29
   21   21    4     -0.15      0.28
   20   22    4     -0.41     -1.22
   20   22    3     -0.10     -0.40
   20   22    2      0.02     -2.45
   20   22    1     -1.17     -0.33
   20   22    0     -1.77     -1.65
  -20   22    1     -1.77     -2.10
  -20   22    2     -0.32      0.21
  -20   22    3     -1.59     -0.61
  -20   22    4     -2.60      1.70
   19   21    5      0.33      0.00
   19   21    4      0.42      1.37
   19   21    3      0.36     -0.04
   19   21    2      0.59      2.62
   19   21    1      0.25      1.09
   19   21    0     -0.76      1.02
  -19   21    1      2.47      1.92
  -19   21    2      1.64     -1.03
  -19   21    3     -1.29     -0.84
  -19   21    4      1.31     -0.14
  -19   21    5      0.08      0.47
  -19   21    6     -0.69      1.21
   18   20    7     -1.13     -1.56
   18   20    6     -1.50     -0.96
   18   20    5      0.21     -1.12
   18   20    4     -0.18     -0.09
   18   20    3     -0.72      0.45
   18   20    2     -2.48      0.43
   18   20    1     -2.09      1.91
   18   20    0     -1.52      2.84
  -18   20    1     -0.97      3.00
  -18   20    2     -1.60      1.08
  -18   20    3     -1.61      1.53
  -18   20    4      0.17      2.52
  -18   20    5     -1.40      1.85
  -18   20    6     -0.87      1.77
  -18   20    7     -1.98      1.38
   17   19    8      0.99      0.07
   17   19    7      1.89      0.79
   17   19    6      1.97      0.99
   17   19    5      1.64     -0.07
   17   19    4      1.51      0.49
   17   19    3      0.69      1.06
   17   19    2      2.48      0.78
   17   19    1      1.36      0.37
   17   19    0     -0.37      1.01
  -17   19    1      1.17      0.36
  -17   19    2     -1.68     -0.93
  -17   19    3     -1.16      0.01
  -17   19    4     -0.27     -0.43
  -17   19    5     -0.24     -0.05
  -17   19    6      1.13     -0.08
  -17   19    7     -0.20     -1.03
  -17   19    8     -0.45     -1.40
   16   18    9     -0.64      2.28
   16   18    8     -1.37      1.49
   16   18    7     -1.51      1.11
   16   18    6     -0.59      0.31
   16   18    5      0.04     -0.10
   16   18    4      0.75     -1.23
   16   18    3      0.01      0.93
   16   18    2      0.48      2.15
   16   18    1      0.17      0.71
   16   18    0      1.54      1.19
  -16   18    1      1.74     -0.01
  -16   18    2     -0.54      1.49
  -16   18    3      0.74      0.72
  -16   18    4     -0.13      0.20
  -16   18    5      1.17      0.92
  -16   18    6      1.99      0.53
  -16   18    7      1.06      0.99
  -16   18    8      2.20      1.58
  -16   18    9     -0.09     -0.12
   15   17    9     -0.45      1.65
   15   17    8      0.02      2.00
   15   17    7     -0.58      0.72
   15   17    6      0.43     -0.87
   15   17    5      0.25     -2.11
   15   17    4     -0.80      0.12
   15   17    3      1.52      0.74
   15   17    2      1.92      1.69
   15   17    1      1.06      0.65
   15   17    0      0.35      1.27
  -15   17    1      1.02      1.44
  -15   17    2      1.09      0.87
  -15   17    3     -0.33      0.06
  -15   17    4      0.57      0.28
  -15   17    5      0.27      0.37
  -15   17    6      0.48     -0.67
  -15   17    7      0.05     -0.75
  -15   17    8     -0.38     -1.12
  -15   17    9      0.60      0.04
  -15   17   10      0.00     -0.79
   14   16   10     -0.14     -1.54
   14   16    9      1.69      0.39
   14   16    8      1.22      0.95
   14   16    7      0.07      0.99
   14   16    6      1.21      0.52
   14   16    5      1.78      0.97
   14   16    4     -1.17     -1.51
   14   16    3      0.08      0.47
   14   16    2      2.21      0.01
   14   16    1     -0.76     -0.26
   14   16    0     -0.04      0.18
  -14   16    1     -1.74     -0.14
  -14   16    2     -0.83      0.39
  -14   16    3     -1.04     -0.61
  -14   16    4     -0.72      0.69
  -14   16    5      1.35     -0.63
  -14   16    6      0.26     -0.18
  -14   16    7     -0.54     -0.29
  -14   16    8      1.26     -0.57
  -14   16    9     -0.23      0.69
  -14   16   10     -0.03      1.44
   13   15   11      1.08      1.31
   13   15   10     -0.62      0.30
   13   15    9      1.25      0.02
   13   15    8      1.40     -0.81
   13   15    7     -0.90     -0.41
   13   15    6     -0.69     -0.53
   13   15    5     -0.79     -0.40
   13   15    4      0.75      0.60
   13   15    3      1.47     -1.19
   13   15    2      3.21      0.17
   13   15    1      1.20     -0.48
   13   15    0     -0.43     -0.24
  -13   15    1      0.92     -0.18
  -13   15    2      0.46     -2.87
  -13   15    3     -1.00     -0.79
  -13   15    4      0.19     -1.68
  -13   15    5      1.22      0.71
  -13   15    6      0.96      0.02
  -13   15    7      0.13     -0.38
  -13   15    8     -0.27     -1.25
  -13   15    9      0.71     -0.04
  -13   15   10     -1.28      0.11
  -13   15   11     -0.96     -0.41
   12   14   11     -0.35     -2.19
   12   14   10     -2.08      0.53
   12   14    9     -0.29     -0.97
   12   14    8      0.84     -1.17
   12   14    7      1.47      0.78
   12   14    6      1.96     -0.19
   12   14    5      1.63      0.13
   12   14    4     -0.28      0.51
   12   14    3      0.67      1.13
   12   14    2      0.68     -0.44
   12   14    1      0.88     -1.07
   12   14    0      0.00      0.22
  -12   14    1     -1.15      0.72
  -12   14    2     -1.25      0.52
  -12   14    3      0.57      1.05
  -12   14    4     -0.95      1.95
  -12   14    5     -0.58     -0.54
  -12   14    6      1.31     -0.01
  -12   14    7     -1.02     -0.79
  -12   14    8     -0.17     -1.05
  -12   14    9      0.59      1.31
  -12   14   10     -0.41      0.57
  -12   14   11     -2.21      0.33
   11   13   12     -1.56      1.37
   11   13   11      0.76      0.24
   11   13   10      0.03      0.00
   11   13    9     -0.85      0.31
   11   13    8     -1.38     -0.89
   11   13    7     -1.08      1.45
   11   13    6     -1.23      0.19
   11   13    5      0.51      0.46
   11   13    4      0.52     -0.35
   11   13    3     -1.02      1.23
   11   13    2      1.61      2.19
   11   13    1      0.95      2.87
   11   13    0     -0.08      3.17
  -11   13    1     -0.75      2.50
  -11   13    2     -1.77      0.50
  -11   13    3     -0.31     -0.34
  -11   13    4     -3.34      0.04
  -11   13    5      0.21     -1.11
  -11   13    6      0.19     -1.48
  -11   13    7      0.27      0.54
  -11   13    8     -0.86      1.48
  -11   13    9     -0.02      2.18
  -11   13   10     -0.79      0.36
  -11   13   11     -1.52      0.13
  -11   13   12     -0.12     -0.39
   10   12   12     -1.06     -1.23
   10   12   11     -0.80      0.08
   10   12   10     -0.51      2.94
   10   12    9     -2.65     -2.68
   10   12    8      0.75     -0.95
   10   12    7      0.51     -0.94
   10   12    6      1.48     -2.27
   10   12    5      2.13      2.16
   10   12    4      1.27     -0.42
   10   12    3      1.65     -0.12
   10   12    2      1.44      2.38
   10   12    1     -0.04     -0.82
   10   12    0      0.21      0.95
  -10   12    1      0.91      1.24
  -10   12    2      0.25      3.14
  -10   12    3     -0.32      0.46
  -10   12    4      0.79      2.52
  -10   12    5      1.35      2.41
  -10   12    6      1.68     -0.95
  -10   12    7     -2.38     -1.28
  -10   12    8     -0.51     -0.51
  -10   12    9      0.76     -0.28
  -10   12   10     -1.66      0.08
  -10   12   11     -1.11     -0.81
  -10   12   12      0.04      0.38
    9   11   12     -0.66      1.79
    9   11   11     -0.05      0.50
    9   11   10     -0.92     -0.92
    9   11    9     -0.51     -0.12
    9   11    8      0.33     -0.36
    9   11    7     -0.30     -0.92
    9   11    6     -2.52     -0.29
    9   11    5     -0.26     -0.19
    9   11    4      0.09     -1.44
    9   11    3      2.29      1.15
    9   11    2      4.15     -0.26
    9   11    1      4.72      1.66
    9   11    0      3.18     -1.30
   -9   11    1      2.28      0.66
   -9   11    2      2.46      0.95
   -9   11    3     -2.15     -0.58
   -9   11    4     -0.73      1.95
   -9   11    5      0.37     -0.14
   -9   11    6      0.50      0.60
   -9   11    7      1.40      0.33
   -9   11    8      1.98      0.68
   -9   11    9      3.32      1.52
   -9   11   10     -0.20      1.42
   -9   11   11     -1.46      2.43
   -9   11   12     -0.74      0.78
   -9   11   13     -0.75      2.78
    8   10   13    -11.03     -0.51
    8   10   12     -2.46      2.62
    8   10   11      0.53      0.72
    8   10   10      2.52      0.86
    8   10    9     -4.40      2.49
    8   10    8     -0.33      0.96
    8   10    7     -0.22      0.66
    8   10    6     -1.35      1.78
    8   10    5      3.69      1.77
    8   10    4      2.71      1.71
    8   10    3     -0.35      1.71
    8   10    2      5.31      1.85
    8   10    1      5.42      0.35
    8   10    0      0.53     -1.30
   -8   10    1      3.83     -3.86
   -8   10    2      2.09      3.16
   -8   10    3      0.45      3.52
   -8   10    4      1.83      0.04
   -8   10    5      3.59     -0.59
   -8   10    6      3.87     -3.83
   -8   10    7     -1.92      0.58
   -8   10    8     -1.34     -1.04
   -8   10    9     -1.74     -0.50
   -8   10   10     -3.05     -0.37
   -8   10   11     -3.82     -0.38
   -8   10   12     -1.78     -1.88
   -8   10   13     -1.32      0.39
    7    9   13      0.12     -3.26
    7    9   12     -0.69      0.34
    7    9   11     -1.04      1.02
    7    9   10     -0.73     -0.97
    7    9    9      0.83      0.26
    7    9    8     -0.66     -0.74
    7    9    7     -2.14      0.44
    7    9    6     -2.55      4.24
    7    9    5     -2.14      2.86
    7    9    4     -2.44      1.59
    7    9    3     -1.88      1.31
    7    9    2     -4.27      0.65
    7    9    1      0.23      1.83
    7    9    0     -3.23     -1.25
   -7    9    1     -0.61      6.85
   -7    9    2     -2.02      3.68
   -7    9    3      0.34      4.48
   -7    9    4      0.86      2.28
   -7    9    5     -0.03      0.63
   -7    9    6      2.40     -1.40
   -7    9    7      0.27     -1.21
   -7    9    8      1.22     -0.95
   -7    9    9      2.03     -0.39
   -7    9   10      1.08     -1.85
   -7    9   11      1.06      0.14
   -7    9   12      0.69      2.86
   -7    9   13     -0.37      4.19
    6    8   13     -1.92     10.57
    6    8   12      3.72      2.81
    6    8   11      2.16     -3.43
    6    8   10     -0.04     -2.83
    6    8    9      0.58      1.48
    6    8    8      1.80      0.23
    6    8    7      0.44      0.49
    6    8    6      1.10      0.91
    6    8    5      2.66     -4.61
    6    8    4      4.51     -2.36
    6    8    3      2.84     -0.17
    6    8    2      3.17      1.55
    6    8    1     -2.65     -4.91
    6    8    0     -4.19      2.99
   -6    8    1     -3.96     -0.73
   -6    8    2      0.19      7.81
   -6    8    3      3.15      3.30
   -6    8    4     -1.02     -2.38
   -6    8    5      1.24     -1.98
   -6    8    6     -2.33     -5.71
   -6    8    7     -0.42     -2.11
   -6    8    8      1.29      1.26
   -6    8    9      0.57      2.51
   -6    8   10     -1.57      2.61
   -6    8   11     -1.53      2.38
   -6    8   12     -1.42      0.69
   -6    8   13     -2.59      0.09
    5    7   13     -2.34      0.81
    5    7   12     -1.52      2.08
    5    7   11     -0.58      2.69
    5    7   10     -1.33      1.41
    5    7    9     -0.25     -1.88
    5    7    8      0.52     -0.41
    5    7    7     -0.74     -0.07
    5    7    6      0.16     -1.18
    5    7    5      1.12      0.41
    5    7    4      0.11     -0.20
    5    7    3      2.35     -4.18
    5    7    2      3.55      4.33
    5    7    1      2.14      8.13
    5    7    0      0.55      6.25
   -5    7    1     10.86      2.65
   -5    7    2      3.86      3.90
   -5    7    3      4.71     -0.13
   -5    7    4      0.72      2.58
   -5    7    5     -0.67      2.66
   -5    7    6     -2.49     -1.64
   -5    7    7     -1.04      1.15
   -5    7    8      0.35     -0.24
   -5    7    9      0.92     -0.68
   -5    7   10     -1.82     -0.46
   -5    7   11     -3.99      5.25
   -5    7   12      2.53      2.61
   -5    7   13      2.73      6.88
   -5    7   14     -1.98      2.10
    4    6   14     -6.43     -3.84
    4    6   13      4.17      0.92
    4    6   12      0.47     -3.66
    4    6   11     -2.85     -1.96
    4    6   10     -1.86      1.52
    4    6    9     -1.17      0.63
    4    6    8     -1.06     -0.75
    4    6    7      2.54     -0.80
    4    6    6     -0.94      0.93
    4    6    5     -5.36     -0.78
    4    6    4      1.46      0.62
    4    6    3      2.50     -1.79
    4    6    2     10.07      5.02
    4    6    1      6.35      8.98
    4    6    0      2.64     16.57
   -4    6    1     -0.74     15.01
   -4    6    2     10.38     10.97
   -4    6    3      7.13      1.71
   -4    6    4     -2.60     -1.72
   -4    6    5     -5.19      0.38
   -4    6    6     -5.28     -1.08
   -4    6    7     -3.94      1.23
   -4    6    8     -0.20     -0.76
   -4    6    9      0.76      0.20
   -4    6   10      1.33      0.01
   -4    6   11      1.40      1.65
   -4    6   12     -0.44      0.55
   -4    6   13     -2.50      2.43
   -4    6   14     -0.18     -0.14
    3    5   14      4.76      0.59
    3    5   13      3.31     -3.27
    3    5   12      3.09     -0.25
    3    5   11      0.38      3.60
    3    5   10      3.85     -0.31
    3    5    9      2.22     -0.89
    3    5    8      0.49     -1.56
    3    5    7     -2.35     -1.86
    3    5    6     -4.64      0.51
    3    5    5     -5.24     -1.48
    3    5    4     -3.09     -3.95
    3    5    3     -9.03     -6.50
    3    5    2     -2.00     -8.32
    3    5    1     16.18     -1.35
    3    5    0     21.04     -2.25
   -3    5    1      8.01     -8.54
   -3    5    2     -1.80      1.92
   -3    5    3     -1.78      0.93
   -3    5    4      0.96      5.94
   -3    5    5     -2.00      5.49
   -3    5    6     -1.73      4.61
   -3    5    7      0.73      3.65
   -3    5    8     -1.06      1.01
   -3    5    9      1.09      1.41
   -3    5   10      2.83      2.85
   -3    5   11      6.01     10.91
   -3    5   12      4.16     -0.97
   -3    5   13      6.99     -0.65
   -3    5   14      3.66      2.11
    2    4   14     -9.53      3.77
    2    4   13     -1.32      2.18
    2    4   12     -2.80      3.32
    2    4   11      0.03      2.55
    2    4   10      1.52      0.11
    2    4    9      0.22      2.13
    2    4    8     -1.42      0.07
    2    4    7      0.28     -3.59
    2    4    6     -0.44      2.65
    2    4    5     -0.11      3.88
    2    4    4      4.87     -3.75
    2    4    3      7.72    -10.96
    2    4    2     15.72     -1.31
    2    4    1      2.46      1.20
    2    4    0    -11.19     35.53
   -2    4    1     17.52     19.91
   -2    4    2     13.65     -0.68
   -2    4    3     10.40    -13.09
   -2    4    4     -1.56     -5.00
   -2    4    5      0.75      4.20
   -2    4    6     -2.63      2.47
   -2    4    7     -0.59      2.03
   -2    4    8     -0.45      0.65
   -2    4    9      0.00      1.10
   -2    4   10      0.28     -1.00
   -2    4   11      1.31      1.43
   -2    4   12      0.12      3.19
   -2    4   13     -0.75      4.23
   -2    4   14     -3.77     -2.02
    1    3   14     -2.37     -3.17
    1    3   13     -4.92     -4.68
    1    3   12     -2.96     -5.20
    1    3   11      3.58      4.84
    1    3   10     -0.94     -3.39
    1    3    9      0.27     -4.00
    1    3    8     -0.84      0.68
    1    3    7     -2.36      3.68
    1    3    6      0.59      4.84
    1    3    5     -0.38      4.98
    1    3    4     -3.01      2.64
    1    3    3     -1.05      6.14
    1    3    2     -1.52      6.06
    1    3    1      0.18    -13.59
   -1    3    1      1.31    -13.43
   -1    3    2      1.04      3.47
   -1    3    3      0.57      3.44
   -1    3    4      1.00     -0.55
   -1    3    5      2.56      1.56
   -1    3    6      1.48      1.74
   -1    3    7     -0.17      1.01
   -1    3    8     -0.32      1.68
   -1    3    9      1.67     -2.18
   -1    3   10      4.01     -3.15
   -1    3   11      9.77      4.22
   -1    3   12     -0.10     -3.39
   -1    3   13     -0.50     -4.20
   -1    3   14      0.01     -1.39
    0    2   14     -2.09      6.58
    0    2   13      2.31      2.57
    0    2   12      3.04      1.85
    0    2   11      1.11      0.46
    0    2   10     -1.79     -1.20
    0    2    9      0.95      0.84
    0    2    8     -1.93     -1.30
    0    2    7     -1.33      1.73
    0    2    6     -0.97      0.44
    0    2    5      1.58     -0.51
    0    2    4     -4.49     -3.17
    0    2    3     -8.72    -13.88
    0    2    2      5.03     -5.85
   -2    0   14      3.04     -1.65
   -2    0   13      3.09     -0.47
   -2    0   12      0.51     -0.45
   -2    0   11      0.01      0.04
   -2    0   10     -1.35     -0.04
   -2    0    9      1.51      0.11
   -2    0    8     -4.71      0.12
   -2    0    7      0.96      0.02
   -2    0    6     -4.35      0.58
   -2    0    5     -4.82      0.29
   -2    0    4     -8.44      1.36
   -2    0    3    -20.33      1.67
   -2    0    2     -3.65      4.93
    2    0    2     -7.16      3.61
    2    0    3    -14.31      0.98
    2    0    4      1.34      0.65
    2    0    5      0.69      0.14
    2    0    6     -0.78      0.24
    2    0    7      2.61      0.01
    2    0    8      0.56      0.08
    2    0    9      3.45      0.23
    2    0   10     -0.90      0.02
    2    0   11      2.18      0.20
    2    0   12      4.38     -0.04
    2    0   13      2.38      0.00
    2    0   14     10.40     -0.31
   -3    1   14     -0.69      0.70
   -3    1   13     -3.94     -2.21
   -3    1   12      0.39      0.06
   -3    1   11      4.44     -0.77
   -3    1   10     -2.48     -1.85
   -3    1    9     -1.29     -0.89
   -3    1    8     -0.58      0.47
   -3    1    7     -3.68     -1.65
   -3    1    6     -3.18     -2.53
   -3    1    5     -4.14     -1.27
   -3    1    4     -4.96     -0.83
   -3    1    3      0.33      2.59
   -3    1    2     -1.47      1.15
   -3    1    1      5.58     -0.76
    3    1    1      8.97      5.54
    3    1    2      6.46      0.35
    3    1    3      1.09     -4.40
    3    1    4     -0.08     -2.92
    3    1    5     -1.23     -3.54
    3    1    6      4.05     -1.88
    3    1    7      6.20      2.49
    3    1    8      0.25      0.10
    3    1    9     -1.74     -0.31
    3    1   10      0.03      5.60
    3    1   11      6.63      8.20
    3    1   12     -2.18      2.11
    3    1   13     -0.56      5.19
    3    1   14     -1.29      3.06
   -4    2   14     -1.05      1.96
   -4    2   13      1.76      2.07
   -4    2   12      1.44      0.80
   -4    2   11      0.09      0.34
   -4    2   10     -0.87      0.19
   -4    2    9      1.24      2.73
   -4    2    8     -1.20      0.61
   -4    2    7      1.74      2.40
   -4    2    6     -2.02     -0.26
   -4    2    5     -0.97     -2.30
   -4    2    4     -8.19     -1.89
   -4    2    3     -8.01    -18.61
   -4    2    2     -4.69     -8.62
   -4    2    1     10.73    -11.94
    4    2    0     20.31     28.28
    4    2    1    -12.43     -0.35
    4    2    2     -4.43    -16.74
    4    2    3     -7.24    -16.72
    4    2    4     -0.73     -2.13
    4    2    5     -0.94      0.45
    4    2    6      0.68     -2.85
    4    2    7     -1.75     -0.14
    4    2    8      1.30      1.88
    4    2    9      2.92      2.20
    4    2   10     -0.25      0.91
    4    2   11      2.55      2.17
    4    2   12      3.20      4.55
    4    2   13      0.58      1.91
    4    2   14      1.59     11.58
   -5    3   14     -1.85     -2.40
   -5    3   13      1.00     -5.78
   -5    3   12     -0.14      0.55
   -5    3   11      5.06      0.90
   -5    3   10     -0.47     -1.23
   -5    3    9     -0.53     -0.29
   -5    3    8     -1.52      0.84
   -5    3    7      0.43     -2.28
   -5    3    6      3.86     -3.53
   -5    3    5      1.67     -1.54
   -5    3    4      2.13     -4.72
   -5    3    3      4.98     -6.05
   -5    3    2      3.88     -0.83
   -5    3    1      6.20      4.61
    5    3    0      5.11      5.82
    5    3    1     -0.83      4.08
    5    3    2     -4.92      5.27
    5    3    3     -0.01     -0.94
    5    3    4      2.40     -2.09
    5    3    5      0.81     -0.38
    5    3    6      2.75      4.05
    5    3    7      0.36      1.76
    5    3    8      0.64     -1.78
    5    3    9      0.78     -0.02
    5    3   10     -1.95     -0.45
    5    3   11     -1.56      2.84
    5    3   12      2.84      0.78
    5    3   13     -1.92      4.36
    5    3   14      0.37      1.80
   -6    4   14      0.25     -0.66
   -6    4   13      1.60      0.86
   -6    4   12      0.14      1.73
   -6    4   11      1.88     -0.52
   -6    4   10     -0.07     -0.91
   -6    4    9     -0.76      2.03
   -6    4    8     -4.21      0.91
   -6    4    7     -2.51      5.90
   -6    4    6     -3.36      2.55
   -6    4    5     -2.86      3.99
   -6    4    4     -4.67     -0.57
   -6    4    3      6.23     -5.36
   -6    4    2      5.33     -4.63
   -6    4    1      6.01     -0.94
    6    4    0     11.88     -4.20
    6    4    1      7.23    -12.79
    6    4    2      8.42    -11.55
    6    4    3      2.45     -7.12
    6    4    4     -0.32     -2.66
    6    4    5     -3.62      0.47
    6    4    6      3.05     -1.03
    6    4    7      0.65     -4.04
    6    4    8      1.39      0.26
    6    4    9     -0.02      1.59
    6    4   10     -0.65      0.71
    6    4   11      0.48      1.87
    6    4   12     -2.29      2.26
    6    4   13      0.22     -1.98
    6    4   14     -4.43      2.80
   -7    5   14     -0.11     -1.98
   -7    5   13      4.64     -1.50
   -7    5   12     -0.68     -1.84
   -7    5   11      0.52      1.39
   -7    5   10     -1.53     -0.42
   -7    5    9     -0.35     -0.94
   -7    5    8     -0.23     -1.14
   -7    5    7      0.00     -0.96
   -7    5    6      0.78      0.34
   -7    5    5     -0.29      2.87
   -7    5    4      2.54      0.27
   -7    5    3      5.79      2.27
   -7    5    2      4.87      7.65
   -7    5    1     -0.38     -0.45
    7    5    0      0.81      4.03
    7    5    1      0.33      2.69
    7    5    2     -3.89     -4.17
    7    5    3     -1.49     -3.87
    7    5    4     -0.37      0.77
    7    5    5     -1.18      0.50
    7    5    6     -1.97      0.43
    7    5    7      0.12     -0.56
    7    5    8      2.50      0.62
    7    5    9     -0.02     -0.27
    7    5   10      1.01     -0.28
    7    5   11      3.09     -1.15
    7    5   12      1.63      1.97
    7    5   13     -5.83      2.74
   -8    6   13      2.45      2.51
   -8    6   12     -0.76      1.39
   -8    6   11      0.72      2.46
   -8    6   10      0.83      1.29
   -8    6    9      0.04      0.75
   -8    6    8     -1.18     -1.53
   -8    6    7     -2.83     -0.68
   -8    6    6     -5.16     -0.34
   -8    6    5     -2.35      0.18
   -8    6    4     -2.69     -0.53
   -8    6    3      2.35     -0.33
   -8    6    2      2.41      0.29
   -8    6    1     -4.14     -3.36
    8    6    0      4.57      0.00
    8    6    1     -2.75     -1.19
    8    6    2      2.28      1.48
    8    6    3      1.11     -3.52
    8    6    4      0.16     -6.14
    8    6    5     -2.02     -3.30
    8    6    6      1.17     -1.18
    8    6    7      1.99     -1.10
    8    6    8      2.16      0.71
    8    6    9      0.80     -1.59
    8    6   10     -0.85     -2.27
    8    6   11     -0.61     -0.63
    8    6   12     -0.78     -1.97
    8    6   13      4.44      2.04
   -9    7   13      1.79      0.09
   -9    7   12      0.80     -2.50
   -9    7   11      0.11     -2.61
   -9    7   10     -1.84     -1.25
   -9    7    9      0.00     -1.27
   -9    7    8      0.65     -0.24
   -9    7    7     -0.76     -2.08
   -9    7    6     -0.13     -2.21
   -9    7    5     -1.36     -0.89
   -9    7    4     -0.93     -0.25
   -9    7    3      0.60      1.86
   -9    7    2     -4.62      5.65
   -9    7    1      0.39     -0.79
    9    7    0     -2.42     -1.13
    9    7    1      0.41     -3.06
    9    7    2     -0.28     -0.99
    9    7    3      1.40     -0.49
    9    7    4      0.34     -0.96
    9    7    5      0.40     -0.48
    9    7    6      1.09     -0.40
    9    7    7      0.06      0.50
    9    7    8      0.81      1.95
    9    7    9      0.64     -0.69
    9    7   10      0.41     -0.18
    9    7   11      1.68      0.30
    9    7   12      0.18      1.66
    9    7   13     -3.01     -3.22
  -10    8   13      1.40      4.58
  -10    8   12     -1.26      1.14
  -10    8   11     -0.74      1.79
  -10    8   10     -1.06      0.83
  -10    8    9     -1.03      1.33
  -10    8    8     -0.52     -0.34
  -10    8    7      0.11      1.89
  -10    8    6     -1.38     -2.41
  -10    8    5      0.51     -0.41
  -10    8    4     -0.33     -2.09
  -10    8    3      1.31     -1.20
  -10    8    2      3.18     -0.25
  -10    8    1     -0.79     -4.49
   10    8    0      1.86     -1.72
   10    8    1      4.18     -4.12
   10    8    2     -1.35     -1.84
   10    8    3     -0.38     -0.52
   10    8    4      3.85     -1.42
   10    8    5      1.53     -0.64
   10    8    6      1.04      0.96
   10    8    7      0.71      1.43
   10    8    8      0.02      1.34
   10    8    9      1.01      2.55
   10    8   10      1.30     -0.49
   10    8   11     -0.10      0.12
   10    8   12      0.76      1.29
   10    8   13     -2.73      5.35
  -11    9   13     -0.10     -0.33
  -11    9   12     -1.30     -0.87
  -11    9   11      0.50      0.40
  -11    9   10     -1.03     -0.47
  -11    9    9      1.11     -1.15
  -11    9    8      0.57     -0.69
  -11    9    7      0.91     -1.84
  -11    9    6      1.41     -1.87
  -11    9    5      0.46     -1.94
  -11    9    4      0.79     -1.00
  -11    9    3      1.72      0.01
  -11    9    2      0.10     -3.36
  -11    9    1      1.75     -4.47
   11    9    0      2.59     -5.01
   11    9    1      6.39     -1.59
   11    9    2      0.03     -2.68
   11    9    3      0.82     -1.58
   11    9    4      0.04     -0.29
   11    9    5      0.43      0.47
   11    9    6     -0.44      1.94
   11    9    7     -0.25     -0.52
   11    9    8     -0.44      0.53
   11    9    9      1.24     -1.20
   11    9   10     -0.13     -0.52
   11    9   11      0.40     -0.32
   11    9   12     -0.62      0.23
  -12   10   12     -1.01      0.61
  -12   10   11     -0.73      0.81
  -12   10   10     -0.14      0.12
  -12   10    9     -0.26     -0.56
  -12   10    8      0.60      0.02
  -12   10    7     -1.70      1.06
  -12   10    6     -0.58     -0.66
  -12   10    5      0.52      0.44
  -12   10    4      1.11     -0.78
  -12   10    3      0.55     -1.48
  -12   10    2      2.41      0.89
  -12   10    1     -2.08     -0.93
   12   10    0      0.79     -0.21
   12   10    1     -0.42      2.35
   12   10    2      0.77     -1.24
   12   10    3      1.08     -2.98
   12   10    4      0.15      0.26
   12   10    5      1.43     -0.15
   12   10    6     -0.70     -2.10
   12   10    7     -1.67     -0.90
   12   10    8     -0.59     -1.29
   12   10    9     -1.46     -0.31
   12   10   10      0.22     -0.98
   12   10   11     -0.69     -0.51
   12   10   12     -2.33      0.80
  -13   11   12      0.24     -1.39
  -13   11   11     -0.64     -1.03
  -13   11   10      0.11     -0.16
  -13   11    9      1.28      0.51
  -13   11    8      1.02      0.74
  -13   11    7      1.04     -0.37
  -13   11    6     -0.97     -0.31
  -13   11    5      1.18     -0.89
  -13   11    4     -0.40     -0.21
  -13   11    3      0.09     -0.20
  -13   11    2      0.62      0.30
  -13   11    1      1.14      2.98
   13   11    0      3.77      2.31
   13   11    1      2.56      0.87
   13   11    2      2.08     -2.00
   13   11    3      0.83      0.46
   13   11    4     -0.89     -0.32
   13   11    5      0.84      0.60
   13   11    6     -2.08     -0.02
   13   11    7      0.74      0.97
   13   11    8     -0.26      0.52
   13   11    9      1.83      2.03
   13   11   10      0.63      0.63
   13   11   11      0.14     -0.59
   13   11   12      0.06      0.49
  -14   12   11      0.27      0.88
  -14   12   10      1.13      0.13
  -14   12    9      1.02      0.38
  -14   12    8      0.73      0.59
  -14   12    7      0.56      0.41
  -14   12    6      0.27     -0.44
  -14   12    5     -0.25     -0.27
  -14   12    4      0.89      1.30
  -14   12    3      1.75     -1.75
  -14   12    2      0.24      0.06
  -14   12    1     -0.48     -0.66
   14   12    0     -0.28     -0.94
   14   12    1     -1.10     -0.72
   14   12    2      0.71      0.12
   14   12    3      1.10      1.09
   14   12    4     -0.77      0.77
   14   12    5      0.39     -0.61
   14   12    6      1.01     -0.33
   14   12    7      1.23     -0.39
   14   12    8      0.11     -0.71
   14   12    9      1.15      0.90
   14   12   10      1.28      1.50
   14   12   11     -0.63     -0.22
  -15   13   11     -0.44      0.04
  -15   13   10     -0.35      2.28
  -15   13    9     -0.62      0.44
  -15   13    8     -0.35      0.50
  -15   13    7      0.30      1.38
  -15   13    6     -0.85     -0.38
  -15   13    5      1.30     -0.69
  -15   13    4     -0.24     -1.52
  -15   13    3      0.98     -0.82
  -15   13    2     -2.30     -2.17
  -15   13    1     -4.66      0.46
   15   13    0     -1.75      0.61
   15   13    1      1.08     -0.73
   15   13    2      1.96     -1.07
   15   13    3     -0.88     -0.25
   15   13    4      0.99     -0.68
   15   13    5     -0.99     -0.35
   15   13    6     -0.59     -0.53
   15   13    7     -1.54      0.68
   15   13    8     -1.49     -0.79
   15   13    9     -0.39      0.59
   15   13   10     -0.26     -0.34
   15   13   11      0.22     -1.69
  -16   14   10      0.25      0.58
  -16   14    9      0.41     -0.46
  -16   14    8      0.27     -1.49
  -16   14    7     -0.58      1.05
  -16   14    6      0.22      0.84
  -16   14    5      0.20     -0.48
  -16   14    4     -0.72      0.69
  -16   14    3     -0.21     -0.02
  -16   14    2      0.16     -0.42
  -16   14    1     -1.82      1.09
   16   14    0     -0.81     -0.12
   16   14    1     -0.51      2.87
   16   14    2     -0.11      0.46
   16   14    3     -1.03      1.22
   16   14    4     -1.29      0.54
   16   14    5      0.83     -0.54
   16   14    6      0.08      0.20
   16   14    7     -0.13      0.63
   16   14    8      0.66     -0.45
   16   14    9      1.51     -0.61
   16   14   10     -3.24      0.01
  -17   15   10     -2.14     -0.69
  -17   15    9     -0.01     -2.63
  -17   15    8     -0.68     -0.69
  -17   15    7     -1.35      0.99
  -17   15    6     -1.90     -0.64
  -17   15    5      0.75      0.79
  -17   15    4      1.16     -0.65
  -17   15    3     -0.55      1.08
  -17   15    2      0.60     -0.52
  -17   15    1     -0.27     -2.44
   17   15    0      0.74     -0.42
   17   15    1      1.32      0.56
   17   15    2      1.80      0.37
   17   15    3      0.60     -0.53
   17   15    4      0.31      0.86
   17   15    5      0.34     -2.19
   17   15    6     -0.38     -1.03
   17   15    7     -1.47     -2.05
   17   15    8      1.61     -0.90
   17   15    9      1.99     -0.11
  -18   16    9      0.90     -0.50
  -18   16    8      1.52     -1.50
  -18   16    7      0.10     -0.77
  -18   16    6     -0.80     -0.65
  -18   16    5     -1.00     -0.83
  -18   16    4      0.33      0.14
  -18   16    3      0.65     -0.65
  -18   16    2      1.71     -0.86
  -18   16    1      0.72     -2.34
   18   16    0      1.48     -1.39
   18   16    1     -2.01      0.33
   18   16    2      0.06      0.36
   18   16    3      0.88      0.60
   18   16    4     -0.16     -0.16
   18   16    5     -0.52      0.50
   18   16    6      0.39      0.78
   18   16    7      0.53      2.26
   18   16    8      1.55      1.47
   18   16    9      2.69      2.04
  -19   17    8      0.82      0.20
  -19   17    7      0.46      0.36
  -19   17    6      0.06     -1.45
  -19   17    5     -1.18      0.11
  -19   17    4     -0.91      0.68
  -19   17    3     -1.46      0.87
  -19   17    2     -2.27      0.48
  -19   17    1      0.65     -0.12
   19   17    0      1.11      1.22
   19   17    1      0.40      0.56
   19   17    2      0.00     -0.47
   19   17    3      1.52     -0.62
   19   17    4      0.68     -1.67
   19   17    5      1.24     -2.71
   19   17    6      0.99     -2.84
   19   17    7      2.34     -2.39
   19   17    8      1.38      0.25
  -20   18    7      0.38     -0.09
  -20   18    6     -0.16     -0.57
  -20   18    5      0.48     -0.51
  -20   18    4      2.40      0.41
  -20   18    3      0.34      0.64
  -20   18    2      1.48      0.76
  -20   18    1      2.48      1.54
   20   18    0      2.43      2.02
   20   18    1      0.42      0.20
   20   18    2     -0.64      0.87
   20   18    3      1.36      1.92
   20   18    4      0.29      1.59
   20   18    5     -1.73     -0.77
   20   18    6     -0.75      1.76
   20   18    7     -1.41      2.45
  -21   19    6     -0.32      1.31
  -21   19    5      0.21      0.19
  -21   19    4      0.06     -1.23
  -21   19    3     -1.74      0.33
  -21   19    2     -0.71     -1.54
  -21   19    1      1.00     -0.08
   21   19    0      0.15      1.13
   21   19    1     -0.90      1.17
   21   19    2      1.77     -0.37
   21   19    3      2.34     -0.30
   21   19    4      1.79     -1.02
   21   19    5      2.32     -2.00
  -22   20    4      1.14      3.54
  -22   20    3     -0.62      1.51
  -22   20    2      0.14     -0.05
  -22   20    1     -1.77      0.40
   22   20    0     -1.38      1.03
   22   20    1     -0.86      0.03
   22   20    2     -1.42     -1.42
   22   20    3     -0.21      0.35
   19   23    3     -0.62     -2.25
   19   23    2     -1.00     -1.95
   19   23    1     -0.56     -0.56
   19   23    0     -0.96     -0.93
  -19   23    1     -0.30      2.54
  -19   23    2     -0.58      0.97
  -19   23    3      0.04     -1.26
  -19   23    4     -0.53      1.01
   18   22    5     -0.07      0.50
   18   22    4     -0.40      1.31
   18   22    3      0.47      1.39
   18   22    2      0.40     -1.87
   18   22    1     -1.29      0.10
   18   22    0     -1.48     -0.04
  -18   22    1     -2.09     -0.61
  -18   22    2     -1.20      0.58
  -18   22    3     -1.59     -0.39
  -18   22    4     -1.37      1.05
  -18   22    5     -1.41     -1.04
  -18   22    6     -0.44     -0.60
   17   21    7      1.67      1.04
   17   21    6     -0.03     -0.07
   17   21    5     -1.35     -1.25
   17   21    4     -1.80      0.41
   17   21    3     -1.20     -1.39
   17   21    2     -0.66      0.64
   17   21    1     -1.19      0.17
   17   21    0     -2.11     -1.02
  -17   21    1      0.24      0.61
  -17   21    2     -0.75     -1.26
  -17   21    3     -1.50     -0.41
  -17   21    4      0.14      0.13
  -17   21    5     -0.43      0.66
  -17   21    6     -0.06      0.47
  -17   21    7      0.35     -2.52
   16   20    8     -1.03      0.48
   16   20    7      0.64      1.03
   16   20    6      0.38      0.48
   16   20    5      1.05      0.43
   16   20    4      1.79      0.17
   16   20    3      0.75     -0.66
   16   20    2     -1.62     -0.85
   16   20    1     -1.27      0.31
   16   20    0     -0.56      0.37
  -16   20    1      0.35      1.09
  -16   20    2     -1.05     -0.19
  -16   20    3     -1.04      0.20
  -16   20    4     -0.50     -0.45
  -16   20    5     -2.92      0.28
  -16   20    6     -0.89      1.19
  -16   20    7     -1.46     -0.23
  -16   20    8     -1.67      1.87
   15   19    9     -1.35     -1.09
   15   19    8     -0.70     -0.98
   15   19    7     -0.59     -1.19
   15   19    6      0.42     -1.02
   15   19    5      0.85     -1.91
   15   19    4      0.14     -1.63
   15   19    3     -0.20     -0.39
   15   19    2      0.12      0.39
   15   19    1      0.11      0.61
   15   19    0     -1.88      1.04
  -15   19    1     -1.17      0.82
  -15   19    2     -2.54      1.20
  -15   19    3     -1.15      1.00
  -15   19    4      0.19      0.12
  -15   19    5      0.42      1.67
  -15   19    6      1.29      1.42
  -15   19    7      0.01      0.25
  -15   19    8     -0.31      0.09
  -15   19    9     -0.07     -0.49
   14   18    9     -0.39      0.94
   14   18    8     -0.65      1.39
   14   18    7     -0.14      1.10
   14   18    6      1.04      0.91
   14   18    5      0.72      0.45
   14   18    4      1.10     -1.92
   14   18    3      0.21      0.18
   14   18    2      0.10      1.09
   14   18    1     -0.52     -0.35
   14   18    0     -0.96      0.29
  -14   18    1     -0.92     -1.61
  -14   18    2     -2.66     -0.03
  -14   18    3     -1.56      0.23
  -14   18    4     -2.94      0.71
  -14   18    5     -0.32      2.11
  -14   18    6      1.03      1.31
  -14   18    7     -0.19      0.12
  -14   18    8      0.71      1.31
  -14   18    9      0.06     -0.77
  -14   18   10     -1.29      1.23
   13   17   10     -1.87     -0.63
   13   17    9      0.09      1.34
   13   17    8     -0.91      1.63
   13   17    7     -1.47      0.54
   13   17    6     -1.60     -1.42
   13   17    5     -2.16     -2.87
   13   17    4     -2.35     -0.93
   13   17    3     -0.02      0.35
   13   17    2      0.66      1.53
   13   17    1      0.37      0.44
   13   17    0     -0.73      1.94
  -13   17    1     -1.14      4.30
  -13   17    2      0.31      1.71
  -13   17    3      0.01      0.16
  -13   17    4      0.46     -0.06
  -13   17    5      0.80      0.63
  -13   17    6      1.92     -0.10
  -13   17    7      1.50     -0.45
  -13   17    8      1.49     -1.21
  -13   17    9      0.44     -1.14
  -13   17   10     -0.96     -1.47
   12   16   11     -0.23      0.29
   12   16   10     -2.36     -0.11
   12   16    9     -0.04      0.56
   12   16    8      1.15      1.18
   12   16    7      0.83      1.00
   12   16    6      2.01     -0.33
   12   16    5      0.87     -0.80
   12   16    4     -1.55     -2.65
   12   16    3     -0.34     -0.72
   12   16    2      0.72     -1.63
   12   16    1     -0.81     -1.28
   12   16    0     -0.47      0.17
  -12   16    1     -2.27      0.27
  -12   16    2     -1.64      1.53
  -12   16    3     -1.10      1.63
  -12   16    4     -1.48      2.98
  -12   16    5      0.11      0.93
  -12   16    6      0.08      1.07
  -12   16    7     -0.04     -1.20
  -12   16    8      1.33     -0.72
  -12   16    9     -0.44      0.91
  -12   16   10     -0.28      1.38
  -12   16   11     -0.88     -1.09
   11   15   11      0.28      0.08
   11   15   10      0.04      0.14
   11   15    9      1.47     -1.07
   11   15    8      1.24     -1.52
   11   15    7     -1.02     -0.61
   11   15    6     -1.78     -0.43
   11   15    5     -0.97      0.56
   11   15    4     -0.88      0.86
   11   15    3      0.02     -0.21
   11   15    2      0.68      1.08
   11   15    1      0.13      1.88
   11   15    0      0.24      3.30
  -11   15    1      1.74      4.20
  -11   15    2      0.08      0.07
  -11   15    3     -0.84      1.52
  -11   15    4     -1.22     -1.49
  -11   15    5      0.82      0.76
  -11   15    6      0.86      0.08
  -11   15    7     -0.48     -0.51
  -11   15    8     -1.27     -1.11
  -11   15    9     -1.05      0.87
  -11   15   10     -1.76      1.06
  -11   15   11     -2.59     -0.31
   10   14   12      0.98      1.98
   10   14   11      0.46      1.94
   10   14   10     -1.04      3.22
   10   14    9      1.94     -1.87
   10   14    8      1.51     -1.01
   10   14    7     -0.74      0.45
   10   14    6      0.27      0.68
   10   14    5     -1.91      1.69
   10   14    4     -2.12      1.41
   10   14    3     -0.85      1.48
   10   14    2     -3.00     -0.04
   10   14    1     -1.10     -0.39
   10   14    0     -1.49      0.02
  -10   14    1     -1.69     -0.17
  -10   14    2     -0.49     -0.19
  -10   14    3      0.70     -0.09
  -10   14    4     -0.54      2.98
  -10   14    5     -0.60      2.47
  -10   14    6      2.26      2.15
  -10   14    7     -0.56     -0.72
  -10   14    8     -0.26     -1.29
  -10   14    9      0.55      1.05
  -10   14   10     -0.81     -0.68
  -10   14   11     -0.60      0.59
  -10   14   12      0.27      0.72
    9   13   12     -2.52      0.52
    9   13   11     -0.80     -1.20
    9   13   10     -0.66     -2.64
    9   13    9     -0.36     -3.09
    9   13    8     -0.67     -2.19
    9   13    7     -0.84      0.07
    9   13    6     -0.66      0.58
    9   13    5     -0.43      0.50
    9   13    4     -0.33      0.92
    9   13    3     -1.25      2.97
    9   13    2      1.77      2.95
    9   13    1      4.85      2.63
    9   13    0      4.97      1.95
   -9   13    1      5.24      2.68
   -9   13    2      2.32      2.16
   -9   13    3      4.45     -0.35
   -9   13    4     -0.91      1.43
   -9   13    5      1.47     -0.91
   -9   13    6      1.70     -1.80
   -9   13    7     -0.11      0.39
   -9   13    8     -0.05      1.12
   -9   13    9      0.60      2.01
   -9   13   10     -1.21     -0.43
   -9   13   11     -1.17      0.27
   -9   13   12      1.08      0.96
    8   12   12     -0.21     -3.10
    8   12   11      1.22     -0.85
    8   12   10      1.25      1.40
    8   12    9     -4.35     -6.71
    8   12    8     -1.24      0.09
    8   12    7     -1.29      3.26
    8   12    6      0.74      1.08
    8   12    5      1.29      4.30
    8   12    4      1.69      1.51
    8   12    3      0.00      0.06
    8   12    2     -0.31      5.33
    8   12    1      0.78      1.83
    8   12    0      0.76     -2.27
   -8   12    1      1.73     -0.89
   -8   12    2     -2.27      0.51
   -8   12    3     -4.30     -1.66
   -8   12    4     -1.17      0.35
   -8   12    5      2.56      0.97
   -8   12    6      3.93     -0.35
   -8   12    7     -0.61     -1.91
   -8   12    8      1.46     -1.42
   -8   12    9      1.79      0.32
   -8   12   10     -1.17      0.53
   -8   12   11      0.06     -0.71
   -8   12   12      2.81      1.10
   -8   12   13      1.34      1.16
    7   11   13      0.53     -0.02
    7   11   12     -1.03      1.42
    7   11   11     -2.86      0.37
    7   11   10     -3.26      0.82
    7   11    9     -3.58     -0.21
    7   11    8     -1.30     -0.96
    7   11    7     -1.72      0.31
    7   11    6     -3.20     -0.34
    7   11    5     -1.88      0.87
    7   11    4     -0.42      0.47
    7   11    3      1.28      1.40
    7   11    2      1.76     -2.45
    7   11    1      1.81     -2.26
    7   11    0      2.42     -5.39
   -7   11    1      0.73     -3.05
   -7   11    2      3.00     -1.04
   -7   11    3      0.18     -2.09
   -7   11    4      1.09     -0.18
   -7   11    5      1.37     -1.92
   -7   11    6      0.59     -0.01
   -7   11    7     -0.55     -0.33
   -7   11    8      0.77     -1.24
   -7   11    9      0.51     -0.60
   -7   11   10     -0.32     -0.29
   -7   11   11     -0.29     -1.55
   -7   11   12     -0.09     -3.19
   -7   11   13     -0.43     -2.14
    6   10   13    -15.97      1.50
    6   10   12     -7.10      3.60
    6   10   11     -0.32      1.62
    6   10   10      1.33     -1.63
    6   10    9     -5.90      1.48
    6   10    8      0.66      3.20
    6   10    7      1.55      0.83
    6   10    6     -1.50      0.69
    6   10    5      2.15     -0.65
    6   10    4      0.44     -0.64
    6   10    3     -3.46      0.41
    6   10    2      2.26      2.69
    6   10    1      3.05     -3.94
    6   10    0     -4.26     -6.06
   -6   10    1     -4.97     -5.00
   -6   10    2     -7.09      4.04
   -6   10    3     -6.36      5.29
   -6   10    4     -3.10      1.67
   -6   10    5     -0.57      1.63
   -6   10    6      0.40     -2.08
   -6   10    7     -0.61      0.70
   -6   10    8     -0.47     -1.20
   -6   10    9      0.33      0.21
   -6   10   10      0.26     -0.25
   -6   10   11      0.93      0.18
   -6   10   12      1.91     -1.48
   -6   10   13      3.46     -2.52
    5    9   13     -2.34     -3.95
    5    9   12     -0.47     -0.03
    5    9   11     -1.40      0.83
    5    9   10      0.60     -0.71
    5    9    9      2.44     -0.11
    5    9    8      0.65     -0.15
    5    9    7     -1.00     -0.70
    5    9    6     -1.57      0.55
    5    9    5     -1.61      1.05
    5    9    4     -1.44     -2.64
    5    9    3      0.99     -2.63
    5    9    2     -6.11     -0.37
    5    9    1     -2.86      0.32
    5    9    0     -3.96     -3.91
   -5    9    1     -1.00      6.77
   -5    9    2      1.48      2.56
   -5    9    3      4.38      0.83
   -5    9    4      1.55      1.10
   -5    9    5     -0.90      1.93
   -5    9    6      2.81     -1.20
   -5    9    7     -0.22      0.42
   -5    9    8     -0.20     -0.71
   -5    9    9     -0.40      1.04
   -5    9   10     -2.46     -3.31
   -5    9   11     -7.17     -4.90
   -5    9   12     -6.86     -0.29
   -5    9   13     -9.80      1.15
    4    8   13     -0.70     12.57
    4    8   12      2.39      6.99
    4    8   11      3.10     -0.72
    4    8   10     -2.20     -2.78
    4    8    9     -2.32     -0.31
    4    8    8      1.26     -1.75
    4    8    7     -2.06      0.17
    4    8    6     -4.21      1.81
    4    8    5     -4.66     -1.72
    4    8    4     -3.31      1.81
    4    8    3     -1.03     -0.39
    4    8    2      1.71      3.17
    4    8    1     -6.61     -3.59
    4    8    0    -11.53     -1.55
   -4    8    1    -11.49      2.12
   -4    8    2     -1.68     13.53
   -4    8    3      3.52      6.16
   -4    8    4      0.61      2.39
   -4    8    5      2.16      2.56
   -4    8    6     -0.52      1.44
   -4    8    7      1.08      0.65
   -4    8    8      1.09      1.24
   -4    8    9      2.14      1.55
   -4    8   10      2.21     -0.51
   -4    8   11      2.18     -0.93
   -4    8   12      1.97     -1.21
   -4    8   13     -0.78     -3.18
   -4    8   14      0.53     -2.15
    3    7   14     -2.96      3.63
    3    7   13     -0.03      3.55
    3    7   12     -0.34      2.07
    3    7   11     -3.73      0.69
    3    7   10     -1.18      1.67
    3    7    9     -0.27     -1.31
    3    7    8      0.07     -1.29
    3    7    7     -1.83     -1.00
    3    7    6     -2.83     -1.86
    3    7    5     -3.75     -1.89
    3    7    4     -6.24     -3.79
    3    7    3     -4.34    -12.50
    3    7    2      1.57     -0.45
    3    7    1      0.56     10.70
    3    7    0     -1.41      8.57
   -3    7    1     12.00      2.12
   -3    7    2      2.01     -4.47
   -3    7    3      0.18     -8.55
   -3    7    4     -3.18     -1.19
   -3    7    5     -1.37     -1.60
   -3    7    6     -1.62     -3.15
   -3    7    7     -1.03      0.70
   -3    7    8     -0.66      1.04
   -3    7    9     -0.94      1.99
   -3    7   10     -3.98      2.49
   -3    7   11     -9.86     10.81
   -3    7   12     -0.79      7.79
   -3    7   13      0.11     11.57
   -3    7   14     -6.22      7.87
    2    6   14     -0.79     -3.51
    2    6   13      5.00      1.40
    2    6   12      2.39     -0.30
    2    6   11      1.37     -0.19
    2    6   10     -0.99      2.11
    2    6    9     -1.78      1.57
    2    6    8     -1.17     -0.26
    2    6    7      2.26      1.33
    2    6    6     -2.67      3.06
    2    6    5     -4.95      3.40
    2    6    4      0.24      1.48
    2    6    3     -2.69     -8.31
    2    6    2     -3.06     -4.17
    2    6    1    -13.68     -4.74
    2    6    0    -27.67     -1.58
   -2    6    1    -21.54      5.58
   -2    6    2      0.36     -0.28
   -2    6    3      3.10     -8.35
   -2    6    4     -0.17     -5.90
   -2    6    5     -2.26     -1.10
   -2    6    6     -1.35     -1.06
   -2    6    7      1.89      0.93
   -2    6    8      0.67      0.31
   -2    6    9      1.20     -0.20
   -2    6   10      1.28     -2.38
   -2    6   11      1.30     -0.40
   -2    6   12      0.08     -0.86
   -2    6   13     -1.78     -0.02
   -2    6   14      1.09     -3.66
    1    5   14      2.53      1.22
    1    5   13      4.72     -2.80
    1    5   12      4.40     -1.37
    1    5   11     -0.25      9.91
    1    5   10      4.09      2.36
    1    5    9      3.71     -0.03
    1    5    8     -0.68      0.23
    1    5    7     -1.36     -0.97
    1    5    6     -2.46      1.97
    1    5    5     -5.39      2.99
    1    5    4     -3.05      0.47
    1    5    3    -10.47     -0.63
    1    5    2     -4.98     -3.71
    1    5    1     20.74     -5.07
    1    5    0     36.05     -4.62
   -1    5    1     16.17    -10.85
   -1    5    2     -7.42     -1.10
   -1    5    3    -11.42     -0.57
   -1    5    4     -6.58      2.01
   -1    5    5     -9.33      2.94
   -1    5    6     -5.67      1.81
   -1    5    7     -1.76      1.56
   -1    5    8     -1.19      1.52
   -1    5    9      3.42      1.60
   -1    5   10      4.46      3.80
   -1    5   11      4.05     11.87
   -1    5   12      6.69     -2.84
   -1    5   13      8.13     -2.76
   -1    5   14      5.66      1.70
    0    4   14     -5.51     -4.34
    0    4   13     -0.62     -0.21
    0    4   12     -0.15      0.62
    0    4   11      1.46     -0.64
    0    4   10      1.12     -2.79
    0    4    9      0.77     -0.22
    0    4    8     -0.78     -1.80
    0    4    7     -0.48     -2.71
    0    4    6     -3.91      2.76
    0    4    5     -4.74      5.02
    0    4    4    -10.73     -0.86
    0    4    3    -16.85     -3.93
    0    4    2    -23.73     17.12
    0    4    1    -42.54     37.48
   -4    0   14      2.64     -1.82
   -4    0   13      3.39     -0.08
   -4    0   12      0.41      0.03
   -4    0   11     -0.52      0.13
   -4    0   10     -1.89     -0.11
   -4    0    9      0.32      0.02
   -4    0    8     -5.51     -0.06
   -4    0    7     -1.64     -0.19
   -4    0    6     -3.15      0.23
   -4    0    5     -0.45     -0.76
   -4    0    4      7.38     -0.32
   -4    0    3      7.22     -0.57
   -4    0    2     35.98      1.32
   -4    0    1     52.39      0.12
    4    0    1     58.11     -0.60
    4    0    2     25.85      0.65
    4    0    3      6.61     -0.21
    4    0    4     13.06     -0.52
    4    0    5      3.40     -0.39
    4    0    6     -0.79      0.09
    4    0    7      2.32     -0.15
    4    0    8      3.12     -0.18
    4    0    9      2.81     -0.10
    4    0   10     -0.82     -0.24
    4    0   11      0.33      0.10
    4    0   12      1.48     -0.15
    4    0   13     -3.00      0.05
    4    0   14      5.83     -0.08
   -5    1   14     -0.57     -0.54
   -5    1   13     -3.37     -3.56
   -5    1   12      2.49     -0.19
   -5    1   11      4.60     -0.96
   -5    1   10      0.13     -0.67
   -5    1    9      0.22     -0.53
   -5    1    8     -1.24     -0.37
   -5    1    7     -4.52     -3.08
   -5    1    6     -4.12     -5.79
   -5    1    5     -2.68     -4.43
   -5    1    4     -1.89     -5.90
   -5    1    3     -0.60     -7.85
   -5    1    2      2.36     -2.49
   -5    1    1      9.91      0.87
    5    1    0     15.29     10.32
    5    1    1      8.64     13.42
    5    1    2      0.87      7.76
    5    1    3     -8.17     -2.04
    5    1    4     -6.66     -1.91
    5    1    5     -7.19     -0.90
    5    1    6      0.91      2.86
    5    1    7      1.27      4.30
    5    1    8     -0.59      1.28
    5    1    9      2.67     -0.87
    5    1   10      5.60      0.24
    5    1   11     12.65      1.84
    5    1   12      6.49     -5.40
    5    1   13      7.46     -0.60
    5    1   14      5.76     -0.01
   -6    2   14     -0.56      1.46
   -6    2   13     -0.49      1.74
   -6    2   12     -0.28      2.14
   -6    2   11     -1.96     -0.05
   -6    2   10     -3.21      0.54
   -6    2    9     -1.19      0.67
   -6    2    8     -3.84      0.34
   -6    2    7      0.62      0.31
   -6    2    6     -3.13     -0.80
   -6    2    5     -3.51      2.57
   -6    2    4     -6.71      7.64
   -6    2    3     -3.70      1.23
   -6    2    2     -3.06     13.97
   -6    2    1      4.23     16.08
    6    2    0      7.83     25.50
    6    2    1     -8.77     14.65
    6    2    2     -4.42      4.29
    6    2    3     -2.67     -1.37
    6    2    4      0.72      2.00
    6    2    5     -0.39      0.67
    6    2    6      1.52     -4.85
    6    2    7     -1.20     -1.30
    6    2    8      1.52      0.45
    6    2    9      1.63     -0.13
    6    2   10     -0.19      0.05
    6    2   11      1.18     -1.72
    6    2   12      2.17     -1.26
    6    2   13     -2.26     -3.82
    6    2   14     -0.84      1.49
   -7    3   14     -1.36     -0.99
   -7    3   13      1.44     -4.43
   -7    3   12      0.79      0.77
   -7    3   11      3.02      1.29
   -7    3   10     -1.01      0.66
   -7    3    9     -0.61     -0.39
   -7    3    8     -2.30     -1.07
   -7    3    7     -1.37     -3.00
   -7    3    6      0.94     -3.48
   -7    3    5     -0.27      0.51
   -7    3    4      0.08     -0.75
   -7    3    3      6.81     -2.58
   -7    3    2      6.05      2.03
   -7    3    1      1.19      6.05
    7    3    0      3.19      3.96
    7    3    1     -2.31      1.84
    7    3    2     -9.03      1.16
    7    3    3     -1.25     -5.65
    7    3    4      2.20     -4.21
    7    3    5     -0.24     -3.64
    7    3    6     -0.78      0.50
    7    3    7     -2.17     -0.77
    7    3    8      1.08     -2.06
    7    3    9      1.98      1.76
    7    3   10      2.74      2.80
    7    3   11      3.35      3.14
    7    3   12      7.07      2.84
    7    3   13      2.88      9.43
    7    3   14      2.61      6.84
   -8    4   14     -0.34     -1.25
   -8    4   13      0.69     -1.74
   -8    4   12     -1.37      0.16
   -8    4   11      0.55     -2.08
   -8    4   10     -1.67     -3.26
   -8    4    9     -0.35     -1.26
   -8    4    8     -2.24     -1.54
   -8    4    7     -0.28      1.02
   -8    4    6     -0.46     -0.56
   -8    4    5     -1.72     -0.80
   -8    4    4     -2.43     -4.03
   -8    4    3      3.10     -5.28
   -8    4    2     -0.62     -3.56
   -8    4    1     -4.40     -0.01
    8    4    0      2.61     -3.15
    8    4    1     -0.98     -3.25
    8    4    2      2.32     -5.48
    8    4    3     -0.80     -3.79
    8    4    4     -0.95     -1.98
    8    4    5     -0.41      0.76
    8    4    6      3.16     -0.87
    8    4    7      1.03     -2.45
    8    4    8      2.05     -0.84
    8    4    9     -0.05     -0.51
    8    4   10      0.15      0.02
    8    4   11      2.71     -1.19
    8    4   12      1.65      0.70
    8    4   13      2.69     -3.11
   -9    5   13      1.09     -1.36
   -9    5   12     -1.28     -1.56
   -9    5   11     -0.59      0.09
   -9    5   10     -0.79     -0.58
   -9    5    9      1.10     -1.15
   -9    5    8      1.45     -2.41
   -9    5    7     -0.27     -2.92
   -9    5    6     -0.04     -2.31
   -9    5    5     -1.64     -0.23
   -9    5    4      0.43     -0.68
   -9    5    3      2.74      0.94
   -9    5    2      3.08      7.67
   -9    5    1     -1.87     -1.65
    9    5    0     -0.42      0.00
    9    5    1      0.26      0.38
    9    5    2     -1.27     -3.53
    9    5    3      1.16     -2.28
    9    5    4      0.04      1.27
    9    5    5     -1.09      0.68
    9    5    6     -1.49      0.24
    9    5    7      0.03     -0.20
    9    5    8      2.28      0.86
    9    5    9     -0.04      1.01
    9    5   10     -1.87      0.19
    9    5   11      0.39     -0.60
    9    5   12      0.31      1.71
    9    5   13     -7.62      2.23
  -10    6   13      3.52     -0.34
  -10    6   12      0.04     -1.05
  -10    6   11      0.74     -0.49
  -10    6   10      0.36     -0.93
  -10    6    9      0.81     -0.08
  -10    6    8     -0.54     -0.09
  -10    6    7      0.96      0.96
  -10    6    6     -0.26      0.32
  -10    6    5      2.92      0.28
  -10    6    4      2.24     -0.10
  -10    6    3      4.17      2.33
  -10    6    2      5.12      3.39
  -10    6    1     -0.67      2.27
   10    6    0      3.44      2.91
   10    6    1     -0.95      0.02
   10    6    2      2.01      5.35
   10    6    3      2.87      1.61
   10    6    4      1.84     -2.32
   10    6    5      0.44      1.01
   10    6    6      0.87     -0.77
   10    6    7      0.92     -1.88
   10    6    8      1.24     -0.42
   10    6    9      1.90     -1.93
   10    6   10     -0.54     -1.29
   10    6   11      0.18     -0.07
   10    6   12      0.23     -0.69
   10    6   13      1.96      1.66
  -11    7   13     -0.24     -0.71
  -11    7   12      0.21     -0.55
  -11    7   11      0.79     -0.70
  -11    7   10      0.19      0.96
  -11    7    9      1.60      0.16
  -11    7    8      1.07      0.03
  -11    7    7      0.23     -2.34
  -11    7    6     -0.21     -2.42
  -11    7    5     -0.19     -0.69
  -11    7    4      0.06     -0.05
  -11    7    3      3.03      0.18
  -11    7    2     -1.03      4.36
  -11    7    1     -0.76     -0.86
   11    7    0      0.47     -1.68
   11    7    1      4.27     -2.64
   11    7    2      0.05      2.02
   11    7    3      0.11      0.75
   11    7    4     -1.12     -0.56
   11    7    5     -1.32     -0.26
   11    7    6     -0.99     -0.79
   11    7    7     -3.07      0.12
   11    7    8      0.24      1.32
   11    7    9     -0.79     -0.71
   11    7   10     -0.09     -2.02
   11    7   11      1.70     -2.14
   11    7   12      0.12     -0.38
   11    7   13     -1.03     -3.59
  -12    8   13      1.72      2.37
  -12    8   12      0.51      0.02
  -12    8   11      1.31      0.09
  -12    8   10      0.26     -0.83
  -12    8    9     -0.65      0.27
  -12    8    8     -0.29     -0.36
  -12    8    7     -0.67      1.79
  -12    8    6     -0.05     -0.44
  -12    8    5      1.83      1.75
  -12    8    4      1.09     -0.35
  -12    8    3      0.98      0.42
  -12    8    2      1.77      2.47
  -12    8    1     -3.23      1.81
   12    8    0     -0.84     -0.21
   12    8    1      2.88      0.52
   12    8    2     -3.31      1.62
   12    8    3     -3.98      0.61
   12    8    4      0.27      0.71
   12    8    5      0.12      1.29
   12    8    6     -0.55     -0.77
   12    8    7      1.74      0.43
   12    8    8      1.59     -0.38
   12    8    9      0.67      0.99
   12    8   10     -0.69     -0.45
   12    8   11     -0.88     -1.36
   12    8   12      0.03      0.76
  -13    9   12     -1.60      0.11
  -13    9   11     -1.20      1.83
  -13    9   10     -1.45      1.88
  -13    9    9     -0.11      1.05
  -13    9    8      0.78      0.31
  -13    9    7      1.05     -1.61
  -13    9    6      0.49     -1.76
  -13    9    5     -0.25     -2.12
  -13    9    4     -1.17     -0.85
  -13    9    3      0.78      0.42
  -13    9    2     -2.10      0.04
  -13    9    1     -0.75     -0.02
   13    9    0      1.68     -1.51
   13    9    1      2.67      1.90
   13    9    2     -2.45      1.40
   13    9    3      0.05     -0.51
   13    9    4      0.58      0.55
   13    9    5      0.89     -1.11
   13    9    6     -1.57      0.52
   13    9    7     -0.44     -2.11
   13    9    8     -0.67     -0.77
   13    9    9      0.52     -0.29
   13    9   10      0.81     -0.43
   13    9   11      0.98      0.26
   13    9   12      0.33      0.36
  -14   10   12      0.12      0.65
  -14   10   11      0.92      0.26
  -14   10   10     -0.04     -0.60
  -14   10    9     -0.12     -0.66
  -14   10    8      1.38     -0.58
  -14   10    7     -0.45     -1.18
  -14   10    6      0.29     -1.17
  -14   10    5      0.40      0.14
  -14   10    4      1.38      0.27
  -14   10    3      0.04     -0.28
  -14   10    2      0.27      1.44
  -14   10    1     -2.70      0.74
   14   10    0      0.90      0.88
   14   10    1     -0.13      3.66
   14   10    2      0.56     -0.27
   14   10    3      0.51     -2.60
   14   10    4     -0.59      0.10
   14   10    5     -0.23     -0.16
   14   10    6      0.15     -1.43
   14   10    7      0.14     -0.27
   14   10    8     -0.28     -0.15
   14   10    9      1.55     -0.31
   14   10   10      1.56     -2.10
   14   10   11      0.77     -1.50
  -15   11   11     -1.22     -0.80
  -15   11   10     -0.35     -0.08
  -15   11    9      0.52     -0.36
  -15   11    8      1.01      0.05
  -15   11    7      2.09     -0.23
  -15   11    6      0.36      0.95
  -15   11    5      2.54     -0.05
  -15   11    4      0.64     -1.58
  -15   11    3     -0.01     -2.71
  -15   11    2     -1.75     -1.22
  -15   11    1     -1.59      3.10
   15   11    0      0.17      1.08
   15   11    1     -0.28     -0.36
   15   11    2     -0.74     -0.66
   15   11    3     -0.08      1.56
   15   11    4     -0.46      1.47
   15   11    5      0.58      1.05
   15   11    6     -1.17     -0.62
   15   11    7      0.16     -0.48
   15   11    8     -0.85     -0.28
   15   11    9      0.72      1.21
   15   11   10     -0.25     -0.42
   15   11   11     -1.06      0.26
  -16   12   11     -0.13     -0.06
  -16   12   10      0.58     -0.47
  -16   12    9      0.67     -0.75
  -16   12    8      0.70     -0.08
  -16   12    7      1.49      0.46
  -16   12    6      1.99     -0.18
  -16   12    5      1.49     -0.14
  -16   12    4      0.83      1.41
  -16   12    3      0.41     -1.39
  -16   12    2     -0.60     -0.29
  -16   12    1     -0.75      1.89
   16   12    0     -1.54      1.38
   16   12    1      0.25      2.66
   16   12    2      0.61      2.45
   16   12    3     -0.07      2.33
   16   12    4     -0.50      0.67
   16   12    5      0.02     -0.21
   16   12    6     -0.02      0.24
   16   12    7     -0.09     -0.30
   16   12    8      0.16     -0.44
   16   12    9      1.19      0.72
   16   12   10     -0.21      2.86
  -17   13   10     -0.23      1.76
  -17   13    9     -0.72     -0.20
  -17   13    8      0.06      0.82
  -17   13    7      0.74      2.16
  -17   13    6     -1.81      1.84
  -17   13    5      0.09      0.49
  -17   13    4     -1.63     -0.73
  -17   13    3      1.08     -0.13
  -17   13    2     -0.09     -1.62
  -17   13    1     -4.27      1.17
   17   13    0     -1.50      0.26
   17   13    1      0.97      0.25
   17   13    2     -0.02      0.71
   17   13    3     -1.52      1.48
   17   13    4      0.01      0.65
   17   13    5     -1.50     -1.51
   17   13    6     -0.50     -0.86
   17   13    7     -2.20     -0.72
   17   13    8     -0.01     -1.48
   17   13    9      0.64     -0.57
   17   13   10      0.88     -0.67
  -18   14   10     -0.11     -0.30
  -18   14    9     -0.14     -1.05
  -18   14    8     -0.23     -1.17
  -18   14    7     -0.76      0.89
  -18   14    6      0.45      1.24
  -18   14    5      0.61      1.00
  -18   14    4      0.76      0.59
  -18   14    3      0.93     -0.70
  -18   14    2      0.52     -0.93
  -18   14    1     -2.35      0.80
   18   14    0     -1.19     -0.14
   18   14    1     -1.65      4.01
   18   14    2     -1.72      1.40
   18   14    3     -1.11      0.35
   18   14    4     -0.79     -0.12
   18   14    5     -0.52      0.06
   18   14    6     -1.05     -0.04
   18   14    7      0.34      0.00
   18   14    8      0.92     -0.34
   18   14    9      1.31     -0.87
  -19   15    9     -0.22     -2.40
  -19   15    8      0.19     -1.40
  -19   15    7      0.37     -0.61
  -19   15    6     -1.45     -1.67
  -19   15    5      0.09     -0.17
  -19   15    4      1.55     -1.16
  -19   15    3      0.94      0.29
  -19   15    2      1.08      1.12
  -19   15    1      0.04     -1.07
   19   15    0      1.14     -0.52
   19   15    1      0.63      0.70
   19   15    2      0.14      1.30
   19   15    3     -0.03     -0.14
   19   15    4     -0.14      0.33
   19   15    5      0.70     -2.23
   19   15    6     -0.13     -0.90
   19   15    7     -0.35     -2.81
   19   15    8      2.35     -0.21
  -20   16    8      0.38     -1.32
  -20   16    7     -0.80     -0.46
  -20   16    6     -1.26      0.20
  -20   16    5     -1.25      0.94
  -20   16    4      0.48      0.92
  -20   16    3     -0.07      0.73
  -20   16    2      0.36     -0.86
  -20   16    1     -0.44     -1.62
   20   16    0      0.96     -1.19
   20   16    1     -2.87     -0.86
   20   16    2     -0.72      0.13
   20   16    3      1.96     -0.46
   20   16    4      0.78     -1.90
   20   16    5     -1.13     -0.65
   20   16    6      0.56     -0.92
   20   16    7      0.91     -0.60
  -21   17    7      2.39      1.56
  -21   17    6      0.75      0.39
  -21   17    5      0.16      0.12
  -21   17    4     -0.27      1.09
  -21   17    3     -0.70      2.26
  -21   17    2     -0.89      0.71
  -21   17    1      0.54      1.20
   21   17    0      0.97      2.37
   21   17    1      0.54      1.71
   21   17    2     -1.13      0.72
   21   17    3      0.33     -0.51
   21   17    4     -0.53     -0.81
   21   17    5     -0.17     -1.97
   21   17    6     -0.40     -2.79
  -22   18    6     -1.15     -0.04
  -22   18    5     -0.53      0.87
  -22   18    4      2.06      0.46
  -22   18    3     -0.09     -0.29
  -22   18    2      0.80     -1.27
  -22   18    1      0.53     -0.24
   22   18    0      1.62      0.12
   22   18    1     -0.01     -1.43
   22   18    2     -1.46     -0.40
   22   18    3      1.71      0.00
   22   18    4      1.77      0.43
   22   18    5      0.26     -1.59
  -23   19    4     -0.01     -1.23
  -23   19    3     -1.79     -0.10
  -23   19    2     -0.36      0.16
  -23   19    1     -1.18      1.54
   23   19    0     -2.07      0.26
   23   19    1     -3.07      1.31
   23   19    2     -1.15      0.65
   23   19    3      0.86     -0.10
   18   24    3     -2.25      0.30
   18   24    2      1.15      0.25
   18   24    1     -0.91      0.43
   18   24    0     -0.92     -0.54
  -18   24    1      0.63     -1.76
  -18   24    2     -0.44     -0.40
  -18   24    3     -0.07     -0.33
  -18   24    4     -0.54      0.16
   17   23    5      1.87     -1.31
   17   23    4     -0.62     -0.71
   17   23    3     -0.16      0.72
   17   23    2     -0.73      1.77
   17   23    1     -1.23      1.63
   17   23    0     -0.58      0.17
  -17   23    1      0.57      2.95
  -17   23    2      0.18      0.60
  -17   23    3      0.45      0.03
  -17   23    4      0.20      1.61
  -17   23    5     -0.91      1.69
   16   22    6      1.20      0.02
   16   22    5      0.59     -0.37
   16   22    4     -0.55     -0.12
   16   22    3     -0.19      0.51
   16   22    2      0.01     -1.90
   16   22    1     -1.57     -0.07
   16   22    0     -1.20      0.01
  -16   22    1     -1.88     -0.11
  -16   22    2     -1.83      0.32
  -16   22    3     -1.40     -0.73
  -16   22    4     -0.14     -0.46
  -16   22    5     -1.27     -2.74
  -16   22    6     -0.55     -0.79
  -16   22    7      0.38     -1.81
   15   21    7      1.24      0.40
   15   21    6      0.20     -0.75
   15   21    5     -0.22     -1.43
   15   21    4      0.12      0.06
   15   21    3      1.22     -0.07
   15   21    2      1.58      1.32
   15   21    1      0.94      2.44
   15   21    0      0.22      0.73
  -15   21    1      1.88      1.48
  -15   21    2     -1.10     -0.20
  -15   21    3     -0.34      1.16
  -15   21    4      1.37      1.12
  -15   21    5     -0.25      1.81
  -15   21    6      0.99      1.26
  -15   21    7      0.88     -1.34
  -15   21    8     -0.54     -0.39
   14   20    8     -0.76     -0.24
   14   20    7      0.71      0.22
   14   20    6     -0.54      0.29
   14   20    5     -1.23      0.21
   14   20    4     -0.18      0.42
   14   20    3      0.21      0.82
   14   20    2     -0.64     -0.09
   14   20    1     -0.09      0.97
   14   20    0     -0.30      0.29
  -14   20    1      1.34      0.90
  -14   20    2     -0.60      0.65
  -14   20    3     -1.03      0.62
  -14   20    4     -1.22     -0.61
  -14   20    5     -2.35      0.98
  -14   20    6      0.04      1.08
  -14   20    7      0.24     -1.26
  -14   20    8     -1.19     -0.49
  -14   20    9      0.40     -1.95
   13   19    9     -2.27     -0.17
   13   19    8     -1.43     -0.85
   13   19    7     -0.63     -0.96
   13   19    6      0.79     -1.33
   13   19    5      1.42     -1.49
   13   19    4      0.30     -0.76
   13   19    3      0.10      0.80
   13   19    2      0.24      0.98
   13   19    1      2.16      0.52
   13   19    0      0.51     -0.16
  -13   19    1     -0.28     -0.41
  -13   19    2      0.12      0.88
  -13   19    3      1.33      1.33
  -13   19    4      1.29     -0.77
  -13   19    5      1.02      1.68
  -13   19    6      1.31      1.11
  -13   19    7     -0.52     -0.41
  -13   19    8     -0.64      0.93
  -13   19    9      0.18     -0.11
  -13   19   10     -0.81      1.22
   12   18   10      0.92     -0.01
   12   18    9      0.88      0.48
   12   18    8     -0.04      1.02
   12   18    7     -0.75      1.56
   12   18    6      0.25      2.24
   12   18    5     -0.17      0.78
   12   18    4      1.03     -1.05
   12   18    3      0.68      0.40
   12   18    2      0.54      0.03
   12   18    1      0.42     -0.71
   12   18    0     -0.32      0.76
  -12   18    1      0.24     -1.68
  -12   18    2     -1.27      0.05
  -12   18    3      0.06      0.93
  -12   18    4     -1.70      1.36
  -12   18    5      0.82      1.59
  -12   18    6      0.98      1.02
  -12   18    7     -0.06     -0.26
  -12   18    8     -0.76      0.34
  -12   18    9     -1.14     -1.44
  -12   18   10     -2.03      0.69
   11   17   10     -2.35      0.62
   11   17    9      0.58      1.78
   11   17    8     -0.63      0.18
   11   17    7      0.20     -0.66
   11   17    6     -0.08     -1.59
   11   17    5     -0.43     -1.38
   11   17    4     -0.19      0.95
   11   17    3      2.08      2.45
   11   17    2      1.94      0.97
   11   17    1      1.68     -1.08
   11   17    0     -0.08     -0.23
  -11   17    1     -1.17      2.05
  -11   17    2      0.14     -2.30
  -11   17    3      0.38     -2.14
  -11   17    4      1.10     -1.34
  -11   17    5      0.22      0.80
  -11   17    6      0.86      0.40
  -11   17    7      0.11      0.87
  -11   17    8      0.86      0.30
  -11   17    9     -0.02      0.23
  -11   17   10     -0.37      1.02
  -11   17   11      1.32     -1.01
   10   16   11      1.03     -1.05
   10   16   10     -1.06     -1.60
   10   16    9      2.17     -1.39
   10   16    8      1.63      0.36
   10   16    7      0.26      1.51
   10   16    6      0.77      2.22
   10   16    5     -0.65      1.55
   10   16    4     -0.90     -0.34
   10   16    3      0.19      1.78
   10   16    2      1.12     -0.82
   10   16    1     -0.72     -0.34
   10   16    0      0.11      0.67
  -10   16    1     -0.89     -0.90
  -10   16    2     -1.04      0.08
  -10   16    3      0.11     -1.49
  -10   16    4     -1.15      0.73
  -10   16    5     -0.41     -0.69
  -10   16    6      0.74      0.94
  -10   16    7      1.97     -1.25
  -10   16    8      3.25     -1.35
  -10   16    9      0.38     -0.33
  -10   16   10      0.29     -1.14
  -10   16   11     -0.65     -2.37
    9   15   11      0.78     -0.84
    9   15   10      0.46      0.61
    9   15    9      0.22     -0.25
    9   15    8     -0.25     -1.34
    9   15    7     -1.81     -1.25
    9   15    6     -2.37     -0.35
    9   15    5      0.44      0.30
    9   15    4     -0.01      1.33
    9   15    3     -0.57     -0.01
    9   15    2     -1.46     -0.58
    9   15    1     -0.97      0.39
    9   15    0     -1.89      0.14
   -9   15    1     -0.75      1.68
   -9   15    2     -2.04     -1.78
   -9   15    3      0.00      2.25
   -9   15    4     -2.12     -2.13
   -9   15    5      1.00     -0.85
   -9   15    6      1.73      0.03
   -9   15    7     -0.80     -1.18
   -9   15    8     -1.33     -1.13
   -9   15    9     -1.54      0.41
   -9   15   10     -0.55     -1.18
   -9   15   11     -1.68     -3.61
   -9   15   12      0.55     -1.96
    8   14   12      0.87     -0.84
    8   14   11     -1.13     -0.54
    8   14   10     -2.52      1.06
    8   14    9      3.00     -6.45
    8   14    8      0.90     -1.35
    8   14    7     -1.74      1.48
    8   14    6      1.80      3.28
    8   14    5      0.80      2.51
    8   14    4      1.49      1.21
    8   14    3      2.65      0.56
    8   14    2     -1.79     -0.92
    8   14    1     -0.17      1.75
    8   14    0      2.61      1.57
   -8   14    1     -0.61      1.05
   -8   14    2     -2.05     -0.14
   -8   14    3     -2.66     -1.88
   -8   14    4     -3.60      0.34
   -8   14    5     -1.77      0.81
   -8   14    6      1.21      0.93
   -8   14    7      0.59     -2.54
   -8   14    8     -0.05     -2.90
   -8   14    9     -0.79     -0.02
   -8   14   10     -1.97     -2.24
   -8   14   11     -0.64     -0.09
   -8   14   12     -1.22      1.20
    7   13   12     -3.26      0.95
    7   13   11     -1.12     -0.68
    7   13   10     -2.64     -1.03
    7   13    9      0.37     -1.13
    7   13    8      0.36     -0.07
    7   13    7     -3.45      0.58
    7   13    6      0.33      0.81
    7   13    5      0.43     -1.26
    7   13    4      0.85     -0.19
    7   13    3      0.06      3.00
    7   13    2      0.60      1.81
    7   13    1      1.15      0.13
    7   13    0     -1.52     -0.40
   -7   13    1      0.51     -0.60
   -7   13    2     -1.36      0.26
   -7   13    3      3.36     -2.75
   -7   13    4     -0.13     -0.18
   -7   13    5      0.59     -0.88
   -7   13    6      0.09     -0.55
   -7   13    7     -1.90      1.15
   -7   13    8     -0.42      1.51
   -7   13    9     -0.16      2.24
   -7   13   10     -3.63     -0.32
   -7   13   11     -3.40     -1.13
   -7   13   12     -2.04     -0.39
    6   12   13     -7.92     -8.14
    6   12   12     -3.41     -1.83
    6   12   11     -2.63      1.92
    6   12   10     -0.69      2.26
    6   12    9     -5.71     -8.69
    6   12    8     -2.94     -0.02
    6   12    7     -1.46      3.49
    6   12    6      0.16      0.63
    6   12    5     -0.41      2.07
    6   12    4     -0.01      1.00
    6   12    3     -1.35     -0.63
    6   12    2     -0.17      6.14
    6   12    1      5.82      3.14
    6   12    0      7.63     -4.17
   -6   12    1      5.30     -1.94
   -6   12    2     -0.88      2.09
   -6   12    3     -3.99     -0.05
   -6   12    4     -1.18      2.34
   -6   12    5      1.80      2.69
   -6   12    6      1.89      1.42
   -6   12    7     -1.65     -0.80
   -6   12    8      0.59     -2.41
   -6   12    9      1.34     -1.39
   -6   12   10     -1.55     -2.04
   -6   12   11     -0.98     -1.74
   -6   12   12      2.38      0.71
   -6   12   13      4.16      3.67
    5   11   13     -0.80      0.15
    5   11   12     -1.07      3.10
    5   11   11     -1.41     -1.00
    5   11   10      0.14      1.16
    5   11    9      0.21      0.40
    5   11    8     -0.31     -1.01
    5   11    7     -2.31      2.37
    5   11    6     -3.34     -1.20
    5   11    5     -5.53     -2.58
    5   11    4     -3.12     -4.31
    5   11    3     -1.96     -2.72
    5   11    2     -4.76     -6.27
    5   11    1     -5.97     -2.22
    5   11    0     -5.45     -1.48
   -5   11    1    -10.18      0.28
   -5   11    2     -4.86      2.73
   -5   11    3     -3.47      0.72
   -5   11    4     -3.23      0.28
   -5   11    5     -1.98     -1.36
   -5   11    6      1.95      3.22
   -5   11    7      0.88      1.39
   -5   11    8      2.73     -0.29
   -5   11    9     -0.31      1.55
   -5   11   10     -0.89      1.15
   -5   11   11     -1.35     -0.41
   -5   11   12     -3.79      0.14
   -5   11   13     -4.59     -1.72
    4   10   13     -7.09      2.58
    4   10   12     -2.25      2.82
    4   10   11      2.01      4.41
    4   10   10      2.41     -0.91
    4   10    9     -4.73     -1.09
    4   10    8      0.04      3.67
    4   10    7      1.19      1.96
    4   10    6     -1.33      2.41
    4   10    5      1.92      2.03
    4   10    4      1.72      1.76
    4   10    3      1.16     -0.37
    4   10    2      4.63     -0.14
    4   10    1      3.99    -12.70
    4   10    0     -0.55    -17.60
   -4   10    1     -7.50    -12.47
   -4   10    2     -6.83     -0.50
   -4   10    3     -1.58      0.80
   -4   10    4      2.41     -1.42
   -4   10    5      4.32     -0.06
   -4   10    6      2.22     -0.98
   -4   10    7      2.17      1.34
   -4   10    8     -0.72     -0.49
   -4   10    9     -3.07      0.78
   -4   10   10     -4.21     -0.08
   -4   10   11     -1.10      0.64
   -4   10   12      0.35     -1.41
   -4   10   13      5.61     -5.38
    3    9   13     -3.40      2.86
    3    9   12      0.09      3.93
    3    9   11     -1.20     -0.90
    3    9   10     -0.58     -1.37
    3    9    9      1.15     -2.08
    3    9    8      0.73      0.02
    3    9    7     -0.57      0.71
    3    9    6     -0.94      1.22
    3    9    5     -2.98      2.87
    3    9    4     -5.48     -2.12
    3    9    3     -0.76     -0.25
    3    9    2    -11.11      7.34
    3    9    1    -10.41      9.06
    3    9    0     -8.51      3.97
   -3    9    1     -5.09     17.62
   -3    9    2      2.39      9.11
   -3    9    3      3.99      2.96
   -3    9    4     -2.35      2.71
   -3    9    5     -3.50      4.06
   -3    9    6      1.98     -0.04
   -3    9    7      1.32     -0.50
   -3    9    8      0.82     -0.74
   -3    9    9      1.76      2.94
   -3    9   10      1.18      1.34
   -3    9   11     -4.74     -0.65
   -3    9   12     -1.97      4.97
   -3    9   13     -5.93      7.14
    2    8   14     -2.79     -8.01
    2    8   13     -1.71     -0.27
    2    8   12     -0.61     -0.53
    2    8   11      3.23     -0.38
    2    8   10     -1.27     -2.74
    2    8    9     -2.61     -2.15
    2    8    8      1.54     -0.71
    2    8    7      0.06     -0.62
    2    8    6     -0.84     -1.84
    2    8    5     -2.10     -3.21
    2    8    4     -3.48     -1.29
    2    8    3     -3.54     -5.24
    2    8    2     -7.50      2.39
    2    8    1    -22.66     -2.08
    2    8    0    -31.81     -6.39
   -2    8    1    -29.51      1.66
   -2    8    2     -9.97     12.16
   -2    8    3     -2.13     -0.53
   -2    8    4     -3.28     -3.45
   -2    8    5     -1.74     -4.54
   -2    8    6     -1.59     -3.54
   -2    8    7      0.72     -1.25
   -2    8    8     -0.64      0.16
   -2    8    9      0.32      1.73
   -2    8   10      0.95      1.79
   -2    8   11     -0.13      1.26
   -2    8   12     -2.26     -1.04
   -2    8   13     -4.30     -4.99
   -2    8   14     -2.28     -6.02
    1    7   14      1.26      4.29
    1    7   13      7.40      7.80
    1    7   12      6.07      4.86
    1    7   11     -4.05      2.68
    1    7   10      0.03      3.02
    1    7    9      0.62      2.35
    1    7    8     -0.75     -0.09
    1    7    7      0.01     -1.69
    1    7    6      0.65     -2.31
    1    7    5     -2.16     -4.42
    1    7    4     -3.25     -3.32
    1    7    3     -0.99    -11.69
    1    7    2      8.10      1.05
    1    7    1     12.63     18.92
    1    7    0      4.43     19.62
   -1    7    1     17.33     12.90
   -1    7    2      4.98     -2.97
   -1    7    3     -2.84     -9.67
   -1    7    4     -6.13      0.59
   -1    7    5     -4.81     -0.60
   -1    7    6     -1.71      0.20
   -1    7    7     -1.71      0.19
   -1    7    8     -1.01      0.53
   -1    7    9      1.61      2.10
   -1    7   10      1.04      1.46
   -1    7   11     -4.33      5.93
   -1    7   12      6.63      4.51
   -1    7   13      7.33      7.03
   -1    7   14     -1.08      3.31
    0    6   14     -4.73     -3.09
    0    6   13     -4.30      1.68
    0    6   12     -3.15      1.89
    0    6   11      0.11      1.51
    0    6   10     -0.35      0.41
    0    6    9     -0.97      1.32
    0    6    8     -1.06      0.04
    0    6    7      0.47      0.47
    0    6    6     -6.29      0.57
    0    6    5     -6.72      2.57
    0    6    4     -1.07      2.91
    0    6    3      2.35      1.44
    0    6    2      3.91     16.41
    0    6    1    -11.56     26.45
    0    6    0    -24.13     24.20
   -6    0   14      1.84     -2.80
   -6    0   13      1.78     -0.96
   -6    0   12      1.87     -0.35
   -6    0   11      0.43     -0.02
   -6    0   10      1.65      0.03
   -6    0    9      3.12      0.08
   -6    0    8      0.95     -0.20
   -6    0    7      3.29     -0.27
   -6    0    6      0.43     -0.04
   -6    0    5     -0.34     -0.21
   -6    0    4     -1.01      0.52
   -6    0    3    -12.78      0.34
   -6    0    2     -7.54      1.12
   -6    0    1     -9.35      0.31
    6    0    0      7.38      0.51
    6    0    1    -10.09      0.45
    6    0    2    -13.12      0.96
    6    0    3    -11.53      0.87
    6    0    4      1.77      0.19
    6    0    5      0.49     -0.01
    6    0    6     -1.54     -0.05
    6    0    7      1.35     -0.12
    6    0    8      3.47     -0.07
    6    0    9      2.43     -0.03
    6    0   10      3.48      0.05
    6    0   11      4.04      0.26
    6    0   12      4.05     -0.16
    6    0   13      0.00      0.03
    6    0   14      5.49     -0.10
   -7    1   14     -1.45      1.13
   -7    1   13     -4.80     -1.63
   -7    1   12     -0.13      0.97
   -7    1   11      1.81      1.38
   -7    1   10      0.06      2.59
   -7    1    9     -0.36      1.61
   -7    1    8     -2.49      0.63
   -7    1    7     -5.10     -2.51
   -7    1    6     -6.91     -4.80
   -7    1    5     -7.47     -2.46
   -7    1    4     -6.41     -1.25
   -7    1    3     -7.10     -6.39
   -7    1    2     -0.82     -2.84
   -7    1    1      8.41     -0.27
    7    1    0     11.38     -1.51
    7    1    1     10.31      1.33
    7    1    2      5.13      1.31
    7    1    3     -3.60     -7.56
    7    1    4     -1.94     -6.36
    7    1    5     -2.99     -5.52
    7    1    6      4.58     -1.59
    7    1    7      3.60     -0.63
    7    1    8      0.98     -1.70
    7    1    9      2.20      0.93
    7    1   10      2.37      4.00
    7    1   11      5.21      6.92
    7    1   12      1.22      1.55
    7    1   13      5.00      4.84
    7    1   14      7.11      5.31
   -8    2   14     -0.01     -0.84
   -8    2   13      0.19     -1.59
   -8    2   12      2.54      0.80
   -8    2   11      1.11     -1.82
   -8    2   10     -0.58      0.89
   -8    2    9      0.76      1.29
   -8    2    8     -0.86      3.31
   -8    2    7      3.31      3.87
   -8    2    6      1.50      2.80
   -8    2    5      1.06      6.05
   -8    2    4     -1.18      4.72
   -8    2    3      0.53     -3.31
   -8    2    2     -1.87      0.30
   -8    2    1      0.31      0.44
    8    2    0      3.55     -2.31
    8    2    1     -4.09     -2.76
    8    2    2     -3.86     -3.07
    8    2    3     -1.66     -0.14
    8    2    4     -1.05      3.07
    8    2    5     -0.86      3.07
    8    2    6      0.10     -0.97
    8    2    7     -0.98      0.24
    8    2    8      1.18      0.05
    8    2    9      0.94      0.74
    8    2   10      1.27      1.40
    8    2   11      0.66      0.36
    8    2   13     -1.11     -1.17
   -9    3   14     -1.56     -0.19
   -9    3   13     -0.79     -3.32
   -9    3   12     -0.54     -1.06
   -9    3   11      0.48     -0.15
   -9    3   10     -2.46      0.41
   -9    3    9     -0.82     -0.94
   -9    3    8     -2.22     -2.18
   -9    3    7     -0.96     -2.99
   -9    3    6      0.80     -3.28
   -9    3    5      0.13     -1.23
   -9    3    4      1.08     -2.33
   -9    3    3      5.57     -2.41
   -9    3    2      8.20      2.00
   -9    3    1      1.99      6.33
    9    3    0      6.33      5.50
    9    3    1      4.65      4.38
    9    3    2     -3.91      4.71
    9    3    3      0.73      1.05
    9    3    4      2.41      1.67
    9    3    5      0.31      1.15
    9    3    6      0.61      2.80
    9    3    7     -0.16      1.27
    9    3    8      1.44     -0.95
    9    3    9      0.56      0.21
    9    3   10     -2.19      1.76
    9    3   11     -2.15     -0.85
    9    3   12      0.66     -1.46
    9    3   13     -1.42      6.41
  -10    4   13      2.33     -2.30
  -10    4   12      1.44      0.95
  -10    4   11      2.88      0.37
  -10    4   10      0.54     -0.12
  -10    4    9      0.43      0.47
  -10    4    8     -1.04      0.59
  -10    4    7      0.32      1.70
  -10    4    6     -1.11      2.21
  -10    4    5     -1.94      2.11
  -10    4    4     -1.94      0.43
  -10    4    3      1.79      1.56
  -10    4    2     -0.89      1.74
  -10    4    1     -4.13      3.61
   10    4    0     -0.09      3.15
   10    4    1     -4.83      4.82
   10    4    2     -1.17      0.82
   10    4    3     -3.59     -0.95
   10    4    4     -5.15     -1.32
   10    4    5     -2.54     -0.07
   10    4    6     -1.12     -1.67
   10    4    7     -1.54     -1.77
   10    4    8      1.44     -0.16
   10    4    9     -0.29     -1.54
   10    4   10      0.03      0.07
   10    4   11      0.58     -1.70
   10    4   12     -0.38     -0.55
   10    4   13      0.04     -0.22
  -11    5   13     -0.77      0.75
  -11    5   12     -0.88     -0.24
  -11    5   11     -1.13      1.01
  -11    5   10     -0.95      0.41
  -11    5    9      0.21     -0.35
  -11    5    8      0.70     -0.45
  -11    5    7     -0.60     -0.86
  -11    5    6     -0.88      0.76
  -11    5    5     -0.90      1.84
  -11    5    4      0.06      2.71
  -11    5    3      0.48      1.88
  -11    5    2      0.57      7.80
  -11    5    1     -5.12      3.05
   11    5    0     -5.23      2.22
   11    5    1     -5.59      1.41
   11    5    2     -5.08      1.11
   11    5    3     -4.32      0.48
   11    5    4     -4.57      1.56
   11    5    5     -3.98     -0.10
   11    5    6     -3.75     -1.55
   11    5    7     -2.14      0.70
   11    5    8     -0.04     -1.54
   11    5    9     -0.36     -0.45
   11    5   10     -2.56     -2.07
   11    5   11      0.46     -3.11
   11    5   12      1.47     -0.19
   11    5   13     -4.44     -0.14
  -12    6   13      2.43     -0.19
  -12    6   12      0.72      0.10
  -12    6   11      0.52      0.75
  -12    6   10     -0.97      0.62
  -12    6    9     -0.11      0.60
  -12    6    8     -0.09      0.44
  -12    6    7      1.14      2.04
  -12    6    6      0.27     -0.56
  -12    6    5      2.49     -0.83
  -12    6    4     -0.63     -1.65
  -12    6    3     -0.80      0.15
  -12    6    2      1.19      0.34
  -12    6    1     -3.02      0.10
   12    6    0     -3.11     -0.88
   12    6    1     -3.55     -4.35
   12    6    2     -1.05      1.91
   12    6    3      0.38      0.66
   12    6    4      0.01     -2.72
   12    6    5      1.50     -0.57
   12    6    6     -0.40     -1.28
   12    6    7      0.81     -1.42
   12    6    8      1.01      0.01
   12    6    9      2.27      0.13
   12    6   10      0.69      0.94
   12    6   11      0.08      0.27
   12    6   12      1.26     -0.44
   12    6   13      0.33      0.89
  -13    7   13     -2.40      0.08
  -13    7   12     -0.94      0.23
  -13    7   11     -0.24     -0.33
  -13    7   10     -1.01      0.19
  -13    7    9      0.01     -0.37
  -13    7    8     -0.33      0.10
  -13    7    7     -1.38     -1.19
  -13    7    6     -2.36     -1.27
  -13    7    5     -2.21      0.40
  -13    7    4     -2.67     -1.05
  -13    7    3     -0.45     -3.55
  -13    7    2     -2.83     -0.10
  -13    7    1     -3.71     -4.07
   13    7    0     -3.32     -6.20
   13    7    1      0.09     -7.08
   13    7    2     -2.29     -0.84
   13    7    3     -2.93     -2.62
   13    7    4     -1.51     -2.61
   13    7    5     -0.18     -2.18
   13    7    6      1.76     -1.59
   13    7    7     -1.56     -2.22
   13    7    8      0.54     -2.78
   13    7    9      0.32     -0.85
   13    7   10     -0.38     -1.83
   13    7   11      1.22     -0.66
   13    7   12      0.12      1.12
  -14    8   12      0.62      0.47
  -14    8   11      0.65     -0.01
  -14    8   10     -0.76     -0.59
  -14    8    9     -0.14      0.08
  -14    8    8      0.83     -0.37
  -14    8    7     -0.86      0.67
  -14    8    6      0.18     -0.76
  -14    8    5      1.07      1.42
  -14    8    4      1.38     -1.34
  -14    8    3      1.02     -1.71
  -14    8    2      0.68      0.16
  -14    8    1     -2.98      1.36
   14    8    0     -0.48     -1.87
   14    8    1      3.63      1.19
   14    8    2     -1.37      1.44
   14    8    3     -3.15     -0.11
   14    8    4     -0.46     -0.22
   14    8    5      0.46      0.52
   14    8    6     -1.53     -1.37
   14    8    7     -0.21     -0.18
   14    8    8     -0.30      0.37
   14    8    9     -0.21      0.68
   14    8   10     -1.53      0.22
   14    8   11     -1.28     -0.44
   14    8   12     -0.60      0.54
  -15    9   12     -0.25     -0.44
  -15    9   11     -0.80      0.53
  -15    9   10     -0.20      1.14
  -15    9    9      0.27     -0.06
  -15    9    8      0.32      0.56
  -15    9    7     -0.19     -1.44
  -15    9    6     -0.33      0.01
  -15    9    5     -0.21     -1.25
  -15    9    4     -1.65     -1.96
  -15    9    3      0.30     -1.48
  -15    9    2     -0.10     -1.02
  -15    9    1      2.73      0.16
   15    9    0      3.55     -3.18
   15    9    1      2.70     -2.03
   15    9    2     -0.85      0.36
   15    9    3     -0.22     -1.93
   15    9    4      1.10      0.74
   15    9    5      1.20     -0.12
   15    9    6     -0.53      1.84
   15    9    7      1.32     -1.55
   15    9    8      1.83     -1.35
   15    9    9      1.96      0.19
   15    9   10      0.09     -0.85
   15    9   11     -0.21      0.89
  -16   10   11     -0.03      0.15
  -16   10   10     -0.48     -0.70
  -16   10    9     -0.10     -0.26
  -16   10    8      1.48      0.60
  -16   10    7      0.33     -0.23
  -16   10    6      0.78     -0.15
  -16   10    5      1.33     -0.32
  -16   10    4      2.17      0.10
  -16   10    3      0.55     -1.66
  -16   10    2      0.79     -1.46
  -16   10    1     -1.23     -1.16
   16   10    0     -0.19     -0.82
   16   10    1     -0.45      1.65
   16   10    2      0.45     -0.19
   16   10    3      0.36     -0.68
   16   10    4      0.04     -0.54
   16   10    5      0.92     -1.07
   16   10    6      0.20     -1.66
   16   10    7     -0.59     -1.99
   16   10    8     -0.95     -1.56
   16   10    9      1.30      0.15
   16   10   10      1.54      0.63
   16   10   11     -0.33      0.22
  -17   11   11     -0.58      0.41
  -17   11   10     -0.13      0.78
  -17   11    9     -0.28      0.22
  -17   11    8      0.26      0.13
  -17   11    7      0.93     -0.55
  -17   11    6     -0.28      1.02
  -17   11    5      0.96     -0.50
  -17   11    4     -0.85     -0.96
  -17   11    3     -0.48     -3.33
  -17   11    2     -1.33     -0.91
  -17   11    1     -0.48      5.11
   17   11    0     -0.22      1.64
   17   11    1      0.47     -1.00
   17   11    2     -0.76     -0.59
   17   11    3     -0.64     -0.45
   17   11    4     -1.25     -0.39
   17   11    5     -1.66     -0.58
   17   11    6     -1.36     -0.21
   17   11    7     -0.20      0.96
   17   11    8      0.60      0.92
   17   11    9      1.60      1.33
   17   11   10     -0.49     -1.00
  -18   12   10     -0.01     -1.27
  -18   12    9      0.37     -0.94
  -18   12    8     -0.39     -0.14
  -18   12    7     -0.25      1.05
  -18   12    6      0.39      0.21
  -18   12    5      0.50      0.32
  -18   12    4     -0.03      1.41
  -18   12    3      0.06     -1.38
  -18   12    2      0.35      0.30
  -18   12    1      0.36      2.48
   18   12    0     -0.25      0.27
   18   12    1      2.25      2.25
   18   12    2      1.25      2.13
   18   12    3      0.03      1.37
   18   12    4      0.47     -0.57
   18   12    5      1.36      0.32
   18   12    6      0.94      0.51
   18   12    7      0.67     -1.82
   18   12    8      1.24     -1.01
   18   12    9      0.18      0.01
   18   12   10     -3.13      3.16
  -19   13   10     -1.27      1.60
  -19   13    9     -1.47     -0.34
  -19   13    8     -0.86      0.27
  -19   13    7      0.28      0.20
  -19   13    6     -0.55      0.68
  -19   13    5      1.55      0.30
  -19   13    4     -0.13     -1.60
  -19   13    3      2.47     -1.16
  -19   13    2      2.60     -0.93
  -19   13    1     -2.08      0.89
   19   13    0     -0.29     -0.84
   19   13    1      2.08     -1.19
   19   13    2      1.69     -0.86
   19   13    3      0.74     -0.83
   19   13    4      1.37     -1.42
   19   13    5     -0.76     -2.53
   19   13    6     -0.96     -0.49
   19   13    7     -3.12     -0.43
   19   13    8      0.09     -0.41
   19   13    9      0.06     -0.36
  -20   14    9      0.87     -0.61
  -20   14    8     -0.15     -0.31
  -20   14    7     -0.71      0.73
  -20   14    6     -0.45      0.53
  -20   14    5      0.51      0.82
  -20   14    4      0.89     -0.37
  -20   14    3      0.73     -2.07
  -20   14    2     -0.20     -2.09
  -20   14    1     -2.65     -0.63
   20   14    0     -0.90     -2.05
   20   14    1     -2.05      2.29
   20   14    2     -0.32      0.99
   20   14    3      1.61     -0.68
   20   14    4      0.54     -0.96
   20   14    5      1.13      0.36
   20   14    6      0.24     -0.46
   20   14    7      0.84     -0.72
   20   14    8      1.56      0.18
  -21   15    8     -0.51     -1.18
  -21   15    7      1.05     -1.75
  -21   15    6     -0.61     -0.52
  -21   15    5     -0.63      0.97
  -21   15    4      1.13      1.06
  -21   15    3      1.65      1.92
  -21   15    2      0.08      2.12
  -21   15    1     -0.11      1.36
   21   15    0      2.09      1.10
   21   15    1      0.80      0.51
   21   15    2      1.03      1.95
   21   15    3      0.37      0.45
   21   15    4     -0.17      0.70
   21   15    5     -0.57     -1.49
   21   15    6     -1.81     -0.60
   21   15    7     -0.64     -1.80
  -22   16    7     -1.02     -0.82
  -22   16    6     -1.22     -0.15
  -22   16    5      0.19      1.12
  -22   16    4      1.11     -0.06
  -22   16    3      1.00      0.07
  -22   16    2      1.47     -1.59
  -22   16    1      0.54     -2.03
   22   16    0      2.85     -2.61
   22   16    1     -1.36     -1.68
   22   16    2      0.08      1.80
   22   16    3      2.21      1.38
   22   16    4      1.03     -0.56
   22   16    5     -0.06      0.88
   22   16    6      1.37      1.21
  -23   17    5      0.37     -0.49
  -23   17    4     -1.01     -0.03
  -23   17    3     -1.30      1.35
  -23   17    2     -0.60     -0.64
  -23   17    1     -0.30      0.11
   23   17    0     -0.79      1.64
   23   17    1     -0.39     -0.22
   23   17    2     -0.54      0.13
   23   17    3      0.02     -1.30
   23   17    4     -0.89     -1.20
   23   17    5     -0.76     -1.55
  -24   18    3      0.49     -0.06
  -24   18    2      0.70     -0.63
  -24   18    1      0.07      0.84
   24   18    0      1.89      1.03
   24   18    1      0.35      0.09
   24   18    2     -2.61      0.70
   24   18    3     -0.55     -0.22
   17   25    3      1.53     -3.41
   17   25    2      1.32     -1.72
   17   25    1      0.00     -0.56
   17   25    0      0.21     -0.72
  -17   25    1     -1.40      0.99
  -17   25    2      0.04     -0.88
  -17   25    3      0.38     -0.16
   16   24    5     -0.84      1.12
   16   24    4     -1.07     -0.46
   16   24    3     -2.76     -1.08
   16   24    2     -0.40     -0.03
   16   24    1     -1.12      0.61
   16   24    0     -1.25     -0.66
  -16   24    1     -0.50     -1.95
  -16   24    2     -1.65     -1.95
  -16   24    3     -0.89     -1.94
  -16   24    4     -0.35     -0.44
  -16   24    5      1.38     -1.33
   15   23    6      1.40     -0.20
   15   23    5      1.80     -2.03
   15   23    4      0.32     -2.71
   15   23    3      0.12     -1.74
   15   23    2      0.22     -0.47
   15   23    1     -0.77     -0.59
   15   23    0     -0.01     -1.59
  -15   23    1      0.27      1.08
  -15   23    2     -0.92     -2.03
  -15   23    3     -1.58      0.44
  -15   23    4     -0.83      2.43
  -15   23    5     -1.46      1.50
  -15   23    6      0.65      1.55
  -15   23    7      2.11     -0.30
   14   22    7     -0.54      1.18
   14   22    6     -0.89     -0.17
   14   22    5     -0.10     -1.23
   14   22    4     -0.31     -1.43
   14   22    3     -0.07      0.43
   14   22    2      1.31     -0.81
   14   22    1      0.00     -0.12
   14   22    0      0.10     -1.12
  -14   22    1     -0.42      0.25
  -14   22    2     -2.04      0.86
  -14   22    3     -1.43     -0.10
  -14   22    4     -0.40     -0.61
  -14   22    5     -1.02     -1.62
  -14   22    6      0.80     -0.14
  -14   22    7      1.04      0.11
  -14   22    8      0.23      0.46
   13   21    8      0.49     -0.59
   13   21    7      1.56      0.50
   13   21    6      2.10     -0.17
   13   21    5      1.36     -0.78
   13   21    4      1.15     -0.97
   13   21    3      0.85     -0.64
   13   21    2      0.52     -0.81
   13   21    1      0.32      1.03
   13   21    0     -0.26     -0.99
  -13   21    1      0.77     -0.67
  -13   21    2     -2.12      0.06
  -13   21    3     -0.29      2.39
  -13   21    4      2.17      1.27
  -13   21    5     -0.73      2.71
  -13   21    6      0.44      1.37
  -13   21    7      0.33     -0.84
  -13   21    8     -1.40      0.15
  -13   21    9     -0.32     -0.68
   12   20    9     -0.26     -1.09
   12   20    8     -0.64     -0.15
   12   20    7     -0.72      0.49
   12   20    6     -1.59      1.19
   12   20    5     -1.50     -0.05
   12   20    4      0.34     -0.16
   12   20    3      1.40     -0.19
   12   20    2      0.62     -2.11
   12   20    1      0.86     -0.71
   12   20    0     -0.36     -1.22
  -12   20    1      2.25     -0.50
  -12   20    2     -0.55     -0.20
  -12   20    3     -1.13     -0.55
  -12   20    4     -1.64     -1.43
  -12   20    5     -1.11      0.88
  -12   20    6      0.41      0.64
  -12   20    7      1.30     -0.13
  -12   20    8      0.81     -1.25
  -12   20    9      1.43     -1.97
   11   19   10     -0.85     -1.48
   11   19    9     -1.35      1.80
   11   19    8     -0.28     -0.68
   11   19    7      1.27     -0.19
   11   19    6      1.28     -1.67
   11   19    5      1.68     -2.46
   11   19    4     -0.32     -1.79
   11   19    3     -0.69      0.46
   11   19    2      0.01     -0.16
   11   19    1      1.68      0.45
   11   19    0     -0.81     -0.09
  -11   19    1     -2.64     -0.33
  -11   19    2     -0.11     -0.24
  -11   19    3      1.05      1.05
  -11   19    4      0.46     -0.19
  -11   19    5      0.96      2.30
  -11   19    6      1.43      1.91
  -11   19    7     -0.28      0.46
  -11   19    8      0.39      0.54
  -11   19    9      0.96     -1.23
  -11   19   10     -0.46      0.41
   10   18   10     -1.00     -2.32
   10   18    9     -0.02     -0.28
   10   18    8     -0.59      0.08
   10   18    7     -0.71      1.59
   10   18    6      0.43      1.75
   10   18    5      0.75     -1.27
   10   18    4      3.13     -2.36
   10   18    3      0.40     -1.99
   10   18    2      0.05     -2.41
   10   18    1      0.24     -3.75
   10   18    0     -0.45     -1.28
  -10   18    1     -0.17     -2.70
  -10   18    2     -2.84     -1.61
  -10   18    3     -0.93     -0.44
  -10   18    4     -4.06      0.78
  -10   18    5     -0.74     -0.05
  -10   18    6      0.69      0.46
  -10   18    7      1.80      0.45
  -10   18    8      1.13      0.77
  -10   18    9      0.23     -0.78
  -10   18   10     -0.81      0.37
  -10   18   11      0.15     -0.73
    9   17   11      0.91      0.31
    9   17   10     -1.02      1.07
    9   17    9      0.79      0.78
    9   17    8      0.51     -0.30
    9   17    7      1.88     -0.32
    9   17    6      0.06     -1.20
    9   17    5     -0.45     -0.73
    9   17    4     -1.94      0.41
    9   17    3     -0.22      0.25
    9   17    2     -0.75     -1.93
    9   17    1     -0.38     -1.09
    9   17    0     -1.52     -0.47
   -9   17    1     -3.12      1.75
   -9   17    2     -1.83     -1.86
   -9   17    3     -1.47      0.52
   -9   17    4      1.02     -0.54
   -9   17    5      1.21      0.85
   -9   17    6      1.53      0.13
   -9   17    7      1.34     -0.37
   -9   17    8      0.42     -1.04
   -9   17    9     -1.78     -1.25
   -9   17   10     -2.02      0.08
   -9   17   11      1.41     -3.22
    8   16   11     -1.42      1.51
    8   16   10     -2.95      1.95
    8   16    9      3.13      1.06
    8   16    8      0.54      1.04
    8   16    7     -1.38     -0.07
    8   16    6     -1.27     -0.40
    8   16    5     -2.30     -1.18
    8   16    4     -1.75     -2.67
    8   16    3     -1.81     -0.01
    8   16    2     -0.29     -3.28
    8   16    1     -3.46     -2.17
    8   16    0     -1.16      0.91
   -8   16    1     -1.41     -1.27
   -8   16    2     -2.22      0.46
   -8   16    3     -1.68     -1.36
   -8   16    4     -2.52      1.23
   -8   16    5     -1.84      0.44
   -8   16    6     -0.82      1.17
   -8   16    7      1.56     -0.84
   -8   16    8      2.40     -2.43
   -8   16    9     -0.50     -1.24
   -8   16   10     -0.04     -0.41
   -8   16   11     -1.36      1.02
   -8   16   12      0.41      1.38
    7   15   12     -0.50      0.73
    7   15   11      2.36      0.72
    7   15   10      2.20     -0.29
    7   15    9      1.56      0.74
    7   15    8      2.01      0.15
    7   15    7      0.31     -3.05
    7   15    6     -1.85      0.51
    7   15    5      0.18     -0.23
    7   15    4     -1.43      0.00
    7   15    3     -4.31      0.37
    7   15    2     -3.79      0.52
    7   15    1     -1.04      2.87
    7   15    0     -3.67      1.96
   -7   15    1     -1.73      5.47
   -7   15    2     -1.95      2.34
   -7   15    3      2.11      6.27
   -7   15    4     -0.85      1.55
   -7   15    5      1.73     -0.33
   -7   15    6      2.51      1.14
   -7   15    7     -0.24     -0.36
   -7   15    8      0.55     -0.25
   -7   15    9     -1.01      1.52
   -7   15   10      0.08      0.08
   -7   15   11     -0.38     -1.09
   -7   15   12     -0.18      0.42
    6   14   12      3.11      0.15
    6   14   11      0.98      0.02
    6   14   10     -0.24      0.97
    6   14    9      6.66     -7.01
    6   14    8      0.67     -0.88
    6   14    7     -3.93      1.01
    6   14    6     -2.08      3.70
    6   14    5     -2.23      2.16
    6   14    4     -0.92      1.77
    6   14    3      0.14      1.30
    6   14    2     -4.05     -0.54
    6   14    1     -1.78      2.34
    6   14    0      5.87      1.05
   -6   14    1      1.96      0.07
   -6   14    2     -0.85     -1.58
   -6   14    3      0.00     -3.51
   -6   14    4     -0.73     -0.83
   -6   14    5      1.22      0.03
   -6   14    6      2.07      0.76
   -6   14    7      1.54     -2.12
   -6   14    8     -0.57     -1.35
   -6   14    9     -1.10      2.89
   -6   14   10     -1.41     -0.15
   -6   14   11      0.36      1.24
   -6   14   12     -1.07      3.15
    5   13   13     -0.21     -2.33
    5   13   12      0.33     -0.25
    5   13   11      3.17     -2.89
    5   13   10     -2.05     -3.90
    5   13    9      0.19     -4.05
    5   13    8      1.65     -3.15
    5   13    7     -5.71     -1.75
    5   13    6     -0.50      1.54
    5   13    5     -0.76     -1.21
    5   13    4     -1.43     -0.14
    5   13    3     -1.55      4.37
    5   13    2      1.04      1.90
    5   13    1      1.76      0.60
    5   13    0     -0.55      2.33
   -5   13    1      3.84      1.84
   -5   13    2      1.91      3.98
   -5   13    3      4.99      1.39
   -5   13    4      3.24      0.08
   -5   13    5      2.71     -1.34
   -5   13    6      0.87      0.66
   -5   13    7      1.13     -0.99
   -5   13    8      3.10     -1.74
   -5   13    9      2.11     -0.50
   -5   13   10      1.13     -1.30
   -5   13   11      3.27     -1.67
   -5   13   12      3.39     -0.55
   -5   13   13      4.03     -1.99
    4   12   13     -9.06     -7.22
    4   12   12     -1.47     -3.50
    4   12   11     -3.24     -0.08
    4   12   10     -1.31      1.15
    4   12    9     -2.51     -7.52
    4   12    8     -2.28     -0.07
    4   12    7     -2.28      3.98
    4   12    6     -0.59      1.51
    4   12    5      0.04      0.56
    4   12    4      0.63      1.39
    4   12    3      0.64      0.36
    4   12    2      0.04      5.31
    4   12    1      5.70      0.39
    4   12    0      7.94     -5.44
   -4   12    1      0.72     -7.34
   -4   12    2     -3.81     -2.49
   -4   12    3     -5.00     -4.12
   -4   12    4     -1.00     -2.08
   -4   12    5      0.21     -0.62
   -4   12    6     -0.85     -0.67
   -4   12    7     -2.27     -1.18
   -4   12    8      0.06      0.21
   -4   12    9      2.78      1.67
   -4   12   10      0.15     -0.02
   -4   12   11     -0.99      2.55
   -4   12   12      1.67      3.02
   -4   12   13      7.47      7.44
    3   11   13     -3.13     -1.76
    3   11   12     -2.82      2.52
    3   11   11     -2.09     -2.80
    3   11   10     -2.74      0.48
    3   11    9     -2.04      1.21
    3   11    8     -1.75      0.37
    3   11    7     -2.48      3.26
    3   11    6      0.79      0.32
    3   11    5     -1.55     -1.53
    3   11    4      1.50     -3.91
    3   11    3      2.04      0.74
    3   11    2     -3.12     -5.68
    3   11    1     -3.14     -3.07
    3   11    0     -1.55     -0.96
   -3   11    1     -6.79     -1.56
   -3   11    2      1.03      1.91
   -3   11    3      3.62      1.17
   -3   11    4     -0.32     -0.95
   -3   11    5     -3.52     -1.90
   -3   11    6      1.08      3.23
   -3   11    7     -0.33      0.54
   -3   11    8      1.28     -1.98
   -3   11    9     -1.13     -0.39
   -3   11   10     -0.09     -2.96
   -3   11   11      1.77     -6.95
   -3   11   12     -0.63     -4.96
   -3   11   13     -3.84     -8.38
    2   10   13     -3.02      0.80
    2   10   12     -1.26      0.23
    2   10   11     -0.19      4.01
    2   10   10      2.66     -0.92
    2   10    9      2.26     -3.81
    2   10    8      1.00      1.69
    2   10    7      0.47      0.19
    2   10    6     -1.49     -0.45
    2   10    5     -3.44     -1.38
    2   10    4     -2.44     -2.56
    2   10    3      0.68     -4.22
    2   10    2      1.97     -1.64
    2   10    1      0.32    -13.47
    2   10    0      1.00    -20.32
   -2   10    1     -8.49    -12.72
   -2   10    2     -7.49      0.59
   -2   10    3     -2.29     -0.11
   -2   10    4     -2.15     -1.26
   -2   10    5     -1.81      0.59
   -2   10    6     -1.00      0.93
   -2   10    7      0.11      1.61
   -2   10    8      1.72      0.13
   -2   10    9      3.77     -0.29
   -2   10   10      0.51      0.03
   -2   10   11      3.06      2.18
   -2   10   12      3.18     -0.13
   -2   10   13      7.28     -4.75
    1    9   13     -2.84      7.61
    1    9   12      1.19      6.46
    1    9   11      0.00      0.03
    1    9   10      1.18      2.61
    1    9    9      1.03      1.13
    1    9    8      1.44      0.00
    1    9    7      0.87     -0.65
    1    9    6     -0.05     -0.84
    1    9    5     -1.99     -2.09
    1    9    4     -3.78     -7.06
    1    9    3      5.05     -5.23
    1    9    2     -3.26      4.92
    1    9    1     -9.23     10.40
    1    9    0     -9.32      0.31
   -1    9    1     -8.16     14.53
   -1    9    2      0.68      5.16
   -1    9    3      4.83     -3.14
   -1    9    4     -3.03     -2.60
   -1    9    5     -1.82      1.89
   -1    9    6      1.59      2.25
   -1    9    7      1.66      0.44
   -1    9    8     -0.31     -0.41
   -1    9    9     -0.97      0.95
   -1    9   10     -0.73      0.03
   -1    9   11     -5.57     -3.34
   -1    9   12     -3.39      3.25
   -1    9   13     -7.44      7.35
   -1    9   14     -5.91     -2.40
    0    8   14     -1.23     -4.19
    0    8   13     -1.49     -1.24
    0    8   12     -0.92     -0.49
    0    8   11      2.62      0.76
    0    8   10      0.94     -2.40
    0    8    9     -1.14     -3.86
    0    8    8     -0.49     -0.67
    0    8    7     -0.86      1.14
    0    8    6     -2.79      0.30
    0    8    5     -3.91      1.13
    0    8    4     -4.20      0.56
    0    8    3     -0.63     -4.66
    0    8    2     -3.64      1.82
    0    8    1    -20.34     -9.53
    0    8    0    -25.87    -19.39
   -8    0   14      0.21     -1.33
   -8    0   13     -0.52     -0.32
   -8    0   12      3.42     -0.01
   -8    0   11     -0.14      0.37
   -8    0   10      0.91      0.19
   -8    0    9     -0.02      0.22
   -8    0    8     -0.95      0.04
   -8    0    7      0.51      0.14
   -8    0    6     -2.02     -0.11
   -8    0    5      2.38     -0.21
   -8    0    4      4.79     -0.17
   -8    0    3      2.03     -0.37
   -8    0    1     11.19     -0.17
    8    0    0     13.93      0.13
    8    0    1      5.45      0.09
    8    0    2      1.65     -0.11
    8    0    3      0.41     -0.11
    8    0    4      1.67     -0.02
    8    0    5     -0.08      0.07
    8    0    6     -1.69      0.07
    8    0    7      0.04      0.14
    8    0    8      0.92      0.08
    8    0    9      0.33      0.09
    8    0   10      0.79      0.06
    8    0   11      0.42      0.20
    8    0   12     -2.28     -0.14
    8    0   13     -5.72     -0.16
    8    0   14     -3.76     -0.14
   -9    1   14     -0.15      0.68
   -9    1   13     -2.95     -1.50
   -9    1   12      0.06     -0.56
   -9    1   11      0.96     -0.27
   -9    1   10      0.45      1.31
   -9    1    9     -0.79     -0.09
   -9    1    8     -2.70      0.44
   -9    1    7     -4.11     -1.17
   -9    1    6     -4.63     -2.55
   -9    1    5     -3.69     -1.35
   -9    1    4     -0.71     -0.48
   -9    1    3     -0.90     -2.89
   -9    1    2      0.37     -0.60
   -9    1    1      3.59      5.38
    9    1    0      1.31      2.39
    9    1    1     -2.97      2.55
    9    1    2     -3.23      5.67
    9    1    3     -5.37     -1.18
    9    1    4     -4.25     -1.75
    9    1    5     -4.70     -0.83
    9    1    6      0.28      2.14
    9    1    7      0.37      2.88
    9    1    8     -0.84     -0.02
    9    1    9      1.53     -0.39
    9    1   10      4.43      1.08
    9    1   11      4.54      1.01
    9    1   12      0.93     -2.00
    9    1   13      4.62      2.33
  -10    2   13     -1.61     -2.15
  -10    2   12      1.09      1.14
  -10    2   11     -0.79     -0.85
  -10    2   10     -2.07      0.67
  -10    2    9     -0.96      0.28
  -10    2    8     -1.56      0.37
  -10    2    7      0.67     -1.07
  -10    2    6     -0.13     -1.18
  -10    2    5     -0.62      2.05
  -10    2    4     -2.37      1.34
  -10    2    3      0.18     -0.91
  -10    2    2     -1.17      2.48
  -10    2    1      0.32      4.39
   10    2    0      4.30      1.85
   10    2    1      0.32      2.96
   10    2    2     -1.99      0.71
   10    2    3     -1.12      0.79
   10    2    4     -1.22      0.98
   10    2    5     -0.39     -0.19
   10    2    6     -0.68     -1.72
   10    2    7     -1.40      0.25
   10    2    8      0.40     -1.48
   10    2    9     -0.40      0.31
   10    2   10      0.84     -0.73
   10    2   11     -0.29     -1.31
   10    2   12      0.28     -1.93
   10    2   13     -0.31     -2.69
  -11    3   13     -0.54      0.07
  -11    3   12     -0.11      0.47
  -11    3   11      0.81     -0.14
  -11    3   10     -1.17     -0.73
  -11    3    9     -0.08     -1.73
  -11    3    8     -1.62     -2.71
  -11    3    7     -2.22     -2.36
  -11    3    6     -0.56     -0.70
  -11    3    5     -1.07     -0.01
  -11    3    4      0.12     -1.04
  -11    3    3      0.20     -1.50
  -11    3    2      2.14      1.30
  -11    3    1     -2.45      2.31
   11    3    0     -0.34      0.84
   11    3    1      0.17     -0.97
   11    3    2     -3.35     -0.62
   11    3    3      0.03     -0.04
   11    3    4      2.12      0.95
   11    3    5     -0.43      1.50
   11    3    6     -1.22      2.55
   11    3    7      0.10      1.31
   11    3    8      0.33     -0.23
   11    3    9      2.34      0.15
   11    3   10     -0.65      2.42
   11    3   11     -0.80      0.01
   11    3   12      0.74     -1.52
   11    3   13     -2.23      3.43
  -12    4   13      0.72     -2.32
  -12    4   12      0.14     -0.92
  -12    4   11      0.37     -1.20
  -12    4   10     -0.97     -0.89
  -12    4    9     -0.56     -0.40
  -12    4    8     -0.39     -0.43
  -12    4    7      2.73     -0.58
  -12    4    6      0.81     -1.26
  -12    4    5     -0.18     -2.61
  -12    4    4     -0.27     -3.00
  -12    4    3      2.72     -0.58
  -12    4    2      2.86     -1.47
  -12    4    1      1.01      0.19
   12    4    0      1.96      2.44
   12    4    1     -2.12      3.02
   12    4    2      1.01     -0.24
   12    4    3      0.51     -1.61
   12    4    4     -1.24     -0.34
   12    4    5      0.34     -0.56
   12    4    6     -0.22     -0.47
   12    4    7     -1.70     -1.11
   12    4    8      0.74      0.35
   12    4    9     -0.52     -0.72
   12    4   10     -0.45      0.90
   12    4   11     -0.02      0.64
   12    4   12     -1.28      0.21
   12    4   13     -1.50      1.86
  -13    5   13     -1.71      1.01
  -13    5   12     -0.26     -0.15
  -13    5   11     -0.11      0.04
  -13    5   10      0.36      0.62
  -13    5    9      0.10     -0.39
  -13    5    8      0.16     -0.10
  -13    5    7     -0.75     -0.42
  -13    5    6     -1.67      0.54
  -13    5    5      0.58      0.19
  -13    5    4      0.27     -1.01
  -13    5    3      0.78     -3.14
  -13    5    2      2.19      0.42
  -13    5    1     -1.30     -1.51
   13    5    0     -0.88     -0.16
   13    5    1     -2.22     -0.64
   13    5    2      0.35      1.15
   13    5    3     -0.53      2.13
   13    5    4     -2.16      3.91
   13    5    5     -2.21      2.11
   13    5    6     -2.43     -0.22
   13    5    7     -1.90      3.82
   13    5    8     -1.52      1.08
   13    5    9      0.33      1.95
   13    5   10     -2.15      0.74
   13    5   11     -0.15     -0.92
   13    5   12      0.73     -0.45
  -14    6   12      0.69     -0.51
  -14    6   11      0.33     -0.46
  -14    6   10     -1.40     -0.15
  -14    6    9     -0.72     -0.54
  -14    6    8     -0.47     -0.15
  -14    6    7      0.36      1.40
  -14    6    6      0.12     -1.04
  -14    6    5      2.91     -1.44
  -14    6    4      1.25     -3.60
  -14    6    3      1.17     -1.72
  -14    6    2      3.36     -0.23
  -14    6    1      0.36      1.43
   14    6    0     -1.52      0.23
   14    6    1     -0.16     -2.84
   14    6    2      0.12      2.62
   14    6    3      0.59      3.11
   14    6    4     -1.34      1.71
   14    6    5      1.07      0.84
   14    6    6     -1.81      0.00
   14    6    7     -0.73     -0.77
   14    6    8     -0.76     -1.05
   14    6    9     -0.76     -1.10
   14    6   10     -1.70     -0.15
   14    6   11     -2.41     -0.37
   14    6   12     -2.04     -0.93
  -15    7   12      0.51      0.21
  -15    7   11      0.52      0.83
  -15    7   10      0.20      1.03
  -15    7    9     -0.33     -0.13
  -15    7    8      0.07      0.33
  -15    7    7     -2.11     -1.36
  -15    7    6     -1.40     -0.93
  -15    7    5     -0.53      0.99
  -15    7    4     -0.77      0.00
  -15    7    3      1.65     -1.11
  -15    7    2      0.50      1.83
  -15    7    1      0.94     -0.39
   15    7    0     -1.01     -1.94
   15    7    1     -0.65     -2.67
   15    7    2      1.27      1.93
   15    7    3     -1.85     -0.05
   15    7    4     -0.98     -1.06
   15    7    5     -0.83     -1.32
   15    7    6      0.43      0.89
   15    7    7     -2.90     -0.64
   15    7    8     -2.34     -1.74
   15    7    9     -0.04      1.06
   15    7   10     -1.31     -0.23
   15    7   11     -0.23      0.29
   15    7   12      0.26      1.13
  -16    8   12      0.35     -0.84
  -16    8   11      0.14     -0.26
  -16    8   10     -1.35     -0.66
  -16    8    9     -0.05      0.03
  -16    8    8      0.94     -0.54
  -16    8    7     -0.84     -0.70
  -16    8    6      0.26     -0.99
  -16    8    5      0.62     -0.16
  -16    8    4      2.84     -1.21
  -16    8    3      2.11     -1.60
  -16    8    2      1.20     -1.02
  -16    8    1     -0.31      1.18
   16    8    0      0.86     -1.86
   16    8    1      3.33      0.93
   16    8    2     -0.03      0.28
   16    8    3     -2.48      0.22
   16    8    4     -2.56     -0.12
   16    8    5     -1.12     -0.20
   16    8    6     -1.80     -0.48
   16    8    7     -1.30     -1.22
   16    8    8     -1.34     -1.23
   16    8    9      1.43     -0.86
   16    8   10      0.61     -1.56
   16    8   11      0.17     -1.00
  -17    9   11     -0.94      0.03
  -17    9   10     -0.66      1.40
  -17    9    9     -0.79      0.21
  -17    9    8     -0.79     -0.14
  -17    9    7      0.18     -2.00
  -17    9    6      1.12      0.10
  -17    9    5      1.27     -1.48
  -17    9    4     -0.60     -1.38
  -17    9    3     -2.03     -1.24
  -17    9    2     -1.21     -0.04
  -17    9    1      2.32      1.28
   17    9    0      1.39     -0.58
   17    9    1      0.94     -1.08
   17    9    2      0.79      2.09
   17    9    3      0.32     -0.19
   17    9    4      1.54      0.98
   17    9    5     -0.18      0.21
   17    9    6     -1.86      1.95
   17    9    7     -1.06     -1.06
   17    9    8     -0.37     -0.80
   17    9    9      0.94      0.14
   17    9   10     -1.01     -0.56
   17    9   11     -0.51      0.56
  -18   10   11     -0.97      0.32
  -18   10   10     -1.32     -0.46
  -18   10    9     -0.78     -0.82
  -18   10    8     -0.05      0.16
  -18   10    7      0.65      0.11
  -18   10    6      0.70      0.36
  -18   10    5      1.45     -0.48
  -18   10    4      1.94      0.35
  -18   10    3     -0.24     -1.20
  -18   10    2      2.64     -0.31
  -18   10    1      1.77      0.70
   18   10    0      0.81      0.59
   18   10    1      2.18      1.43
   18   10    2      2.16      0.57
   18   10    3      0.40      0.75
   18   10    4     -1.12     -0.79
   18   10    5      0.31     -1.20
   18   10    6     -0.11     -1.70
   18   10    7     -1.84     -2.58
   18   10    8     -0.42     -2.32
   18   10    9      0.61      0.56
   18   10   10      0.93      2.90
  -19   11   10      0.69      0.40
  -19   11    9     -0.94     -1.24
  -19   11    8      0.49     -1.41
  -19   11    7      0.88     -0.30
  -19   11    6      0.40      1.02
  -19   11    5      2.25      0.31
  -19   11    4     -0.18      1.29
  -19   11    3      1.18     -2.81
  -19   11    2      1.12     -1.00
  -19   11    1      0.56      3.97
   19   11    0      0.39      1.62
   19   11    1      1.22     -0.21
   19   11    2      0.57      1.37
   19   11    3      0.26      1.43
   19   11    4     -0.99      0.37
   19   11    5     -1.99     -0.69
   19   11    6     -2.66     -0.52
   19   11    7     -2.60      0.12
   19   11    8     -0.54     -0.35
   19   11    9      0.24      0.19
   19   11   10     -0.58     -0.49
  -20   12    9     -0.01     -1.03
  -20   12    8      0.31      0.13
  -20   12    7      0.49      1.65
  -20   12    6      0.58      0.97
  -20   12    5      1.31     -0.02
  -20   12    4      0.91      0.32
  -20   12    3      0.34     -1.98
  -20   12    2      0.58      0.28
  -20   12    1      0.15      2.80
   20   12    0     -0.95      0.42
   20   12    1      0.57      3.21
   20   12    2      0.19      2.44
   20   12    3     -1.38      0.18
   20   12    4     -1.92     -1.06
   20   12    5     -0.18     -0.76
   20   12    6     -0.29      0.34
   20   12    7      0.05     -1.21
   20   12    8      1.35     -0.65
   20   12    9      0.15      0.04
  -21   13    9     -0.06      0.92
  -21   13    8      0.52      0.72
  -21   13    7     -0.68     -0.72
  -21   13    6     -0.97     -0.61
  -21   13    5      0.24      0.69
  -21   13    4     -0.54     -1.29
  -21   13    3      1.54     -1.63
  -21   13    2      1.05      0.41
  -21   13    1     -0.60      0.97
   21   13    0      0.86     -0.26
   21   13    1      0.37      0.40
   21   13    2      0.91      0.76
   21   13    3     -0.13      0.96
   21   13    4      0.47     -0.78
   21   13    5     -1.12     -1.81
   21   13    6     -1.05     -0.26
   21   13    7     -1.30     -1.61
   21   13    8      0.57     -1.18
  -22   14    8     -1.41     -0.39
  -22   14    7     -2.15      0.57
  -22   14    6     -1.72      0.71
  -22   14    5      0.87      1.09
  -22   14    4      1.50      0.76
  -22   14    3      1.25     -0.40
  -22   14    2      0.70     -0.41
  -22   14    1     -1.63      0.94
   22   14    0     -1.25     -1.80
   22   14    1     -2.55      1.05
   22   14    2      0.43      0.22
   22   14    3      1.41     -1.65
   22   14    4     -1.04     -2.13
   22   14    5      0.40     -0.66
   22   14    6      0.47     -1.51
   22   14    7     -0.99     -1.21
  -23   15    7      0.31     -1.45
  -23   15    6      0.45     -0.58
  -23   15    5      0.10     -0.34
  -23   15    4      0.63      0.17
  -23   15    3      2.13      0.27
  -23   15    2      0.24     -0.52
  -23   15    1     -0.51      0.59
   23   15    0      2.21      1.68
   23   15    1     -1.00      0.30
   23   15    2      0.64      1.70
   23   15    3     -0.02      0.87
   23   15    4     -0.39      1.00
   23   15    5      0.04     -0.40
   23   15    6     -1.07      0.05
  -24   16    5      1.84      0.77
  -24   16    4      1.06     -0.60
  -24   16    3     -0.35      0.04
  -24   16    2     -0.54     -1.03
  -24   16    1     -1.47     -0.32
   24   16    0      1.30     -1.40
   24   16    1     -1.38     -1.58
   24   16    2     -0.55      2.54
   24   16    3      0.27      0.88
   24   16    4     -0.65     -1.21
   24   16    5     -0.49     -1.42
  -25   17    3     -0.13      1.17
  -25   17    2      0.24      1.03
  -25   17    1      0.74     -0.04
   25   17    0     -0.74      2.50
   25   17    1     -2.30      1.31
   25   17    2     -0.27      1.50
   16   26    2     -1.07     -1.01
   16   26    1     -2.85      0.45
   16   26    0     -1.93     -1.00
  -16   26    1      0.52     -0.73
  -16   26    2      0.41     -0.29
  -16   26    3      0.38     -0.54
   15   25    4      0.64      1.38
   15   25    3     -1.13     -1.15
   15   25    2     -1.66     -0.31
   15   25    1     -1.70     -0.46
   15   25    0     -0.54     -0.30
  -15   25    1     -1.06      0.98
  -15   25    2      1.17     -0.72
  -15   25    3     -0.25      0.09
  -15   25    4     -2.43      0.28
  -15   25    5     -0.66     -0.60
   14   24    6     -1.70      0.21
   14   24    5     -0.40      0.90
   14   24    4      1.38     -1.15
   14   24    3     -0.50     -2.15
   14   24    2     -0.16      0.15
   14   24    1     -0.14      0.99
   14   24    0      0.36     -0.39
  -14   24    1      0.30     -0.51
  -14   24    2     -1.18     -1.43
  -14   24    3      0.40     -1.67
  -14   24    4      1.03     -0.25
  -14   24    5      1.99     -0.43
  -14   24    6      2.37      1.17
   13   23    7      0.95     -0.57
   13   23    6      1.81      0.19
   13   23    5      2.03     -0.13
   13   23    4      1.68     -0.46
   13   23    3     -0.45      0.39
   13   23    2     -0.33      1.53
   13   23    1     -1.98      1.81
   13   23    0     -0.77      0.32
  -13   23    1     -0.12      2.01
  -13   23    2     -2.14     -1.02
  -13   23    3     -2.85      2.14
  -13   23    4     -1.34      2.98
  -13   23    5     -2.53      0.92
  -13   23    6     -0.26      0.49
  -13   23    7      0.53     -0.87
   12   22    8      1.50     -0.12
   12   22    7      0.49      1.10
   12   22    6     -0.87      0.02
   12   22    5     -0.32     -1.99
   12   22    4     -0.66     -2.54
   12   22    3     -0.95      0.19
   12   22    2      0.65     -0.51
   12   22    1     -0.26      0.66
   12   22    0      0.15     -1.15
  -12   22    1      0.11      1.11
  -12   22    2     -2.04      0.46
  -12   22    3     -0.78     -0.74
  -12   22    4     -0.07     -0.94
  -12   22    5      0.31     -0.86
  -12   22    6      2.02     -0.29
  -12   22    7      0.99      0.90
  -12   22    8      1.63      0.92
   11   21    9     -1.43     -2.55
   11   21    8     -0.09     -2.14
   11   21    7      0.05      0.54
   11   21    6      0.59     -0.29
   11   21    5     -0.07     -0.14
   11   21    4     -0.17     -1.11
   11   21    3     -1.00      0.78
   11   21    2      0.27      0.90
   11   21    1      1.07      2.56
   11   21    0      1.15      0.15
  -11   21    1      1.96      0.10
  -11   21    2      0.32      1.87
  -11   21    3      0.71      3.54
  -11   21    4      1.89      1.18
  -11   21    5     -0.79      3.30
  -11   21    6      0.23      0.90
  -11   21    7      0.37     -0.53
  -11   21    8     -0.71      0.54
  -11   21    9     -0.30     -0.24
   10   20   10      0.35      0.34
   10   20    9      0.00      0.55
   10   20    8      0.20     -0.26
   10   20    7     -1.02     -0.13
   10   20    6     -1.43      0.25
   10   20    5     -0.53     -0.71
   10   20    4      0.95      1.56
   10   20    3      1.97      0.56
   10   20    2      0.65     -1.34
   10   20    1      1.90      0.28
   10   20    0     -0.22     -0.27
  -10   20    1      0.86      1.09
  -10   20    2     -1.56      1.00
  -10   20    3     -1.34      0.66
  -10   20    4     -2.00     -0.98
  -10   20    5     -0.32      0.55
  -10   20    6      0.00      0.32
  -10   20    7      0.94      0.12
  -10   20    8      0.72     -2.05
  -10   20    9      1.01     -1.18
  -10   20   10     -0.09      0.83
    9   19   10     -0.45     -1.98
    9   19    9     -1.12      0.39
    9   19    8     -0.60     -1.25
    9   19    7      1.17      1.77
    9   19    6     -0.43      0.22
    9   19    5      0.21      0.44
    9   19    4     -2.08      0.40
    9   19    3     -1.36      1.90
    9   19    2      0.28     -0.37
    9   19    1      1.28      0.54
    9   19    0      0.11     -0.23
   -9   19    1     -0.61     -0.93
   -9   19    2      1.74     -1.84
   -9   19    3      1.58      0.72
   -9   19    4      0.92      0.32
   -9   19    5      1.21      1.69
   -9   19    6      1.35      0.96
   -9   19    7     -0.57      0.29
   -9   19    8     -0.59     -0.64
   -9   19    9     -0.30     -1.11
   -9   19   10     -1.01      1.35
    8   18   11     -0.77      0.33
    8   18   10      0.78      0.34
    8   18    9      2.36      2.01
    8   18    8      0.40      0.53
    8   18    7     -1.52      1.58
    8   18    6     -1.31      1.93
    8   18    5     -1.50     -1.07
    8   18    4      1.58     -0.81
    8   18    3     -1.03     -1.06
    8   18    2     -0.13     -1.02
    8   18    1      0.09     -2.86
    8   18    0     -0.20      0.86
   -8   18    1      0.90      0.66
   -8   18    2     -0.92     -0.31
   -8   18    3      2.65     -0.82
   -8   18    4     -1.41      0.88
   -8   18    5     -0.21     -0.68
   -8   18    6      0.66      0.41
   -8   18    7      1.29      1.61
   -8   18    8      0.94      1.35
   -8   18    9      1.51      0.29
   -8   18   10      1.38      0.63
   -8   18   11      1.86     -0.26
    7   17   11      0.54     -0.01
    7   17   10     -0.82      0.34
    7   17    9     -1.83     -1.76
    7   17    8     -1.24     -1.05
    7   17    7      2.43     -0.23
    7   17    6     -0.56     -0.15
    7   17    5      0.20      1.41
    7   17    4     -0.72      2.20
    7   17    3     -0.18      0.09
    7   17    2     -0.27     -0.87
    7   17    1      0.89      1.70
    7   17    0      0.76     -0.93
   -7   17    1     -0.82      0.77
   -7   17    2     -0.46     -0.95
   -7   17    3     -1.06      2.16
   -7   17    4     -0.30     -1.26
   -7   17    5      1.33     -0.75
   -7   17    6      1.05     -0.69
   -7   17    7      0.97     -0.87
   -7   17    8      0.90      1.00
   -7   17    9     -0.09     -0.81
   -7   17   10      0.05     -0.01
   -7   17   11      4.42     -3.27
    6   16   12     -0.21      2.48
    6   16   11      1.47      0.94
    6   16   10      0.09     -0.21
    6   16    9      5.15     -0.18
    6   16    8      0.49      0.74
    6   16    7     -1.03      1.01
    6   16    6     -1.04      1.94
    6   16    5     -0.93      2.35
    6   16    4     -0.32      3.18
    6   16    3     -0.75      4.37
    6   16    2      0.86      0.75
    6   16    1     -2.05      2.16
    6   16    0      1.72      5.94
   -6   16    1      0.54      1.51
   -6   16    2      0.48      0.05
   -6   16    3      0.33     -3.09
   -6   16    4     -0.67     -2.05
   -6   16    5      0.80     -0.50
   -6   16    6      0.99      1.14
   -6   16    7      2.88      0.39
   -6   16    8      1.91     -2.43
   -6   16    9     -0.75     -1.74
   -6   16   10      0.32     -1.35
   -6   16   11     -0.75      0.24
   -6   16   12      0.02     -1.51
    5   15   12     -0.66     -0.08
    5   15   11      1.23      1.08
    5   15   10      0.29     -1.98
    5   15    9     -1.20      0.07
    5   15    8     -0.54      1.61
    5   15    7     -0.36     -3.82
    5   15    6     -1.76      1.96
    5   15    5      1.81      1.47
    5   15    4      3.28      0.25
    5   15    3     -1.30      0.77
    5   15    2      0.39     -0.59
    5   15    1      3.86     -2.07
    5   15    0     -0.36     -5.52
   -5   15    1      2.38     -0.10
   -5   15    2      1.98     -1.07
   -5   15    3      3.39      2.86
   -5   15    4      0.18      1.31
   -5   15    5      0.19     -1.25
   -5   15    6     -0.84     -0.43
   -5   15    7     -2.07     -0.64
   -5   15    8      1.57     -0.67
   -5   15    9     -1.20     -0.75
   -5   15   10     -0.98     -0.62
   -5   15   11      0.23      0.05
   -5   15   12     -0.42      0.01
    4   14   12      3.11      0.88
    4   14   11     -0.60     -0.74
    4   14   10     -3.03     -2.26
    4   14    9      4.73     -5.11
    4   14    8      1.32      0.83
    4   14    7     -2.70      0.11
    4   14    6     -1.40      2.68
    4   14    5      0.71      0.63
    4   14    4      2.14      1.24
    4   14    3      3.68      2.59
    4   14    2      1.38      2.61
    4   14    1      4.56      5.78
    4   14    0     10.69      6.06
   -4   14    1      6.36      2.95
   -4   14    2      0.57     -0.18
   -4   14    3      0.31     -3.68
   -4   14    4     -0.03      0.18
   -4   14    5      0.39     -0.24
   -4   14    6      0.56     -0.60
   -4   14    7      2.25     -2.72
   -4   14    8      0.02     -2.04
   -4   14    9      1.08      3.11
   -4   14   10      1.30     -0.33
   -4   14   11      1.23     -0.71
   -4   14   12     -0.15      1.29
    3   13   13     -3.87     -4.44
    3   13   12     -2.80     -1.07
    3   13   11      2.93     -1.35
    3   13   10     -2.09     -1.50
    3   13    9     -1.48     -1.52
    3   13    8      1.19     -0.19
    3   13    7     -4.75     -1.47
    3   13    6      1.27      1.18
    3   13    5      3.78     -2.85
    3   13    4      4.70     -4.25
    3   13    3      1.49     -0.08
    3   13    2      2.83     -4.29
    3   13    1     -1.53     -5.65
    3   13    0     -9.50     -4.22
   -3   13    1     -1.96     -5.44
   -3   13    2     -1.90     -2.00
   -3   13    3      0.15     -0.05
   -3   13    4      1.00     -1.44
   -3   13    5     -0.04     -1.35
   -3   13    6     -2.99      3.61
   -3   13    7     -2.37      1.40
   -3   13    8      0.74      0.19
   -3   13    9     -1.31     -0.45
   -3   13   10     -0.34     -0.68
   -3   13   11      3.46     -1.20
   -3   13   12      1.28     -1.34
   -3   13   13      2.70     -5.21
    2   12   13     -0.69     -0.14
    2   12   12      2.84      0.04
    2   12   11     -1.75      0.02
    2   12   10     -1.18      0.08
    2   12    9      1.52     -2.14
    2   12    8      0.13     -0.68
    2   12    7     -1.98      2.95
    2   12    6     -1.75      4.26
    2   12    5     -1.86     -0.08
    2   12    4     -0.41      1.31
    2   12    3      3.28      0.22
    2   12    2      5.24      1.21
    2   12    1     13.14     -5.62
    2   12    0     19.37     -6.13
   -2   12    1      8.90     -9.73
   -2   12    2      2.92     -3.12
   -2   12    3      0.74     -1.33
   -2   12    4      2.37      0.52
   -2   12    5      0.92      2.32
   -2   12    6     -0.40      4.45
   -2   12    7     -0.92     -0.63
   -2   12    8      0.25     -0.35
   -2   12    9      3.42     -0.03
   -2   12   10      0.95     -5.80
   -2   12   11     -0.94     -1.19
   -2   12   12      1.70      0.16
   -2   12   13     10.24      6.09
    1   11   13     -6.81      0.16
    1   11   12     -2.73      2.99
    1   11   11      0.77     -3.03
    1   11   10     -0.95     -0.10
    1   11    9     -0.47      0.14
    1   11    8      0.52      0.61
    1   11    7     -2.38      2.20
    1   11    6     -0.45     -0.16
    1   11    5     -2.91     -3.87
    1   11    4      0.18     -7.64
    1   11    3      0.75     -1.11
    1   11    2     -5.89     -6.19
    1   11    1     -9.39     -3.89
    1   11    0     -7.46      2.29
   -1   11    1    -12.24     -1.35
   -1   11    2     -4.53      0.60
   -1   11    3      1.48      2.47
   -1   11    4      0.07     -2.80
   -1   11    5     -2.61     -1.36
   -1   11    6      1.46      3.34
   -1   11    7      0.19      3.62
   -1   11    8      1.11      2.01
   -1   11    9     -2.51      2.50
   -1   11   10     -3.12      1.64
   -1   11   11     -0.77     -2.27
   -1   11   12     -3.05      1.98
   -1   11   13     -7.42     -1.23
    0   10   13      6.33     -6.59
    0   10   12      2.62     -3.48
    0   10   11     -0.77      1.15
    0   10   10     -1.65     -1.39
    0   10    9      3.07     -2.98
    0   10    8      0.44      0.74
    0   10    7      1.38      0.90
    0   10    6      3.77      1.16
    0   10    5      0.64      0.65
    0   10    4      0.72     -2.43
    0   10    3      1.36     -5.73
    0   10    2     -3.83     -7.43
    0   10    1     -7.61    -24.01
    0   10    0     -2.45    -34.13
    8    2   12      2.15     -0.03
  -10    0   13     -2.90     -0.85
  -10    0   12      2.50     -0.76
  -10    0   11     -0.88     -0.11
  -10    0   10     -0.13     -0.35
  -10    0    9      0.34     -0.13
  -10    0    8      1.53     -0.22
  -10    0    7      2.94      0.00
  -10    0    6      2.44      0.03
  -10    0    5      5.84      0.12
  -10    0    4      4.24      0.15
  -10    0    3      1.15      0.46
  -10    0    2      1.34      0.08
  -10    0    1      3.51      0.11
   10    0    0      4.32     -0.41
   10    0    1      1.48     -0.04
   10    0    2      1.25     -0.32
   10    0    3      1.80     -0.47
   10    0    4      1.52     -0.16
   10    0    5      0.64     -0.09
   10    0    6     -0.28      0.20
   10    0    7      1.54      0.13
   10    0    8      0.15     -0.07
   10    0    9      1.96      0.13
   10    0   10      0.75     -0.14
   10    0   11      0.75      0.12
   10    0   12     -1.01      0.13
   10    0   13     -2.66     -0.05
  -11    1   13     -0.95     -1.20
  -11    1   12      1.25     -0.12
  -11    1   11     -0.06     -0.56
  -11    1   10     -0.46      0.53
  -11    1    9     -0.58     -0.63
  -11    1    8     -1.70     -0.50
  -11    1    7     -1.64     -0.79
  -11    1    6     -0.41     -1.38
  -11    1    5     -0.44     -0.87
  -11    1    4      0.83     -0.84
  -11    1    3      0.62     -1.56
  -11    1    2      3.60     -1.24
  -11    1    1      6.06      0.45
   11    1    0      4.87     -2.80
   11    1    1     -0.04     -4.79
   11    1    2      0.67     -0.22
   11    1    3      0.89     -1.14
   11    1    4     -0.31     -1.97
   11    1    5     -0.08     -0.41
   11    1    6      2.92      1.10
   11    1    7      1.83      0.42
   11    1    8      0.40     -0.14
   11    1    9      0.72      0.04
   11    1   10      1.71      2.66
   11    1   11      1.22      2.28
   11    1   12     -1.68     -1.24
   11    1   13      1.22      0.44
  -12    2   13     -0.30     -2.83
  -12    2   12      2.03     -0.69
  -12    2   11      0.66     -1.73
  -12    2   10     -0.24     -1.29
  -12    2    9      0.49     -1.24
  -12    2    8     -0.42      0.31
  -12    2    7      0.23     -1.02
  -12    2    6      0.32      0.35
  -12    2    5     -0.13      2.52
  -12    2    4     -1.09      0.39
  -12    2    3      1.59     -0.38
  -12    2    2      0.29     -0.11
  -12    2    1      0.54      1.26
   12    2    0      3.28      1.96
   12    2    1      1.02      2.61
   12    2    2     -2.10      1.47
   12    2    3     -2.25      1.30
   12    2    4     -2.13      0.54
   12    2    5     -1.72      0.17
   12    2    6     -1.10     -0.58
   12    2    7     -1.66      1.58
   12    2    8      1.10     -0.99
   12    2    9      0.33      0.54
   12    2   10      0.05      0.06
   12    2   11     -0.51     -0.89
   12    2   12     -0.64      0.25
   12    2   13      0.20      0.18
  -13    3   13      1.75      0.77
  -13    3   12      1.21      1.18
  -13    3   11      0.19      0.67
  -13    3   10     -0.09      0.20
  -13    3    9      0.07      0.88
  -13    3    8     -0.79     -0.25
  -13    3    7     -0.67     -0.41
  -13    3    6      1.12      2.14
  -13    3    5      1.42      0.32
  -13    3    4      1.14      0.23
  -13    3    3      0.70     -0.54
  -13    3    2      2.52      2.52
  -13    3    1     -0.02      2.66
   13    3    0      2.04      1.41
   13    3    1      1.62      2.19
   13    3    2     -1.33      1.97
   13    3    3     -0.22      2.30
   13    3    4      1.71      2.97
   13    3    5     -0.49      2.40
   13    3    6     -2.30      3.29
   13    3    7      0.04      2.65
   13    3    8     -0.94      2.36
   13    3    9      0.40      1.44
   13    3   10     -2.07      1.47
   13    3   11     -1.06     -0.06
   13    3   12      0.37     -1.80
   13    3   13      0.24      1.20
  -14    4   13      1.35      1.34
  -14    4   12      1.20      0.50
  -14    4   11      0.78      0.38
  -14    4   10      0.16      0.53
  -14    4    9      0.17      0.65
  -14    4    8     -0.24      0.29
  -14    4    7      2.04     -1.43
  -14    4    6      0.54     -1.63
  -14    4    5     -0.77     -2.65
  -14    4    4     -1.11     -3.27
  -14    4    3      1.51     -1.03
  -14    4    2      1.95     -2.71
  -14    4    1      0.30     -1.06
   14    4    0      0.37      1.09
   14    4    1     -2.19      0.38
   14    4    2      0.54     -0.78
   14    4    3      0.76     -2.95
   14    4    4     -0.12     -0.37
   14    4    5     -0.18     -1.63
   14    4    6     -1.50      0.29
   14    4    7     -1.26     -0.44
   14    4    8      0.75      0.23
   14    4    9     -0.01     -0.04
   14    4   10     -0.31      0.19
   14    4   11      1.17     -0.12
   14    4   12     -0.32      0.31
  -15    5   12      0.61      0.03
  -15    5   11     -0.53     -0.85
  -15    5   10     -0.88     -0.10
  -15    5    9     -2.23      0.09
  -15    5    8     -0.87     -0.35
  -15    5    7     -0.48      0.49
  -15    5    6     -0.87      1.22
  -15    5    5      1.56      1.49
  -15    5    4     -0.95      0.42
  -15    5    3     -0.72     -1.19
  -15    5    2      0.83      1.26
  -15    5    1     -1.81     -0.68
   15    5    0     -0.90      1.07
   15    5    1     -3.36      1.74
   15    5    2     -0.18      0.04
   15    5    3     -0.91      1.06
   15    5    4     -1.98      2.30
   15    5    5     -1.49     -0.18
   15    5    6     -1.36     -1.70
   15    5    7     -2.56      0.79
   15    5    8     -3.71      0.00
   15    5    9     -0.75     -0.07
   15    5   10     -1.52     -0.45
   15    5   11      1.12      0.48
   15    5   12      1.68     -0.12
  -16    6   12     -0.77     -0.21
  -16    6   11     -0.40     -0.67
  -16    6   10     -1.76      0.27
  -16    6    9     -0.99     -0.56
  -16    6    8     -0.44     -0.35
  -16    6    7      0.21      0.99
  -16    6    6      0.01      0.50
  -16    6    5      1.38      0.71
  -16    6    4      1.65     -3.09
  -16    6    3      0.83     -1.97
  -16    6    2      1.81     -0.15
  -16    6    1      1.72      0.73
   16    6    0      0.46      0.34
   16    6    1      2.51     -1.02
   16    6    2      1.71      1.36
   16    6    3      1.85      1.77
   16    6    4     -0.96      1.38
   16    6    5      0.63     -0.35
   16    6    6     -0.94     -0.67
   16    6    7     -0.52     -0.72
   16    6    8     -0.58      0.61
   16    6    9      1.19     -0.40
   16    6   10      0.33      0.43
   16    6   11      1.03      0.86
  -17    7   11      0.09     -0.34
  -17    7   10      1.88     -0.28
  -17    7    9      1.02     -1.29
  -17    7    8      1.34      0.18
  -17    7    7     -0.33     -0.95
  -17    7    6      0.58      0.59
  -17    7    5      0.05      0.94
  -17    7    4     -0.80     -0.33
  -17    7    3      0.49     -0.21
  -17    7    2      0.24      1.15
  -17    7    1      0.33     -0.85
   17    7    0     -0.69     -0.96
   17    7    1     -2.40     -0.80
   17    7    2      1.17      1.52
   17    7    3     -1.67      0.79
   17    7    4     -0.39     -0.45
   17    7    5     -0.03     -0.19
   17    7    6      1.80      1.49
   17    7    7     -1.37     -1.60
   17    7    8     -1.67     -2.06
   17    7    9      0.83     -0.91
   17    7   10     -0.18     -0.43
   17    7   11     -0.29      1.07
  -18    8   11      0.58      0.05
  -18    8   10     -0.28      0.16
  -18    8    9      0.06      0.30
  -18    8    8      1.00      0.67
  -18    8    7     -0.13     -0.16
  -18    8    6      0.85      0.53
  -18    8    5      0.33     -0.56
  -18    8    4      1.78     -1.32
  -18    8    3      0.71     -0.89
  -18    8    2     -0.09     -2.22
  -18    8    1     -0.97      0.29
   18    8    0     -1.04      0.21
   18    8    1      0.52      1.76
   18    8    2      0.23      0.30
   18    8    3     -0.52      0.13
   18    8    4     -0.98     -0.85
   18    8    5      0.07     -1.01
   18    8    6     -1.28     -0.65
   18    8    7     -1.94      0.04
   18    8    8     -2.72      0.08
   18    8    9      1.16      1.90
   18    8   10      1.27      1.55
   18    8   11      1.03      2.01
  -19    9   10      1.57      0.75
  -19    9    9     -0.03      1.99
  -19    9    8     -0.75      0.94
  -19    9    7      0.92      0.57
  -19    9    6      0.50      1.88
  -19    9    5      0.69     -0.93
  -19    9    4      0.40      0.35
  -19    9    3     -2.11     -1.28
  -19    9    2     -0.21      0.23
  -19    9    1      1.93      1.31
   19    9    0      0.23      0.00
   19    9    1     -1.56     -1.41
   19    9    2     -0.96      0.84
   19    9    3     -1.49     -0.38
   19    9    4     -0.70      0.60
   19    9    5     -2.25     -0.09
   19    9    6     -2.53      2.05
   19    9    7     -1.28     -0.32
   19    9    8     -0.10     -1.24
   19    9    9      0.95     -0.51
   19    9   10     -0.82      0.25
  -20   10   10     -2.10      0.57
  -20   10    9     -2.22     -0.53
  -20   10    8     -1.73     -0.36
  -20   10    7      0.27      0.95
  -20   10    6      0.57      1.59
  -20   10    5      0.70      0.76
  -20   10    4      1.86      0.89
  -20   10    3     -0.59     -0.64
  -20   10    2      2.10     -0.34
  -20   10    1      1.75     -0.53
   20   10    0     -0.85     -0.58
   20   10    1      1.09      0.41
   20   10    2      1.85     -0.40
   20   10    3      0.21      0.47
   20   10    4     -0.48      0.11
   20   10    5     -0.06     -0.65
   20   10    6      0.19     -1.39
   20   10    7     -1.95     -1.89
   20   10    8     -1.02     -1.91
   20   10    9     -0.93      0.90
  -21   11    9     -0.61     -0.22
  -21   11    8      0.20     -1.42
  -21   11    7     -0.60      0.78
  -21   11    6     -1.81     -0.29
  -21   11    5      0.68     -1.29
  -21   11    4     -1.05     -0.84
  -21   11    3      0.05     -4.15
  -21   11    2      0.94     -0.87
  -21   11    1     -0.33      0.54
   21   11    0     -0.34     -1.64
   21   11    1     -0.04     -1.99
   21   11    2     -0.13     -1.07
   21   11    3     -0.13     -0.23
   21   11    4     -1.70     -0.65
   21   11    5     -1.69     -0.84
   21   11    6     -0.90      0.09
   21   11    7     -1.48     -0.51
   21   11    8     -0.11     -0.42
   21   11    9     -0.50      0.37
  -22   12    8      0.03     -1.51
  -22   12    7     -0.44      0.43
  -22   12    6     -0.89      0.60
  -22   12    5     -0.08     -0.39
  -22   12    4      0.39     -0.65
  -22   12    3     -0.51     -1.34
  -22   12    2     -0.45     -0.75
  -22   12    1     -0.70      1.20
   22   12    0     -1.70      0.30
   22   12    1     -0.76      1.94
   22   12    2      0.51      0.76
   22   12    3     -0.41     -0.57
   22   12    4     -1.91     -0.22
   22   12    5     -0.01     -1.12
   22   12    6     -0.85     -0.59
   22   12    7     -0.83     -0.31
   22   12    8      0.25     -0.15
  -23   13    7     -0.92     -0.37
  -23   13    6     -0.51     -1.73
  -23   13    5      1.27     -0.53
  -23   13    4      1.96     -1.37
  -23   13    3      2.85     -2.18
  -23   13    2      1.02     -0.11
  -23   13    1      1.37      1.12
   23   13    0      2.89     -0.66
   23   13    1      0.39      0.26
   23   13    2      0.90      0.00
   23   13    3     -0.32      0.79
   23   13    4     -0.30     -0.51
   23   13    5     -1.16     -1.43
   23   13    6     -1.06      0.86
   23   13    7     -0.52     -0.13
  -24   14    6     -1.40     -0.60
  -24   14    5      0.90     -1.68
  -24   14    4      1.09     -1.36
  -24   14    3      0.37     -1.19
  -24   14    2     -0.26     -2.19
  -24   14    1     -1.19     -0.50
   24   14    0     -1.43     -2.18
   24   14    1     -2.70     -0.50
   24   14    2      1.43      0.36
   24   14    3      0.66      0.21
   24   14    4     -1.58     -0.65
   24   14    5     -0.21     -0.20
   24   14    6      1.02     -1.28
  -25   15    5      1.01      0.09
  -25   15    4      0.24      1.42
  -25   15    3      1.38      1.10
  -25   15    2      0.72      0.21
  -25   15    1     -2.27      0.80
   25   15    0      0.62      1.54
   25   15    1     -2.16      1.26
   25   15    2     -0.40      1.14
   25   15    3      0.09     -0.11
   25   15    4     -0.30      0.11
  -26   16    2      0.12     -1.52
  -26   16    1      0.34      0.11
   26   16    0      2.15     -0.39
   26   16    1      0.19     -2.32
   26   16    2      0.00      2.47
   15   27    1      0.99     -0.89
   15   27    0     -0.84     -1.36
  -15   27    1      0.02     -0.60
  -15   27    2      0.65     -0.52
   14   26    4      0.30      0.41
   14   26    3      2.44     -1.31
   14   26    2      0.56     -1.19
   14   26    1     -0.41      0.18
   14   26    0      0.06     -0.80
  -14   26    1      1.61     -0.63
  -14   26    2      1.71     -1.44
  -14   26    3      2.89     -1.21
  -14   26    4      2.37     -1.04
   13   25    6      0.90      1.66
   13   25    5      0.46      1.08
   13   25    4      2.22      1.28
   13   25    3      1.05     -1.44
   13   25    2      0.69     -0.23
   13   25    1     -0.51     -1.13
   13   25    0     -0.47     -0.45
  -13   25    1     -0.63      0.37
  -13   25    2      0.39     -1.61
  -13   25    3     -1.61     -0.13
  -13   25    4     -3.12     -0.32
  -13   25    5     -1.17     -1.20
  -13   25    6     -0.44      0.43
   12   24    7      0.88     -0.05
   12   24    6      0.23     -1.18
   12   24    5      1.25      0.06
   12   24    4      3.36     -1.05
   12   24    3      1.06     -1.62
   12   24    2      0.73     -0.09
   12   24    1      0.08     -0.12
   12   24    0      1.44     -1.39
  -12   24    1      0.18     -0.57
  -12   24    2     -1.31     -1.89
  -12   24    3     -0.10     -2.75
  -12   24    4     -1.22     -2.12
  -12   24    5     -0.50     -1.41
  -12   24    6     -0.45     -0.04
  -12   24    7     -1.68     -0.59
   11   23    8      0.88     -1.53
   11   23    7     -0.96     -0.66
   11   23    6      0.44      0.04
   11   23    5      0.41     -0.21
   11   23    4      2.25     -1.25
   11   23    3     -0.09     -1.57
   11   23    2      0.49     -0.60
   11   23    1     -0.26     -0.19
   11   23    0      1.11     -1.56
  -11   23    1      1.53      0.50
  -11   23    2     -0.71     -0.47
  -11   23    3     -2.22      1.72
  -11   23    4     -1.04      1.54
  -11   23    5     -3.02      1.18
  -11   23    6     -0.08      0.96
  -11   23    7      0.80      0.54
  -11   23    8     -1.83      0.21
   10   22    9      1.87     -0.13
   10   22    8      2.11     -0.05
   10   22    7      0.62     -0.45
   10   22    6     -0.17     -0.35
   10   22    5      1.55     -1.64
   10   22    4      1.27     -2.00
   10   22    3      1.24      0.93
   10   22    2      2.00     -1.35
   10   22    1      0.63      0.72
   10   22    0      1.17     -1.18
  -10   22    1     -0.18      0.98
  -10   22    2     -1.62      0.18
  -10   22    3     -0.08     -0.75
  -10   22    4     -0.24      0.35
  -10   22    5     -0.01      1.02
  -10   22    6      0.15      1.86
  -10   22    7     -0.13      3.48
  -10   22    8      1.33      2.38
  -10   22    9      1.24      1.07
    9   21    9     -2.83     -0.77
    9   21    8     -1.43     -0.57
    9   21    7     -1.50      3.44
    9   21    6     -0.37      0.62
    9   21    5     -0.78      0.08
    9   21    4     -0.45     -2.47
    9   21    3     -1.56     -0.55
    9   21    2     -0.68     -0.21
    9   21    1     -0.79      0.46
    9   21    0     -1.43     -1.77
   -9   21    1     -0.34     -0.45
   -9   21    2     -0.46     -0.16
   -9   21    3     -1.74      1.48
   -9   21    4     -0.67      0.36
   -9   21    5     -2.24      3.49
   -9   21    6     -0.47      1.55
   -9   21    7      0.50     -0.05
   -9   21    8      0.79      0.09
   -9   21    9      1.75     -0.46
   -9   21   10     -0.51      0.78
    8   20   10      1.15      0.03
    8   20    9     -0.14      0.40
    8   20    8      0.50     -0.44
    8   20    7     -0.77     -0.38
    8   20    6     -0.51      0.14
    8   20    5      2.16     -1.62
    8   20    4      2.19      0.72
    8   20    3      2.99     -1.19
    8   20    2      2.09     -3.15
    8   20    1      4.20     -1.66
    8   20    0      2.25     -1.18
   -8   20    1      1.43      0.32
   -8   20    2      0.87     -1.60
   -8   20    3      0.97     -1.39
   -8   20    4     -1.28     -2.65
   -8   20    5      0.67     -1.40
   -8   20    6      0.85      0.88
   -8   20    7      1.79      1.23
   -8   20    8      1.64     -1.12
   -8   20    9      1.18      0.33
   -8   20   10      0.16      0.72
    7   19   11      0.58     -1.80
    7   19   10     -0.27     -0.57
    7   19    9     -0.09      0.54
    7   19    8      0.52      0.34
    7   19    7      1.96      4.49
    7   19    6     -0.47      0.49
    7   19    5      0.15      0.28
    7   19    4     -1.55     -0.07
    7   19    3      0.88     -0.12
    7   19    2      1.30     -1.40
    7   19    1      0.94      0.15
    7   19    0      0.46     -0.18
   -7   19    1      0.48     -0.29
   -7   19    2      0.19     -1.75
   -7   19    3     -1.04      2.39
   -7   19    4     -0.78      1.23
   -7   19    5      0.67      2.98
   -7   19    6      2.31      2.22
   -7   19    7     -0.09      1.11
   -7   19    8     -2.31      0.05
   -7   19    9     -0.32     -1.12
   -7   19   10     -0.70     -0.93
   -7   19   11      4.89      2.66
    6   18   11     -2.01      0.57
    6   18   10     -0.43      1.04
    6   18    9      0.75      1.46
    6   18    8     -0.17      0.25
    6   18    7     -0.69      0.21
    6   18    6      1.42      0.91
    6   18    5      0.98     -2.20
    6   18    4      0.68     -2.09
    6   18    3     -0.85     -2.58
    6   18    2      0.11     -3.15
    6   18    1     -0.95     -4.73
    6   18    0     -0.37     -0.91
   -6   18    1      0.60     -2.43
   -6   18    2     -1.94     -3.62
   -6   18    3      0.37     -3.89
   -6   18    4     -2.37     -1.20
   -6   18    5     -2.13     -0.80
   -6   18    6      0.18      0.02
   -6   18    7      1.38      0.97
   -6   18    8      1.18     -1.03
   -6   18    9      0.87     -1.24
   -6   18   10     -1.27     -0.02
   -6   18   11     -1.47     -0.12
    5   17   11     -3.64      2.00
    5   17   10     -1.63      2.49
    5   17    9     -1.28     -0.54
    5   17    8      0.19     -0.30
    5   17    7      4.53      0.61
    5   17    6      0.68     -0.01
    5   17    5      0.57     -0.56
    5   17    4      1.45      0.18
    5   17    3      0.83     -5.19
    5   17    2      0.11     -5.31
    5   17    1      0.75     -1.55
    5   17    0     -0.45     -5.32
   -5   17    1     -2.34     -2.51
   -5   17    2     -3.29     -0.08
   -5   17    3     -2.69      3.35
   -5   17    4     -2.25      0.79
   -5   17    5      0.66      0.70
   -5   17    6      0.25      0.22
   -5   17    7     -1.52      0.01
   -5   17    8     -1.09      4.33
   -5   17    9     -0.65      0.25
   -5   17   10     -2.12      1.08
   -5   17   11      0.41     -0.72
   -5   17   12      0.09      0.10
    4   16   12     -0.87      3.06
    4   16   11      0.26      1.46
    4   16   10      1.09     -1.05
    4   16    9      2.87      1.48
    4   16    8     -0.94      2.42
    4   16    7      0.09     -0.32
    4   16    6     -1.04     -1.20
    4   16    5     -0.67     -1.99
    4   16    4     -1.01      0.99
    4   16    3     -1.39      1.65
    4   16    2      0.07     -0.72
    4   16    1     -0.95      1.92
    4   16    0      2.74      5.62
   -4   16    1     -0.08      1.42
   -4   16    2      0.21     -0.49
   -4   16    3      1.01     -1.50
   -4   16    4     -0.74      0.57
   -4   16    5      2.20      1.54
   -4   16    6      2.45      1.56
   -4   16    7      2.60      1.67
   -4   16    8      0.97     -2.09
   -4   16    9     -2.21     -0.25
   -4   16   10     -1.46      0.93
   -4   16   11     -0.77      2.17
   -4   16   12     -0.72     -0.29
    3   15   12      1.02      5.69
    3   15   11      2.81      7.57
    3   15   10      2.56      0.98
    3   15    9      2.40     -0.97
    3   15    8      1.14     -0.46
    3   15    7      1.53     -4.90
    3   15    6     -1.19     -0.08
    3   15    5     -1.50     -0.31
    3   15    4      1.37     -1.19
    3   15    3     -5.48     -1.53
    3   15    2     -5.45     -0.67
    3   15    1     -3.24     -2.31
    3   15    0     -7.45     -6.23
   -3   15    1     -4.16      3.73
   -3   15    2     -1.68      4.52
   -3   15    3      0.24      5.22
   -3   15    4      1.66      4.03
   -3   15    5      2.17      1.72
   -3   15    6      1.40      1.75
   -3   15    7     -0.27      2.01
   -3   15    8      3.64      3.33
   -3   15    9      1.38      1.21
   -3   15   10     -0.10      2.16
   -3   15   11      1.69      5.74
   -3   15   12      1.23      3.73
    2   14   13      1.43     -4.38
    2   14   12      3.71      1.23
    2   14   11     -0.49      0.24
    2   14   10     -2.20     -2.51
    2   14    9      1.99     -1.08
    2   14    8      3.14      1.88
    2   14    7     -1.62     -1.21
    2   14    6     -4.47      0.70
    2   14    5     -0.80     -0.51
    2   14    4     -0.85      0.83
    2   14    3     -0.47      1.12
    2   14    2     -1.29     -0.35
    2   14    1      3.28      0.12
    2   14    0      6.47      3.06
   -2   14    1      4.45     -1.95
   -2   14    2     -0.54     -3.09
   -2   14    3     -0.20     -4.57
   -2   14    4      2.18      0.45
   -2   14    5      1.35     -0.97
   -2   14    6     -1.48     -1.83
   -2   14    7      2.85     -2.59
   -2   14    8      0.67     -1.58
   -2   14    9     -0.43      3.06
   -2   14   10      1.10      0.58
   -2   14   11     -0.36     -0.56
   -2   14   12      0.40      0.16
   -2   14   13     -3.04      6.58
    1   13   13     -1.11     -5.70
    1   13   12      1.12     -1.51
    1   13   11      6.10     -1.62
    1   13   10     -0.56     -3.05
    1   13    9     -1.97     -4.38
    1   13    8     -0.81     -0.48
    1   13    7     -5.41     -1.15
    1   13    6     -1.16      2.20
    1   13    5      1.21      1.22
    1   13    4      2.88      0.89
    1   13    3     -1.65      4.77
    1   13    2      1.43      0.81
    1   13    1     -1.49      0.27
    1   13    0    -12.23      1.89
   -1   13    1      0.74      0.58
   -1   13    2      3.41      1.66
   -1   13    3      2.41      3.76
   -1   13    4      5.18     -0.56
   -1   13    5      3.28     -2.13
   -1   13    6      0.54      0.28
   -1   13    7     -1.50     -1.03
   -1   13    8      2.16      0.01
   -1   13    9      0.08     -2.36
   -1   13   10      0.58     -0.88
   -1   13   11      6.02     -0.36
   -1   13   12      1.88     -1.06
   -1   13   13      0.83     -6.33
    0   12   13      5.41      3.10
    0   12   12      1.41      1.10
    0   12   11     -1.42      0.98
    0   12   10      0.43     -0.97
    0   12    9      3.50      3.72
    0   12    8      0.45      0.52
    0   12    7     -1.66     -0.04
    0   12    6     -1.67      4.24
    0   12    5     -1.24     -1.32
    0   12    4      0.38     -0.35
    0   12    3      0.34      0.24
    0   12    2     -0.91     -0.04
    0   12    1      3.11     -6.24
    0   12    0     11.54     -3.11
  -12    0   13     -2.38     -0.02
  -12    0   12      1.61     -0.06
  -12    0   11     -0.13      0.11
  -12    0   10     -0.13     -0.22
  -12    0    9     -0.27     -0.06
  -12    0    8      0.41     -0.25
  -12    0    7     -1.17     -0.08
  -12    0    6     -1.14     -0.01
  -12    0    5      1.16     -0.05
  -12    0    4     -0.59     -0.06
  -12    0    3      0.74      0.21
  -12    0    2      0.53      0.01
  -12    0    1      1.29      0.09
   12    0    0      2.58     -0.09
   12    0    1     -0.85     -0.08
   12    0    2     -0.48     -0.14
   12    0    3      0.24     -0.20
   12    0    4     -1.65     -0.27
   12    0    5     -1.44     -0.28
   12    0    6     -2.42      0.08
   12    0    7     -0.40      0.05
   12    0    8     -1.82     -0.10
   12    0    9      0.86      0.19
   12    0   10      0.19     -0.11
   12    0   11     -0.38     -0.09
   12    0   12      0.09     -0.16
   12    0   13     -1.72     -0.36
  -13    1   13      0.61     -0.46
  -13    1   12      2.46      0.42
  -13    1   11      0.32     -0.27
  -13    1   10     -0.78     -0.65
  -13    1    9     -0.16     -0.31
  -13    1    8     -2.06      0.04
  -13    1    7     -1.13      1.07
  -13    1    6      1.91      1.96
  -13    1    5     -0.72      0.56
  -13    1    4     -0.48      0.86
  -13    1    3     -1.92      0.57
  -13    1    2      1.62      2.50
  -13    1    1     -0.29      2.22
   13    1    0     -2.72     -0.63
   13    1    1     -4.37     -2.93
   13    1    2     -2.39     -0.45
   13    1    3     -0.46     -1.00
   13    1    4     -0.62     -2.79
   13    1    5     -0.31     -1.04
   13    1    6      1.95      1.39
   13    1    7      0.44      0.03
   13    1    8      1.11     -0.02
   13    1    9      1.26     -1.10
   13    1   10     -0.40     -0.51
   13    1   11      0.72      0.33
   13    1   12     -2.01     -0.96
   13    1   13     -1.88     -0.36
  -14    2   13      0.68     -1.45
  -14    2   12      0.83     -0.22
  -14    2   11     -0.30      0.35
  -14    2   10     -1.07      0.29
  -14    2    9      0.03     -0.08
  -14    2    8     -0.51      1.17
  -14    2    7     -0.97     -1.06
  -14    2    6     -0.68     -0.96
  -14    2    5     -1.69      0.90
  -14    2    4     -2.65     -1.33
  -14    2    3      0.26     -1.23
  -14    2    2     -0.83     -0.90
  -14    2    1     -1.05     -0.64
   14    2    0      1.11      0.42
   14    2    1      0.36      0.42
   14    2    2     -0.64      0.47
   14    2    3     -1.08      1.41
   14    2    4     -0.24     -0.23
   14    2    5     -0.34      0.15
   14    2    6     -0.10     -0.23
   14    2    7     -1.54     -0.11
   14    2    8      0.77     -1.19
   14    2    9      0.82      0.49
   14    2   10      0.51      2.22
   14    2   11      1.22      0.63
   14    2   12      1.31      2.26
  -15    3   12      2.38     -0.07
  -15    3   11      0.57     -0.19
  -15    3   10      1.23     -0.40
  -15    3    9      1.24      0.95
  -15    3    8     -0.86     -0.22
  -15    3    7     -0.62     -0.52
  -15    3    6     -0.81      1.69
  -15    3    5     -0.41     -1.59
  -15    3    4     -1.71     -0.68
  -15    3    3     -1.86     -1.59
  -15    3    2     -0.24     -0.44
  -15    3    1     -2.11     -1.11
   15    3    0      1.90     -2.36
   15    3    1      3.27     -0.88
   15    3    2      1.04     -1.31
   15    3    3      1.63     -0.58
   15    3    4      3.32      0.69
   15    3    5      1.23     -0.32
   15    3    6     -0.05      0.83
   15    3    7      1.39      0.58
   15    3    8      1.75      1.39
   15    3    9      2.43      0.30
   15    3   10      0.33     -0.61
   15    3   11      2.28     -1.07
   15    3   12     -0.19     -1.51
  -16    4   12      1.77      0.70
  -16    4   11     -0.31      0.08
  -16    4   10     -0.29      0.75
  -16    4    9     -0.88      1.92
  -16    4    8     -1.07      1.84
  -16    4    7      0.57     -0.51
  -16    4    6     -0.23      0.15
  -16    4    5     -0.50     -0.73
  -16    4    4     -1.89     -3.32
  -16    4    3     -0.14     -1.30
  -16    4    2      0.41     -2.67
  -16    4    1     -1.07     -2.31
   16    4    0      0.65     -0.40
   16    4    1     -1.00     -0.27
   16    4    2      0.55      0.81
   16    4    3      0.77     -0.98
   16    4    4      0.55      1.64
   16    4    5      0.85     -0.48
   16    4    6     -1.00      0.63
   16    4    7     -0.71     -0.33
   16    4    8      0.47      0.74
   16    4    9     -1.20      0.86
   16    4   10     -2.13      2.04
   16    4   11     -0.41      0.50
   16    4   12     -1.67      1.86
  -17    5   12      1.82      0.56
  -17    5   11      0.92      1.68
  -17    5   10      1.19      1.26
  -17    5    9     -1.45      1.82
  -17    5    8     -0.26      0.57
  -17    5    7     -0.61      0.12
  -17    5    6     -0.34      0.15
  -17    5    5      1.55      0.02
  -17    5    4     -0.16     -0.93
  -17    5    3      1.00     -2.03
  -17    5    2      2.21     -0.41
  -17    5    1     -0.06     -0.09
   17    5    0      1.00      0.80
   17    5    1     -0.79      2.70
   17    5    2      1.98      0.06
   17    5    3      0.56      0.36
   17    5    4     -0.19      0.92
   17    5    5      0.71     -0.48
   17    5    6      1.74     -0.56
   17    5    7     -0.31      0.98
   17    5    8     -0.65      1.83
   17    5    9      0.65      0.76
   17    5   10     -0.37      0.18
   17    5   11      1.64      2.50
  -18    6   11     -0.10      0.55
  -18    6   10     -0.93      1.28
  -18    6    9     -1.88      0.54
  -18    6    8     -0.84     -0.48
  -18    6    7     -0.81      0.46
  -18    6    6     -0.25      0.08
  -18    6    5     -0.15      0.29
  -18    6    4      0.63     -2.32
  -18    6    3      0.57     -2.41
  -18    6    2     -0.24     -0.62
  -18    6    1      0.29     -0.67
   18    6    0      0.21     -0.79
   18    6    1      1.51     -0.37
   18    6    2      0.56      0.12
   18    6    3      0.23      1.21
   18    6    4     -1.19      1.14
   18    6    5      0.91      0.43
   18    6    6     -0.42      0.72
   18    6    7     -0.73     -0.63
   18    6    8     -1.95      1.74
   18    6    9      0.86     -0.41
   18    6   10     -0.09     -0.52
   18    6   11      1.81     -1.06
  -19    7   11     -2.02      0.33
  -19    7   10     -0.74      0.81
  -19    7    9     -0.40     -0.23
  -19    7    8     -0.17      0.43
  -19    7    7     -0.21     -1.35
  -19    7    6      0.58     -0.05
  -19    7    5     -0.53     -0.63
  -19    7    4     -0.13     -1.21
  -19    7    3     -0.47      0.30
  -19    7    2      0.35      0.82
  -19    7    1     -0.20     -0.71
   19    7    0     -0.31     -0.74
   19    7    1     -1.58     -0.15
   19    7    2      1.61      0.55
   19    7    3     -0.40     -0.21
   19    7    4      0.69     -1.02
   19    7    5     -0.32      1.14
   19    7    6      1.86      3.21
   19    7    7     -0.83      0.23
   19    7    8     -1.53      0.10
   19    7    9      0.35     -0.49
   19    7   10     -0.24     -0.12
  -20    8   10     -0.56      0.88
  -20    8    9     -1.12      0.02
  -20    8    8     -0.12      0.65
  -20    8    7      0.71     -0.31
  -20    8    6      1.96     -0.08
  -20    8    5      1.35     -0.62
  -20    8    4      1.27     -1.66
  -20    8    3      0.47      0.10
  -20    8    2      0.39     -1.95
  -20    8    1     -0.63     -2.26
   20    8    0      0.00     -0.19
   20    8    1      1.37      0.68
   20    8    2      0.43     -0.54
   20    8    3     -0.64      0.09
   20    8    4     -0.80     -0.38
   20    8    5     -0.50      0.64
   20    8    6     -2.33     -0.80
   20    8    7     -2.68     -0.22
   20    8    8     -3.40     -0.84
   20    8    9     -0.16      1.18
   20    8   10      1.31      1.99
  -21    9   10      0.96     -2.28
  -21    9    9     -1.56     -0.49
  -21    9    8     -2.28     -0.93
  -21    9    7      0.65     -0.27
  -21    9    6     -0.16      0.56
  -21    9    5      0.27     -1.95
  -21    9    4      0.89     -1.15
  -21    9    3     -1.59     -2.50
  -21    9    2      1.42     -1.30
  -21    9    1      1.40     -0.24
   21    9    0      0.20     -0.66
   21    9    1     -0.59     -1.57
   21    9    2      0.35      0.18
   21    9    3      0.44     -0.67
   21    9    4      0.99      0.78
   21    9    5     -1.39      0.23
   21    9    6     -1.86      1.43
   21    9    7     -1.78      1.11
   21    9    8     -0.38      0.11
   21    9    9      0.65      0.64
  -22   10    9     -1.38     -0.25
  -22   10    8     -0.87     -0.88
  -22   10    7      1.24      0.50
  -22   10    6      1.85      0.46
  -22   10    5      0.98     -0.11
  -22   10    4      1.82     -1.30
  -22   10    3      0.19     -1.79
  -22   10    2      0.84     -1.52
  -22   10    1      1.42     -0.61
   22   10    0     -0.07      0.52
   22   10    1      0.80      2.10
   22   10    2      0.93      0.72
   22   10    3     -0.97      0.61
   22   10    4     -0.85      1.33
   22   10    5     -1.51     -0.74
   22   10    6     -0.62     -1.03
   22   10    7     -0.80     -1.56
   22   10    8      0.05     -1.93
  -23   11    8      2.26     -3.34
  -23   11    7      0.87     -0.29
  -23   11    6     -1.25     -0.73
  -23   11    5      0.48     -1.17
  -23   11    4      0.41     -1.07
  -23   11    3     -0.13     -2.25
  -23   11    2      0.77      1.26
  -23   11    1      0.98      0.83
   23   11    0      0.29     -1.16
   23   11    1      0.38     -0.41
   23   11    2      1.03      0.52
   23   11    3      1.25      0.80
   23   11    4     -0.40      0.62
   23   11    5     -1.79     -0.05
   23   11    6      0.26      0.88
   23   11    7     -0.79     -0.39
  -24   12    7     -1.46      2.14
  -24   12    6     -0.52      2.18
  -24   12    5     -0.24      0.72
  -24   12    4      1.83     -0.78
  -24   12    3      1.25      0.06
  -24   12    2      0.93     -0.85
  -24   12    1      0.07      0.54
   24   12    0     -0.51      1.10
   24   12    1     -1.24      1.57
   24   12    2     -1.20     -0.27
   24   12    3     -0.34      0.01
   24   12    4     -2.09      0.29
   24   12    5      0.36     -1.49
   24   12    6      0.03     -1.31
  -25   13    6     -0.39     -0.73
  -25   13    5      0.31     -0.61
  -25   13    4      0.90     -0.84
  -25   13    3      0.42     -1.14
  -25   13    2     -1.18     -1.41
  -25   13    1     -1.14      1.53
   25   13    0      0.42      0.91
   25   13    1      0.46      1.29
   25   13    2      0.87      1.20
   25   13    3      0.13      1.11
   25   13    4      0.82      0.35
   25   13    5      0.27     -1.30
  -26   14    4     -0.68     -1.45
  -26   14    3     -0.73      0.24
  -26   14    2     -0.46     -0.07
  -26   14    1      0.13      1.81
   26   14    0      0.98      0.12
   26   14    1     -2.19     -0.31
   26   14    2      1.82      0.32
   26   14    3      0.33      0.69
   26   14    4     -1.38     -0.55
  -27   15    1     -1.09     -0.51
   27   15    0      0.10      0.26
   13   27    3     -0.89     -1.97
   13   27    2     -0.90      0.00
   13   27    1      0.29     -1.20
   13   27    0     -1.53     -1.48
  -13   27    1      0.16      0.96
  -13   27    2      0.51      0.55
  -13   27    3     -1.64      1.36
  -13   27    4     -0.43     -0.99
   12   26    5     -1.17     -1.32
   12   26    4     -0.21      1.11
   12   26    3      0.68      1.00
   12   26    2     -1.37      0.72
   12   26    1     -1.64      0.91
   12   26    0     -1.19      0.76
  -12   26    1     -0.24      0.85
  -12   26    2      0.01     -0.18
  -12   26    3      1.76      0.81
  -12   26    4      0.71     -0.04
  -12   26    5      0.94      0.60
   11   25    6      2.22      2.16
   11   25    5      0.27      0.44
   11   25    4      0.59      1.45
   11   25    3     -0.10     -0.67
   11   25    2     -0.07     -0.07
   11   25    1     -0.21     -1.41
   11   25    0      0.66     -1.50
  -11   25    1      0.26      0.05
  -11   25    2     -0.08     -1.37
  -11   25    3     -1.28     -0.59
  -11   25    4     -0.79     -1.56
  -11   25    5     -0.12     -2.07
  -11   25    6      1.65     -0.27
  -11   25    7      2.60      0.84
   10   24    7     -0.91      1.82
   10   24    6     -1.23      1.11
   10   24    5      0.11      1.82
   10   24    4      3.26      0.14
   10   24    3      0.80     -0.20
   10   24    2      1.75      0.35
   10   24    1     -0.39      0.44
   10   24    0      1.01      0.03
  -10   24    1     -0.58      0.21
  -10   24    2     -1.07     -0.01
  -10   24    3      0.78     -0.03
  -10   24    4     -1.05      0.28
  -10   24    5      0.57      1.69
  -10   24    6     -0.70      1.44
  -10   24    7     -1.21      0.94
  -10   24    8     -1.90      0.39
    9   23    8      1.01     -0.82
    9   23    7     -1.85     -0.59
    9   23    6      0.13     -1.12
    9   23    5     -1.02     -2.07
    9   23    4      0.58     -1.58
    9   23    3     -1.75     -1.53
    9   23    2     -2.54     -1.39
    9   23    1     -1.72     -1.30
    9   23    0     -0.14     -2.74
   -9   23    1     -0.55      0.92
   -9   23    2     -0.33      0.74
   -9   23    3     -2.08      1.09
   -9   23    4     -0.65      0.12
   -9   23    5     -2.68     -0.05
   -9   23    6      0.43     -0.54
   -9   23    7      1.21     -0.81
   -9   23    8     -1.79     -1.60
   -9   23    9     -0.52     -0.52
    8   22    9      0.49      0.00
    8   22    8      1.10      0.77
    8   22    7      1.16      0.28
    8   22    6      0.77      0.52
    8   22    5      2.67     -0.26
    8   22    4      1.10     -2.08
    8   22    3      0.02      0.66
    8   22    2      0.49     -1.82
    8   22    1     -0.12      0.34
    8   22    0      0.70     -0.71
   -8   22    1     -1.85      0.18
   -8   22    2     -1.01     -0.22
   -8   22    3      0.76     -1.28
   -8   22    4      0.36      0.07
   -8   22    5      1.63      0.29
   -8   22    6      1.07      0.77
   -8   22    7      2.04      2.02
   -8   22    8      2.82      1.26
   -8   22    9      1.16      1.05
    7   21   10      2.97      0.98
    7   21    9     -0.45      0.25
    7   21    8      0.63     -0.12
    7   21    7     -1.33      3.72
    7   21    6      0.42      0.06
    7   21    5     -0.90      0.26
    7   21    4     -1.43     -0.81
    7   21    3     -0.88      1.44
    7   21    2     -1.57      1.11
    7   21    1     -0.76      0.99
    7   21    0     -1.62     -1.47
   -7   21    1     -0.37      1.60
   -7   21    2      0.83     -0.25
   -7   21    3     -1.49      1.07
   -7   21    4      0.29     -0.63
   -7   21    5     -1.90      2.19
   -7   21    6     -0.75      1.06
   -7   21    7     -0.77     -1.90
   -7   21    8     -1.78     -2.19
   -7   21    9     -0.66     -0.08
   -7   21   10     -0.72      1.60
    6   20   10     -0.07      1.93
    6   20    9     -1.11      1.56
    6   20    8     -0.92      1.40
    6   20    7     -1.48     -0.23
    6   20    6     -1.86      0.30
    6   20    5      0.47     -2.10
    6   20    4     -0.49     -1.10
    6   20    3      0.11     -0.86
    6   20    2      0.12     -1.90
    6   20    1      1.24     -1.58
    6   20    0     -0.82      0.12
   -6   20    1     -1.78      0.97
   -6   20    2      0.14     -1.60
   -6   20    3      0.83     -0.26
   -6   20    4     -0.99     -0.59
   -6   20    5      0.16     -1.55
   -6   20    6      0.29      0.39
   -6   20    7      0.02     -0.09
   -6   20    8      0.71     -2.38
   -6   20    9      0.07     -0.29
   -6   20   10     -0.86      0.00
    5   19   11      2.33     -2.06
    5   19   10      1.01     -0.22
    5   19    9      1.50     -0.48
    5   19    8      2.73     -1.07
    5   19    7      2.22      2.79
    5   19    6     -0.39     -0.34
    5   19    5      0.02     -0.72
    5   19    4     -1.91      1.22
    5   19    3      2.36      0.00
    5   19    2      0.90     -0.42
    5   19    1     -0.25      0.69
    5   19    0     -0.11     -0.38
   -5   19    1      1.58      1.25
   -5   19    2     -0.69     -1.90
   -5   19    3     -1.04      0.94
   -5   19    4     -0.91     -1.84
   -5   19    5      0.84     -0.34
   -5   19    6      2.21     -0.36
   -5   19    7     -1.68      0.44
   -5   19    8     -5.54      1.04
   -5   19    9     -0.26      0.63
   -5   19   10      0.53     -0.10
   -5   19   11      6.70      2.69
    4   18   11     -2.12      0.40
    4   18   10      0.79      1.90
    4   18    9      0.55      0.96
    4   18    8     -0.64      1.03
    4   18    7     -0.55      1.86
    4   18    6      0.17      2.75
    4   18    5     -0.86      0.50
    4   18    4     -3.36      0.31
    4   18    3     -2.83     -0.25
    4   18    2     -1.95     -0.04
    4   18    1     -5.02      0.42
    4   18    0     -4.25      4.46
   -4   18    1     -2.52      1.57
   -4   18    2     -2.05     -0.58
   -4   18    3      0.26     -1.66
   -4   18    4     -0.67     -1.06
   -4   18    5     -1.03      0.52
   -4   18    6      0.02      0.92
   -4   18    7     -1.09      2.36
   -4   18    8      0.21      0.53
   -4   18    9      0.03      0.50
   -4   18   10     -2.31      1.16
   -4   18   11     -1.28      1.34
    3   17   12     -3.47     -1.84
    3   17   11     -1.59      0.99
    3   17   10      0.40      0.92
    3   17    9      0.58     -1.52
    3   17    8      1.47     -3.03
    3   17    7      2.93      0.52
    3   17    6      0.55      2.28
    3   17    5     -0.04      0.48
    3   17    4      1.00      5.24
    3   17    3      0.31     -1.06
    3   17    2     -0.86     -2.33
    3   17    1      2.22      0.27
    3   17    0      3.52     -3.88
   -3   17    1      1.91     -2.50
   -3   17    2     -1.50      1.04
   -3   17    3     -1.64      1.50
   -3   17    4     -1.67     -0.70
   -3   17    5     -0.24     -1.96
   -3   17    6     -0.44     -0.75
   -3   17    7     -0.96     -1.10
   -3   17    8     -0.86      2.93
   -3   17    9     -0.58     -1.07
   -3   17   10     -3.20     -1.47
   -3   17   11     -5.22     -2.78
   -3   17   12     -4.18     -2.12
    2   16   12     -0.59      5.80
    2   16   11     -1.74      2.65
    2   16   10      1.12     -1.03
    2   16    9      0.57      1.21
    2   16    8     -1.44      3.86
    2   16    7      0.67      1.20
    2   16    6     -1.18     -0.71
    2   16    5     -0.24      0.07
    2   16    4     -0.49      4.04
    2   16    3     -0.87      3.97
    2   16    2     -0.52      3.73
    2   16    1     -0.31      8.76
    2   16    0      1.61     12.33
   -2   16    1      0.29      7.77
   -2   16    2      0.22      2.10
   -2   16    3      1.65     -0.01
   -2   16    4     -0.93      2.65
   -2   16    5      0.79      1.04
   -2   16    6      0.87     -0.31
   -2   16    7      1.26      3.72
   -2   16    8      1.83      0.94
   -2   16    9     -0.32      1.27
   -2   16   10     -0.38      2.70
   -2   16   11      0.46      3.37
   -2   16   12      0.81      3.08
    1   15   12      1.42      1.91
    1   15   11      1.58      5.12
    1   15   10      0.21     -0.95
    1   15    9      1.81     -1.70
    1   15    8     -0.22     -0.49
    1   15    7      1.32     -2.13
    1   15    6      2.89      1.89
    1   15    5      1.46      2.55
    1   15    4      5.38      4.12
    1   15    3     -0.19      3.05
    1   15    2     -1.72      3.96
    1   15    1     -2.32     -0.69
    1   15    0     -6.07    -11.72
   -1   15    1     -3.60     -1.04
   -1   15    2     -2.27      1.29
   -1   15    3     -2.23      0.58
   -1   15    4      0.01      1.24
   -1   15    5     -1.67     -0.40
   -1   15    6      0.17     -0.82
   -1   15    7     -1.65     -2.76
   -1   15    8      0.46     -0.30
   -1   15    9      1.10     -0.62
   -1   15   10     -1.90      1.78
   -1   15   11     -0.51      9.18
   -1   15   12      0.01      6.68
    0   14   13      1.95      3.75
    0   14   12      4.68      1.26
    0   14   11      1.94      0.67
    0   14   10      2.40     -0.54
    0   14    9      1.07      2.01
    0   14    8      3.47      1.69
    0   14    7      0.96      0.17
    0   14    6     -5.11      1.10
    0   14    5      0.16      0.69
    0   14    4      1.68      2.36
    0   14    3      1.37      0.95
    0   14    2      2.79      2.48
    0   14    1      8.97      4.81
    0   14    0     10.46     11.12
  -14    0   13     -1.17     -0.20
  -14    0   12      0.86     -0.09
  -14    0   11      0.12     -0.12
  -14    0   10     -1.52     -0.12
  -14    0    9     -2.55     -0.01
  -14    0    8     -0.86     -0.09
  -14    0    7     -0.89      0.06
  -14    0    6     -0.09     -0.02
  -14    0    5      1.46      0.03
  -14    0    4     -2.13     -0.02
  -14    0    3     -0.92     -0.25
  -14    0    2     -0.76     -0.14
  -14    0    1     -1.69     -0.13
   14    0    0      0.59      0.46
   14    0    1     -1.54     -0.06
   14    0    2     -1.07      0.06
   14    0    3      0.70      0.20
   14    0    4     -2.57      0.06
   14    0    5     -0.52      0.14
   14    0    6     -0.83      0.11
   14    0    7     -0.56      0.11
   14    0    8     -0.64     -0.10
   14    0    9     -0.13     -0.08
   14    0   10      0.44      0.00
   14    0   11     -0.28      0.05
   14    0   12      1.76      0.00
  -15    1   12      0.30     -0.05
  -15    1   11     -0.51      0.99
  -15    1   10     -0.65      0.38
  -15    1    9      0.00     -0.42
  -15    1    8     -1.06     -0.36
  -15    1    7      0.89      0.11
  -15    1    6      3.49      1.26
  -15    1    5     -0.53     -1.14
  -15    1    4      0.61     -0.23
  -15    1    3      0.57     -0.42
  -15    1    2      3.10      0.99
  -15    1    1     -0.28      0.17
   15    1    0     -1.97     -1.63
   15    1    1     -3.27     -2.80
   15    1    2     -2.13      0.21
   15    1    3     -0.59      0.89
   15    1    4     -1.13     -0.89
   15    1    5     -1.38     -0.52
   15    1    6      0.51      0.70
   15    1    7     -0.25      0.15
   15    1    8      1.66      1.05
   15    1    9      0.61      0.28
   15    1   10     -2.52     -0.31
   15    1   11     -0.20     -0.71
   15    1   12     -0.86     -0.47
  -16    2   12      2.18     -0.82
  -16    2   11      0.82      1.46
  -16    2   10     -0.21     -0.03
  -16    2    9      0.69     -0.94
  -16    2    8      0.30     -0.20
  -16    2    7     -1.04     -1.01
  -16    2    6     -0.78     -0.19
  -16    2    5     -1.46      0.41
  -16    2    4     -2.92     -1.34
  -16    2    3     -0.03     -1.39
  -16    2    2     -1.72     -1.33
  -16    2    1     -2.95     -1.06
   16    2    0     -0.11     -1.92
   16    2    1     -0.85     -0.96
   16    2    2     -0.71     -1.13
   16    2    3     -2.05     -0.40
   16    2    4     -1.16     -0.57
   16    2    5     -0.98     -0.01
   16    2    6     -0.51      1.11
   16    2    7     -1.28      0.17
   16    2    8     -0.02     -0.93
   16    2    9     -0.61     -0.72
   16    2   10     -0.61      0.58
   16    2   11     -0.64     -1.36
   16    2   12     -0.19      1.04
  -17    3   12      1.15     -1.95
  -17    3   11     -0.48     -0.94
  -17    3   10     -0.76     -0.36
  -17    3    9      0.44      1.43
  -17    3    8      0.01      0.32
  -17    3    7     -0.18      0.28
  -17    3    6     -0.46      1.21
  -17    3    5      0.71     -0.88
  -17    3    4      0.13      0.41
  -17    3    3      0.21      0.17
  -17    3    2     -0.06      0.52
  -17    3    1     -0.74      0.18
   17    3    0      1.28     -0.74
   17    3    1      1.31      0.31
   17    3    2      0.25     -1.07
   17    3    3     -0.50     -0.18
   17    3    4      1.12      0.09
   17    3    5     -0.22     -1.14
   17    3    6     -0.25     -0.33
   17    3    7     -0.38      0.14
   17    3    8     -0.58      1.21
   17    3    9     -0.91      0.35
   17    3   10     -1.82     -0.42
   17    3   11      2.75     -1.17
  -18    4   11     -0.30      0.58
  -18    4   10     -0.07      0.50
  -18    4    9      0.38      2.32
  -18    4    8      0.73      1.79
  -18    4    7      1.93     -0.28
  -18    4    6      1.09      0.06
  -18    4    5      1.60      0.09
  -18    4    4      0.32     -2.05
  -18    4    3     -0.57     -0.58
  -18    4    2      0.39     -1.27
  -18    4    1     -0.40     -1.87
   18    4    0      1.56     -0.86
   18    4    1      1.20     -1.41
   18    4    2      1.75     -1.43
   18    4    3      1.15     -1.98
   18    4    4     -0.54     -0.30
   18    4    5     -0.56     -2.36
   18    4    6     -1.39     -0.93
   18    4    7     -2.34     -1.84
   18    4    8      0.72     -0.63
   18    4    9      0.85     -2.22
   18    4   10      0.96     -1.28
   18    4   11      2.40     -3.99
  -19    5   11     -0.30      0.37
  -19    5   10      0.91     -0.17
  -19    5    9     -1.97     -0.55
  -19    5    8     -0.48     -0.60
  -19    5    7     -1.12     -0.93
  -19    5    6     -0.62     -0.02
  -19    5    5      0.07      0.80
  -19    5    4     -1.22     -0.10
  -19    5    3     -0.33     -0.11
  -19    5    2      0.11     -0.51
  -19    5    1     -0.73      0.55
   19    5    0     -0.03      0.51
   19    5    1     -1.08      1.34
   19    5    2      1.60      0.11
   19    5    3     -0.11      0.68
   19    5    4     -0.71      0.55
   19    5    5      0.77      0.46
   19    5    6      2.19     -0.97
   19    5    7     -1.64     -0.81
   19    5    8     -1.00      0.08
   19    5    9     -0.37     -1.43
   19    5   10     -0.98     -1.22
   19    5   11      0.60      1.97
  -20    6   11      0.17      1.17
  -20    6   10      0.97      0.87
  -20    6    9     -0.81      1.14
  -20    6    8      0.42      1.00
  -20    6    7      0.61      1.51
  -20    6    6      1.14      0.88
  -20    6    5      0.45      0.13
  -20    6    4      0.02     -0.39
  -20    6    3      0.84     -1.19
  -20    6    2     -0.49     -0.52
  -20    6    1     -1.81      0.97
   20    6    0     -0.27      0.85
   20    6    1      1.62      0.39
   20    6    2      0.70      0.49
   20    6    3     -0.49      0.66
   20    6    4     -1.54     -1.10
   20    6    5      1.24     -2.15
   20    6    6     -0.27     -1.10
   20    6    7     -0.09     -1.88
   20    6    8     -0.62      1.32
   20    6    9      2.44      0.79
   20    6   10      2.84      0.88
  -21    7   10     -0.86     -0.60
  -21    7    9      0.07     -0.68
  -21    7    8      1.15      0.27
  -21    7    7      0.99     -0.94
  -21    7    6      0.84     -0.24
  -21    7    5     -0.61     -0.85
  -21    7    4     -0.19     -1.75
  -21    7    3     -0.38     -0.15
  -21    7    2      0.79     -1.24
  -21    7    1      0.11     -0.86
   21    7    0     -0.47     -0.51
   21    7    1     -1.79      0.28
   21    7    2      0.30      1.29
   21    7    3     -1.70      0.00
   21    7    4     -0.13     -1.65
   21    7    5     -1.11      0.37
   21    7    6      0.24      1.90
   21    7    7     -0.27     -0.20
   21    7    8     -0.88     -0.45
   21    7    9      0.08     -0.11
  -22    8    9     -1.69      0.93
  -22    8    8     -1.78      2.05
  -22    8    7     -0.29      1.17
  -22    8    6      0.57     -0.51
  -22    8    5      1.32     -0.29
  -22    8    4      1.09     -1.73
  -22    8    3      0.12     -0.14
  -22    8    2     -0.23     -0.61
  -22    8    1     -1.28     -1.26
   22    8    0     -1.21      0.11
   22    8    1      0.66      0.91
   22    8    2     -0.20      0.12
   22    8    3     -1.22     -0.12
   22    8    4      0.46     -1.44
   22    8    5      0.35     -0.16
   22    8    6     -0.17     -0.95
   22    8    7     -0.56     -0.25
   22    8    8     -1.58     -1.29
   22    8    9      0.36      0.94
  -23    9    9     -1.47     -1.24
  -23    9    8     -2.60     -1.04
  -23    9    7     -0.19      0.05
  -23    9    6     -1.24      0.87
  -23    9    5     -1.61      0.20
  -23    9    4     -0.89     -0.31
  -23    9    3     -3.01      0.70
  -23    9    2      0.68      1.11
  -23    9    1     -0.20      0.57
   23    9    0     -1.81      1.15
   23    9    1     -1.77      0.56
   23    9    2     -0.37      0.70
   23    9    3     -0.32     -0.25
   23    9    4      1.97      0.35
   23    9    5      0.52      0.56
   23    9    6      0.91     -0.43
   23    9    7     -0.68     -0.63
   23    9    8     -0.61      0.01
  -24   10    8     -2.86     -0.76
  -24   10    7     -1.05      0.47
  -24   10    6      0.35      0.32
  -24   10    5     -0.11      1.61
  -24   10    4      0.56     -0.65
  -24   10    3      0.03      0.43
  -24   10    2     -0.73     -0.85
  -24   10    1     -0.42      1.09
   24   10    0     -0.17      0.35
   24   10    1      0.17      0.90
   24   10    2     -0.53      1.25
   24   10    3     -0.36     -0.93
   24   10    4      0.65      1.15
   24   10    5     -0.35     -1.13
   24   10    6      0.79     -0.31
   24   10    7     -0.28     -0.04
  -25   11    7      0.53     -1.13
  -25   11    6     -2.01     -0.96
  -25   11    5     -1.75     -2.39
  -25   11    4     -1.71     -3.40
  -25   11    3     -2.09     -2.86
  -25   11    2     -2.39     -0.94
  -25   11    1     -1.52      0.54
   25   11    0     -0.81      0.44
   25   11    1     -1.55     -0.87
   25   11    2     -0.82      1.44
   25   11    3     -0.02      1.29
   25   11    4      0.19      0.94
   25   11    5     -1.40      0.97
   25   11    6     -0.03      1.41
  -26   12    5     -3.83     -0.24
  -26   12    4     -2.07     -0.63
  -26   12    3     -2.96      1.02
  -26   12    2     -1.35     -0.95
  -26   12    1     -1.48      1.37
   26   12    0     -0.31      0.79
   26   12    1     -0.59      1.56
   26   12    2     -1.82      0.11
   26   12    3      1.04      0.87
   26   12    4     -0.98      1.89
   26   12    5      1.08     -0.98
  -27   13    3      2.65     -0.67
  -27   13    2      0.24     -2.59
  -27   13    1     -0.94      0.06
   27   13    0     -1.04      1.97
   27   13    1     -0.31      0.59
   27   13    2     -0.06      0.50
   27   13    3     -1.23     -0.01
   12   28    3     -0.90      2.12
   12   28    2     -1.03     -0.16
   12   28    1     -1.22      1.37
   12   28    0     -1.47      0.11
  -12   28    1     -0.38      1.77
  -12   28    2      0.55      0.85
  -12   28    3      0.71      1.20
   11   27    5      0.38      0.68
   11   27    4     -1.44      0.42
   11   27    3     -0.87     -0.77
   11   27    2     -0.82      0.07
   11   27    1      0.27     -1.01
   11   27    0     -0.13     -2.36
  -11   27    1      0.13     -0.30
  -11   27    2      0.42     -1.19
  -11   27    3     -1.61     -0.09
  -11   27    4      0.26     -1.36
  -11   27    5      0.91     -0.26
   10   26    6     -0.14      0.84
   10   26    5     -0.55      0.58
   10   26    4      1.10      2.44
   10   26    3      1.17      1.07
   10   26    2     -0.72      1.28
   10   26    1     -1.01      0.69
   10   26    0     -0.25      1.05
  -10   26    1      0.13      0.97
  -10   26    2     -0.15     -0.08
  -10   26    3      0.95      0.71
  -10   26    4      0.56     -1.90
  -10   26    5      0.63     -1.13
  -10   26    6      0.58     -2.59
    9   25    7      1.18     -2.31
    9   25    6      2.20      0.89
    9   25    5      1.16     -1.46
    9   25    4      0.42      0.34
    9   25    3      1.19      0.63
    9   25    2      0.70     -0.37
    9   25    1      1.02     -0.55
    9   25    0      2.01     -1.28
   -9   25    1      0.26      0.81
   -9   25    2      0.08      0.69
   -9   25    3     -0.85     -0.15
   -9   25    4      0.70     -1.26
   -9   25    5     -0.93     -1.30
   -9   25    6      0.19      0.09
   -9   25    7      0.76      1.21
    8   24    8     -0.74      2.27
    8   24    7     -0.52      0.99
    8   24    6      0.17      1.45
    8   24    5      0.85      2.25
    8   24    4      4.19      0.96
    8   24    3      0.49      0.41
    8   24    2      1.78      0.12
    8   24    1      0.86      0.63
    8   24    0      1.64      0.81
   -8   24    1      0.10      0.28
   -8   24    2      0.27      0.88
   -8   24    3      1.50      0.70
   -8   24    4     -1.72     -0.55
   -8   24    5     -0.56      1.45
   -8   24    6     -2.24      0.77
   -8   24    7     -1.41      1.44
   -8   24    8     -1.46      1.10
    7   23    9      0.01     -1.84
    7   23    8     -0.52     -1.65
    7   23    7     -4.74     -0.91
    7   23    6     -1.33     -0.13
    7   23    5     -1.09     -2.21
    7   23    4      0.63     -1.07
    7   23    3      0.06     -0.66
    7   23    2     -2.17     -3.01
    7   23    1     -0.94     -2.23
    7   23    0      0.18     -4.25
   -7   23    1     -1.67     -0.82
   -7   23    2     -0.04     -1.55
   -7   23    3     -1.66     -1.44
   -7   23    4     -0.11     -1.44
   -7   23    5     -3.54     -0.98
   -7   23    6     -0.68     -0.32
   -7   23    7      1.53      0.13
   -7   23    8     -0.35     -1.39
   -7   23    9      0.32      0.21
    6   22    9      0.91      0.96
    6   22    8     -0.53      1.08
    6   22    7      0.45      1.17
    6   22    6      0.22      1.37
    6   22    5      2.22      0.19
    6   22    4      2.10     -1.79
    6   22    3      0.91      0.12
    6   22    2      1.08     -1.13
    6   22    1      1.50      0.11
    6   22    0      1.31     -0.02
   -6   22    1     -0.65     -0.43
   -6   22    2      1.56     -0.66
   -6   22    3      1.83     -1.93
   -6   22    4      0.16     -0.18
   -6   22    5      1.28     -0.16
   -6   22    6      0.10      0.61
   -6   22    7      1.56      1.37
   -6   22    8      2.43      1.12
   -6   22    9      0.46     -0.15
   -6   22   10     -0.23     -0.03
    5   21   10      1.64      0.87
    5   21    9     -2.71      0.47
    5   21    8     -1.33      1.67
    5   21    7     -2.98      4.70
    5   21    6      1.18      0.93
    5   21    5      1.04      0.48
    5   21    4     -1.05     -0.71
    5   21    3      0.57      1.56
    5   21    2     -2.52      0.97
    5   21    1     -0.73      1.62
    5   21    0     -1.33     -0.63
   -5   21    1     -1.81      3.03
   -5   21    2     -0.52     -0.09
   -5   21    3     -2.94      1.32
   -5   21    4     -1.75     -1.62
   -5   21    5     -2.87      1.74
   -5   21    6     -1.08      1.46
   -5   21    7     -2.10     -2.69
   -5   21    8     -2.00     -4.89
   -5   21    9     -0.91     -1.19
   -5   21   10      0.16      1.42
    4   20   11      1.68     -1.33
    4   20   10      0.43      1.75
    4   20    9      0.35      0.00
    4   20    8      0.12      0.92
    4   20    7      0.44      1.23
    4   20    6      0.73      2.37
    4   20    5      1.00     -0.46
    4   20    4      0.77     -1.00
    4   20    3      1.43     -0.62
    4   20    2      0.97     -0.93
    4   20    1      1.69     -1.91
    4   20    0      0.26      0.09
   -4   20    1     -0.86     -0.10
   -4   20    2      1.89     -1.96
   -4   20    3      1.06     -1.60
   -4   20    4     -0.74     -1.56
   -4   20    5     -1.21     -2.00
   -4   20    6     -0.05      0.79
   -4   20    7     -0.77      0.55
   -4   20    8      0.40     -0.57
   -4   20    9     -0.76      0.84
   -4   20   10     -1.40     -0.39
   -4   20   11     -1.32      0.47
    3   19   11      1.96     -4.89
    3   19   10     -0.54     -1.03
    3   19    9      0.33      1.46
    3   19    8      3.78      2.70
    3   19    7      2.51      4.38
    3   19    6      0.65      1.90
    3   19    5      2.28     -0.57
    3   19    4     -0.71      1.40
    3   19    3      4.53      0.32
    3   19    2      3.43      0.63
    3   19    1      3.37      1.34
    3   19    0      3.18     -1.83
   -3   19    1      5.18      0.41
   -3   19    2     -1.22     -3.05
   -3   19    3     -1.87     -1.18
   -3   19    4     -2.56     -1.04
   -3   19    5     -0.63     -0.14
   -3   19    6     -0.35     -1.09
   -3   19    7     -2.46      0.98
   -3   19    8     -5.73     -0.97
   -3   19    9     -1.52     -1.43
   -3   19   10     -0.85     -0.37
   -3   19   11      5.04     -0.56
    2   18   11     -0.37     -1.02
    2   18   10      1.07      1.49
    2   18    9     -0.38      0.39
    2   18    8     -1.86     -0.23
    2   18    7      0.23      1.39
    2   18    6      2.15      0.50
    2   18    5      1.34     -0.52
    2   18    4     -0.54      0.16
    2   18    3      1.13     -1.39
    2   18    2      2.03     -0.20
    2   18    1     -1.90      1.51
    2   18    0     -2.15      3.78
   -2   18    1     -0.28      1.68
   -2   18    2      1.72     -1.09
   -2   18    3      1.21     -1.33
   -2   18    4     -1.39      0.25
   -2   18    5     -0.91      1.39
   -2   18    6      0.74      1.01
   -2   18    7     -2.15      2.47
   -2   18    8      0.28      0.96
   -2   18    9      0.56      1.14
   -2   18   10     -2.01      0.85
   -2   18   11     -0.60      0.94
    1   17   12     -9.25     -2.23
    1   17   11     -8.47     -0.07
    1   17   10     -3.33      0.08
    1   17    9     -0.23     -0.18
    1   17    8      3.67     -2.69
    1   17    7      3.91      0.15
    1   17    6      1.95      2.13
    1   17    5      1.49     -3.31
    1   17    4      1.27      1.56
    1   17    3      0.55     -3.13
    1   17    2     -1.25     -5.26
    1   17    1      2.23     -5.67
    1   17    0      4.11     -7.72
   -1   17    1     -0.78     -5.76
   -1   17    2     -5.81     -0.58
   -1   17    3     -4.22      2.04
   -1   17    4     -1.96      3.76
   -1   17    5     -0.48      0.72
   -1   17    6     -0.97      4.19
   -1   17    7     -0.22      1.07
   -1   17    8     -0.50      0.69
   -1   17    9     -1.51      0.53
   -1   17   10     -1.94      0.17
   -1   17   11     -5.27     -0.30
   -1   17   12     -3.75     -0.87
    0   16   12      0.71      2.92
    0   16   11     -0.98      1.08
    0   16   10      0.34      0.02
    0   16    9      0.08      0.54
    0   16    8      0.63      3.15
    0   16    7      1.38      2.81
    0   16    6      0.36     -2.33
    0   16    5      1.09     -0.88
    0   16    4      0.64      1.57
    0   16    3      1.77     -2.05
    0   16    2      1.53     -2.47
    0   16    1      2.88      2.58
    0   16    0      3.57      5.97
  -16    0   12      0.13      0.04
  -16    0   11      2.43     -0.03
  -16    0   10      0.65      0.00
  -16    0    9     -0.50     -0.05
  -16    0    8      0.49      0.15
  -16    0    7      0.61      0.25
  -16    0    6      0.24      0.06
  -16    0    5      0.06      0.25
  -16    0    4     -2.06      0.18
  -16    0    3      0.08     -0.07
  -16    0    2      0.24      0.01
  -16    0    1     -0.73     -0.07
   16    0    0      0.14      0.13
   16    0    1      0.38     -0.07
   16    0    2      0.98     -0.01
   16    0    3      2.78     -0.04
   16    0    4      0.91      0.07
   16    0    5      1.58      0.16
   16    0    6      0.48      0.05
   16    0    7     -0.91      0.24
   16    0    8     -0.16      0.16
   16    0    9     -0.17      0.03
   16    0   10      1.73      0.04
   16    0   11      1.16     -0.03
   16    0   12      2.58     -0.02
  -17    1   12      0.00     -2.90
  -17    1   11     -0.07     -1.94
  -17    1   10      0.15     -0.97
  -17    1    9     -1.22     -2.00
  -17    1    8     -2.37     -0.96
  -17    1    7     -0.61      1.33
  -17    1    6     -0.36      2.10
  -17    1    5     -2.41      0.28
  -17    1    4     -0.64      0.90
  -17    1    3      0.36      0.93
  -17    1    2      1.69      2.01
  -17    1    1     -0.35      0.32
   17    1    0      0.57     -1.43
   17    1    1     -0.45     -2.43
   17    1    2      0.06     -1.56
   17    1    3      1.24     -0.19
   17    1    4     -0.03     -1.12
   17    1    5     -0.74     -0.40
   17    1    6     -0.30     -0.45
   17    1    7     -1.29     -1.20
   17    1    8      0.74     -0.09
   17    1    9     -0.49     -0.77
   17    1   10     -2.07     -1.11
   17    1   11      0.03     -2.00
  -18    2   12      1.99     -3.53
  -18    2   11      0.87      0.88
  -18    2   10     -0.06      1.06
  -18    2    9      1.74     -0.27
  -18    2    8      2.46      0.30
  -18    2    7      0.41     -0.06
  -18    2    6      0.04      0.43
  -18    2    5      0.60     -0.52
  -18    2    4     -0.56     -1.46
  -18    2    3      1.22      1.00
  -18    2    2     -1.15     -0.49
  -18    2    1     -1.97      0.22
   18    2    0      0.90     -0.73
   18    2    1      0.24      0.28
   18    2    2      0.73     -0.28
   18    2    3     -0.01     -0.12
   18    2    4      0.33      0.85
   18    2    5     -0.92      0.39
   18    2    6     -0.90      0.03
   18    2    7     -1.60      0.04
   18    2    8     -0.14     -0.36
   18    2    9     -0.24      0.16
   18    2   10      0.52      0.59
   18    2   11     -0.88     -1.75
  -19    3   11      2.82     -0.07
  -19    3   10      2.24     -0.82
  -19    3    9      1.71      0.29
  -19    3    8      1.81     -0.99
  -19    3    7     -1.34     -0.42
  -19    3    6     -1.94     -0.20
  -19    3    5      0.10     -1.17
  -19    3    4     -0.58     -0.27
  -19    3    3      0.02     -0.36
  -19    3    2     -1.42      0.19
  -19    3    1      0.07      0.01
   19    3    0      1.67     -0.16
   19    3    1      0.27      1.44
   19    3    2      0.62     -0.92
   19    3    3     -0.84     -0.21
   19    3    4      0.05      0.19
   19    3    5     -0.40     -1.10
   19    3    6     -0.01     -1.75
   19    3    7     -0.17     -0.64
   19    3    8      0.40     -0.55
   19    3    9     -0.56     -0.71
   19    3   10     -1.03      0.60
   19    3   11      2.94      0.67
  -20    4   11      2.91      0.40
  -20    4   10      0.87     -0.72
  -20    4    9      1.11      1.83
  -20    4    8      0.98      2.74
  -20    4    7      0.31      0.56
  -20    4    6      0.27      0.18
  -20    4    5      0.40      1.18
  -20    4    4      1.59      0.33
  -20    4    3     -0.50      0.34
  -20    4    2     -0.65     -0.81
  -20    4    1      0.21      0.42
   20    4    0      0.31      0.39
   20    4    1     -0.59     -0.38
   20    4    2      0.80     -0.19
   20    4    3      1.47      0.27
   20    4    4      0.47      0.87
   20    4    5     -0.02     -2.32
   20    4    6      0.42     -1.72
   20    4    7     -1.67     -1.56
   20    4    8      0.76      1.01
   20    4    9      0.78      0.10
   20    4   10      1.23     -0.21
  -21    5   10      1.27      2.68
  -21    5    9     -0.39      1.35
  -21    5    8      0.06      0.58
  -21    5    7     -0.92     -0.27
  -21    5    6     -0.60     -0.38
  -21    5    5     -0.30      0.50
  -21    5    4     -1.08     -0.28
  -21    5    3      0.02     -0.36
  -21    5    2     -0.73     -1.23
  -21    5    1     -0.13      0.02
   21    5    0     -0.37      0.26
   21    5    1     -1.37     -0.13
   21    5    2      1.38     -1.19
   21    5    3      0.22     -0.61
   21    5    4     -0.92     -1.00
   21    5    5      0.56     -0.03
   21    5    6      2.59     -0.49
   21    5    7     -1.07     -1.23
   21    5    8     -0.35      0.09
   21    5    9      0.04      0.07
   21    5   10     -0.68     -0.02
  -22    6   10      0.44      1.37
  -22    6    9     -0.76      0.34
  -22    6    8     -0.24      0.43
  -22    6    7      0.77     -0.82
  -22    6    6     -0.08     -0.98
  -22    6    5     -0.39     -1.90
  -22    6    4     -0.58     -0.44
  -22    6    3      0.12      0.35
  -22    6    2      0.49     -0.59
  -22    6    1     -1.01      0.79
   22    6    0     -0.64      0.34
   22    6    1      0.85     -1.33
   22    6    2      0.66     -0.09
   22    6    3     -0.53      1.84
   22    6    4     -1.58      1.25
   22    6    5      0.67      0.50
   22    6    6     -0.32      0.62
   22    6    7     -0.55      0.17
   22    6    8     -2.75      1.99
   22    6    9     -0.72      1.54
  -23    7    9     -2.69      0.77
  -23    7    8     -1.45      1.15
  -23    7    7     -0.80     -0.14
  -23    7    6     -1.18     -0.15
  -23    7    5     -0.96     -0.19
  -23    7    4     -0.96     -0.74
  -23    7    3     -0.02      1.97
  -23    7    2      0.98     -0.63
  -23    7    1     -0.30      0.76
   23    7    0      0.02      1.38
   23    7    1     -0.23      1.20
   23    7    2      0.79      1.50
   23    7    3     -0.33      0.95
   23    7    4      0.41     -1.52
   23    7    5      0.33     -0.73
   23    7    6      0.23      0.33
   23    7    7     -0.05     -0.19
   23    7    8      0.12     -0.33
  -24    8    8     -0.19      1.11
  -24    8    7      0.83      0.71
  -24    8    6     -0.31     -1.49
  -24    8    5      1.06     -0.53
  -24    8    4     -0.79     -1.60
  -24    8    3     -1.57     -0.11
  -24    8    2     -2.12      0.12
  -24    8    1     -0.33      0.73
   24    8    0     -0.27      0.19
   24    8    1      0.95      0.42
   24    8    2      1.47      1.48
   24    8    3     -1.71      0.75
   24    8    4     -0.37     -0.60
   24    8    5     -2.30     -0.36
   24    8    6     -1.69     -1.49
   24    8    7     -1.88      0.33
   24    8    8     -2.49     -1.83
  -25    9    7     -1.24     -1.91
  -25    9    6     -1.06     -1.29
  -25    9    5     -1.25     -0.58
  -25    9    4     -1.36     -0.67
  -25    9    3     -2.56      0.46
  -25    9    2     -0.35      1.47
  -25    9    1     -0.68      2.10
   25    9    0     -1.09      1.26
   25    9    1     -2.70      1.45
   25    9    2     -0.30      0.78
   25    9    3     -1.30     -0.47
   25    9    4      0.24     -1.18
   25    9    5      0.28      0.25
   25    9    6      1.16      0.73
   25    9    7     -0.59     -0.87
  -26   10    6      0.70     -0.13
  -26   10    5     -0.24      1.76
  -26   10    4      0.24     -1.28
  -26   10    3     -0.19      1.41
  -26   10    2     -1.36     -2.32
  -26   10    1      0.19      1.28
   26   10    0      0.25      0.22
   26   10    1      0.03     -0.20
   26   10    2     -0.91      3.41
   26   10    3     -0.38     -1.24
   26   10    4      0.60      0.20
   26   10    5     -1.06     -3.05
  -27   11    5     -0.56     -0.55
  -27   11    4     -1.70     -2.09
  -27   11    3      0.10     -0.22
  -27   11    2     -2.31      0.37
  -27   11    1     -3.94      2.31
   27   11    0      1.64      3.10
   27   11    1     -0.36     -1.32
   27   11    2     -0.72      0.13
   27   11    3      1.01     -0.48
   27   11    4      1.40     -2.03
  -28   12    2      0.93     -2.06
  -28   12    1      0.96      1.64
   28   12    0      0.30     -0.89
   28   12    1      0.35      0.24
   28   12    2     -2.20      0.16
   11   29    1     -0.17     -0.30
   11   29    0      1.11     -0.47
  -11   29    1     -0.43      1.45
   10   28    4     -0.06     -0.11
   10   28    3      0.09     -0.37
   10   28    2     -1.42     -4.09
   10   28    1     -2.28     -2.28
   10   28    0     -1.94     -1.64
  -10   28    1     -1.02      0.43
  -10   28    2     -0.12      0.24
  -10   28    3     -1.33      0.27
  -10   28    4     -0.16     -0.16
    9   27    5      1.24      1.06
    9   27    4     -0.41     -0.51
    9   27    3     -0.96      0.42
    9   27    2     -0.22     -0.08
    9   27    1      0.58      0.91
    9   27    0      2.09      0.48
   -9   27    1      1.17      1.77
   -9   27    2      1.29      0.26
   -9   27    3     -0.18      0.04
   -9   27    4      1.26      0.22
   -9   27    5      0.41      0.76
   -9   27    6      0.64      2.47
    8   26    7     -1.70     -2.20
    8   26    6     -2.64      0.06
    8   26    5     -2.44     -0.62
    8   26    4      0.44      2.22
    8   26    3      0.30     -0.06
    8   26    2     -1.77      0.66
    8   26    1     -2.54      1.16
    8   26    0     -1.10      0.25
   -8   26    1     -0.67      0.26
   -8   26    2     -1.02      0.26
   -8   26    3     -0.95      1.16
   -8   26    4     -0.41     -1.29
   -8   26    5     -2.36      0.70
   -8   26    6     -1.66     -1.34
   -8   26    7     -0.48      0.99
    7   25    8     -0.99      0.08
    7   25    7     -0.51     -3.45
    7   25    6      0.57      0.54
    7   25    5      1.04     -2.10
    7   25    4     -0.93     -1.63
    7   25    3      0.54     -0.63
    7   25    2      0.90     -3.59
    7   25    1      2.03     -2.26
    7   25    0      3.16     -2.64
   -7   25    1      0.85     -0.52
   -7   25    2     -0.14      0.06
   -7   25    3     -1.91      0.14
   -7   25    4      0.96      0.40
   -7   25    5     -0.26      0.05
   -7   25    6      1.86      1.02
   -7   25    7      2.73      1.81
   -7   25    8      3.01     -1.65
    6   24    8     -1.18      1.83
    6   24    7     -1.52      1.20
    6   24    6     -0.45      1.62
    6   24    5      1.19      0.76
    6   24    4      4.53      0.36
    6   24    3      1.24     -0.58
    6   24    2      1.09     -1.77
    6   24    1      1.82     -0.62
    6   24    0      0.73     -0.17
   -6   24    1     -0.59     -0.47
   -6   24    2      0.41      0.48
   -6   24    3      1.63      0.49
   -6   24    4     -1.56     -0.56
   -6   24    5      0.34      2.17
   -6   24    6     -0.14      1.85
   -6   24    7      0.94      2.86
   -6   24    8     -0.24      1.93
   -6   24    9      1.65      1.18
    5   23    9     -1.73      1.19
    5   23    8     -0.76      1.00
    5   23    7     -4.28      1.29
    5   23    6     -0.41      3.14
    5   23    5     -1.27      0.47
    5   23    4     -1.27      0.47
    5   23    3     -1.82      0.85
    5   23    2     -4.51     -3.41
    5   23    1     -2.12     -1.95
    5   23    0     -0.45     -3.30
   -5   23    1     -1.64     -0.45
   -5   23    2      0.13     -0.24
   -5   23    3     -0.59      1.30
   -5   23    4      1.99     -0.08
   -5   23    5     -1.98     -0.55
   -5   23    6      0.75     -1.81
   -5   23    7      3.62     -3.55
   -5   23    8      2.37     -4.46
   -5   23    9      0.84     -3.05
    4   22   10      1.43      2.39
    4   22    9      2.66      1.11
    4   22    8     -0.15     -0.41
    4   22    7     -0.26     -0.34
    4   22    6     -0.20      0.73
    4   22    5      0.75     -2.65
    4   22    4      0.97     -2.62
    4   22    3      0.17     -1.56
    4   22    2     -0.67     -2.37
    4   22    1      0.54     -1.55
    4   22    0     -0.39     -1.04
   -4   22    1     -0.78     -3.09
   -4   22    2      0.77     -0.54
   -4   22    3      0.12     -1.31
   -4   22    4     -0.85      0.28
   -4   22    5     -0.02     -0.90
   -4   22    6     -0.75     -0.61
   -4   22    7      1.86     -0.84
   -4   22    8      2.51     -0.66
   -4   22    9      0.28     -1.70
   -4   22   10      0.34     -0.63
    3   21   10      1.27      3.54
    3   21    9     -1.19      2.17
    3   21    8      0.37      2.78
    3   21    7     -0.18      4.17
    3   21    6      3.02      0.80
    3   21    5      2.04      0.88
    3   21    4     -0.53     -0.73
    3   21    3      0.70      1.35
    3   21    2     -3.28      0.90
    3   21    1     -1.08      1.81
    3   21    0     -0.27     -0.99
   -3   21    1     -1.43      2.46
   -3   21    2     -0.12     -1.94
   -3   21    3      0.59     -0.05
   -3   21    4      0.48     -2.67
   -3   21    5      0.00      0.14
   -3   21    6      0.67     -0.20
   -3   21    7     -4.28     -2.67
   -3   21    8     -2.26     -6.43
   -3   21    9     -1.18     -1.98
   -3   21   10     -0.87      2.27
    2   20   11      2.39     -1.73
    2   20   10     -0.46      0.24
    2   20    9     -1.35     -1.20
    2   20    8     -1.59     -1.59
    2   20    7     -2.29      0.67
    2   20    6     -0.62      1.30
    2   20    5     -1.87     -2.22
    2   20    4     -0.89     -1.28
    2   20    3      0.92     -0.93
    2   20    2     -1.51     -0.48
    2   20    1     -2.97     -3.28
    2   20    0     -3.05     -3.02
   -2   20    1     -5.07     -2.78
   -2   20    2      0.19     -0.76
   -2   20    3      1.10     -0.74
   -2   20    4     -0.42     -0.94
   -2   20    5     -1.59     -1.57
   -2   20    6     -0.62      0.97
   -2   20    7     -2.97     -0.79
   -2   20    8     -2.38     -1.76
   -2   20    9     -3.59      0.18
   -2   20   10     -2.14     -1.08
   -2   20   11     -1.08     -0.18
    1   19   11      4.40     -1.90
    1   19   10      0.59      0.54
    1   19    9      0.55      0.11
    1   19    8      3.19      1.16
    1   19    7      1.33      2.54
    1   19    6     -1.66      0.82
    1   19    5      0.29     -0.03
    1   19    4     -3.49      0.47
    1   19    3     -0.29     -1.42
    1   19    2     -0.25     -0.88
    1   19    1      3.63      1.27
    1   19    0      2.94     -0.91
   -1   19    1      5.31      2.22
   -1   19    2     -1.08     -0.82
   -1   19    3     -0.59     -1.92
   -1   19    4     -1.06     -1.07
   -1   19    5      1.61     -0.90
   -1   19    6     -0.52     -0.72
   -1   19    7      0.10      3.35
   -1   19    8     -0.86      0.69
   -1   19    9     -0.37     -1.62
   -1   19   10      0.62     -1.70
   -1   19   11      5.96     -5.73
    0   18   11     -2.52     -0.08
    0   18   10     -2.15      1.75
    0   18    9     -1.07      2.23
    0   18    8     -2.37      1.51
    0   18    7     -2.62      2.87
    0   18    6      0.53      0.39
    0   18    5     -1.11      0.02
    0   18    4     -2.43      0.62
    0   18    3     -0.50     -1.36
    0   18    2     -0.95      0.32
    0   18    1     -6.29      3.81
    0   18    0     -8.31      5.13
  -18    0   12     -1.10     -0.21
  -18    0   11      2.72     -0.14
  -18    0   10      1.54     -0.02
  -18    0    9     -1.52     -0.05
  -18    0    8     -0.80      0.20
  -18    0    7     -0.45      0.17
  -18    0    6     -0.57      0.04
  -18    0    5     -0.98      0.21
  -18    0    4     -1.67      0.13
  -18    0    3      1.84      0.21
  -18    0    2     -1.15      0.16
  -18    0    1     -0.95      0.11
   18    0    0     -0.70     -0.57
   18    0    1     -1.01     -0.36
   18    0    2     -1.46     -0.30
   18    0    3     -1.30     -0.26
   18    0    4     -0.28      0.11
   18    0    5      0.83      0.11
   18    0    6     -0.14      0.02
   18    0    7     -0.81     -0.09
   18    0    8     -0.54     -0.14
   18    0    9     -1.35      0.00
   18    0   10     -1.65      0.03
   18    0   11     -3.26      0.18
  -19    1   11     -0.33      0.33
  -19    1   10      0.20      0.69
  -19    1    9     -0.51     -1.41
  -19    1    8     -0.79     -3.10
  -19    1    7      1.27     -0.44
  -19    1    6      0.64     -0.33
  -19    1    5     -0.16     -2.02
  -19    1    4      0.86     -0.92
  -19    1    3      0.55     -0.91
  -19    1    2      0.97      0.83
  -19    1    1     -0.11     -0.10
   19    1    0      0.38     -0.74
   19    1    1      0.66      0.53
   19    1    2      0.05     -0.29
   19    1    3      0.53      0.32
   19    1    4      0.78     -0.56
   19    1    5      0.69      0.08
   19    1    6      0.64      0.15
   19    1    7     -0.70     -0.41
   19    1    8      0.32      0.74
   19    1    9     -0.31      1.08
   19    1   10      0.07      1.10
   19    1   11      1.18     -0.53
  -20    2   11      0.89     -1.07
  -20    2   10     -0.78      1.18
  -20    2    9      1.11     -1.22
  -20    2    8      2.99     -1.51
  -20    2    7     -0.42     -1.36
  -20    2    6     -1.06     -1.68
  -20    2    5      0.78     -1.43
  -20    2    4      0.49     -2.93
  -20    2    3      1.05      1.15
  -20    2    2     -1.25     -0.24
  -20    2    1     -0.05     -0.36
   20    2    0      1.01     -0.61
   20    2    1      0.30      0.11
   20    2    2      0.20     -1.51
   20    2    3     -0.01     -1.88
   20    2    4      0.67     -0.60
   20    2    5     -1.10      1.05
   20    2    6     -1.61     -0.09
   20    2    7     -2.50     -0.06
   20    2    8     -0.47     -0.29
   20    2    9     -0.76     -0.23
   20    2   10     -1.02     -2.63
  -21    3   10      0.72      0.26
  -21    3    9      0.85      0.24
  -21    3    8      2.56      0.82
  -21    3    7      0.17      2.03
  -21    3    6      0.09      1.79
  -21    3    5      2.81      0.95
  -21    3    4      1.61      1.59
  -21    3    3      1.11      0.69
  -21    3    2     -0.39      1.40
  -21    3    1      0.87      0.54
   21    3    0      1.31      0.82
   21    3    1     -0.10      2.46
   21    3    2      1.07     -0.12
   21    3    3      0.91     -0.12
   21    3    4      1.48      1.50
   21    3    5      0.88      1.09
   21    3    6     -0.12     -0.47
   21    3    7     -2.62      1.06
   21    3    8     -1.04      0.60
   21    3    9     -0.93      0.31
   21    3   10     -1.20      1.66
  -22    4   10      1.24     -1.67
  -22    4    9      1.06     -0.42
  -22    4    8      2.29      1.50
  -22    4    7      1.23     -1.95
  -22    4    6      2.15     -1.88
  -22    4    5      0.89     -0.48
  -22    4    4      2.50     -0.24
  -22    4    3      0.74      0.26
  -22    4    2     -0.97     -1.62
  -22    4    1      0.52      0.70
   22    4    0      0.82      0.74
   22    4    1     -1.05      0.22
   22    4    2      0.09      0.28
   22    4    3      1.35      0.94
   22    4    4      0.49      2.24
   22    4    5     -1.22     -0.44
   22    4    6     -1.89     -1.56
   22    4    7     -2.69     -2.16
   22    4    8      0.02      0.93
   22    4    9      0.04      0.57
  -23    5    9      1.10      1.04
  -23    5    8      0.01      1.20
  -23    5    7     -0.80      0.51
  -23    5    6     -0.69      0.89
  -23    5    5     -0.79      1.38
  -23    5    4     -1.05      1.32
  -23    5    3      0.87      0.13
  -23    5    2     -1.73     -0.86
  -23    5    1     -0.64      0.98
   23    5    0     -0.79      1.15
   23    5    1     -2.15      0.93
   23    5    2     -0.20      1.18
   23    5    3      0.17      1.08
   23    5    4     -1.76      0.90
   23    5    5     -2.11     -0.13
   23    5    6     -0.20     -0.56
   23    5    7     -1.63     -1.92
   23    5    8     -0.84     -1.01
   23    5    9      0.18      1.56
  -24    6    9     -0.07      1.46
  -24    6    8      0.93      1.88
  -24    6    7      2.96      0.97
  -24    6    6      0.81      2.04
  -24    6    5      0.94     -0.15
  -24    6    4      0.29      0.93
  -24    6    3      0.30      1.61
  -24    6    2      1.09      0.78
  -24    6    1      1.07      0.64
   24    6    0      0.00      0.46
   24    6    1      0.15      0.37
   24    6    2      1.50     -0.83
   24    6    3      0.17      0.70
   24    6    4     -1.22     -0.33
   24    6    5     -0.91     -1.25
   24    6    6     -1.65     -2.22
   24    6    7      1.08     -2.44
   24    6    8     -1.98     -0.18
  -25    7    8     -1.70      2.15
  -25    7    7     -0.31      1.40
  -25    7    6     -1.70      0.80
  -25    7    5      0.07      0.78
  -25    7    4      0.36      1.26
  -25    7    3      0.51      3.33
  -25    7    2      1.93      0.80
  -25    7    1      1.86      1.64
   25    7    0      0.63      1.22
   25    7    1      0.77      1.47
   25    7    2      0.75     -0.46
   25    7    3      0.12      0.10
   25    7    4     -0.60     -1.88
   25    7    5      0.20     -2.82
   25    7    6      1.46     -1.99
   25    7    7     -1.06     -0.84
  -26    8    7      0.01      2.16
  -26    8    6     -2.40      0.57
  -26    8    5      1.35      1.45
  -26    8    4     -0.37      0.24
  -26    8    3      0.72      2.37
  -26    8    2     -1.82      1.78
  -26    8    1      0.58      1.48
   26    8    0     -0.27      1.19
   26    8    1     -1.75      1.28
   26    8    2      2.02      1.70
   26    8    3     -1.04      1.02
   26    8    4      0.85     -0.62
   26    8    5     -0.36     -1.34
   26    8    6      0.91     -3.68
  -27    9    5     -1.62      1.31
  -27    9    4     -3.98      2.70
  -27    9    3     -2.23      1.40
  -27    9    2     -1.72      2.80
  -27    9    1     -0.75      7.09
   27    9    0      2.93      1.17
   27    9    1     -1.48      1.70
   27    9    2      1.76      2.49
   27    9    3      1.33     -0.30
   27    9    4      0.52     -1.23
   27    9    5      1.10     -0.82
  -28   10    4     -0.45      2.13
  -28   10    3     -0.07      5.76
  -28   10    2     -2.32     -0.47
  -28   10    1      0.75      2.27
   28   10    0      0.18      0.39
   28   10    1     -1.30     -2.27
   28   10    2     -0.31      2.63
   28   10    3     -0.99     -1.23
    9   29    3      0.08     -1.71
    9   29    2      1.50     -1.40
    9   29    1      0.70     -0.47
    9   29    0      2.29      0.43
   -9   29    1      0.71      1.32
   -9   29    2      1.50      1.02
   -9   29    3      0.55     -0.06
    8   28    5     -0.43      0.87
    8   28    4     -0.21      3.09
    8   28    3      2.39      1.53
    8   28    2      0.36     -2.41
    8   28    1     -1.99     -1.93
    8   28    0     -0.89     -0.11
   -8   28    1     -0.91      1.17
   -8   28    2     -0.16      1.19
   -8   28    3     -0.76      0.34
   -8   28    4      1.73     -0.16
   -8   28    5      0.71     -1.05
    7   27    6     -1.45      1.61
    7   27    5      0.45      0.31
    7   27    4      0.11     -1.17
    7   27    3     -1.17      1.01
    7   27    2     -0.60     -1.01
    7   27    1     -0.22     -0.21
    7   27    0      1.33     -0.49
   -7   27    1      0.30      1.71
   -7   27    2      0.18      0.03
   -7   27    3     -1.36     -0.55
   -7   27    4     -0.17      0.69
   -7   27    5     -1.45      0.03
   -7   27    6      0.25      0.31
    6   26    7      0.15     -1.80
    6   26    6     -0.70      1.31
    6   26    5      0.30      0.41
    6   26    4      3.07      2.43
    6   26    3      1.69     -0.88
    6   26    2      0.26     -1.23
    6   26    1     -0.90      1.97
    6   26    0     -0.42      1.24
   -6   26    1     -0.54      1.34
   -6   26    2     -0.22      2.05
   -6   26    3      0.12      1.63
   -6   26    4      1.47     -1.69
   -6   26    5     -2.11      1.22
   -6   26    6     -1.50     -0.43
   -6   26    7     -0.30      2.34
    5   25    8     -0.25      0.73
    5   25    7     -0.65     -3.49
    5   25    6     -0.61      0.45
    5   25    5      0.43     -0.83
    5   25    4     -0.91      0.02
    5   25    3      0.16      1.08
    5   25    2      0.37     -2.40
    5   25    1      1.37     -1.04
    5   25    0      1.61     -2.14
   -5   25    1      1.37     -0.18
   -5   25    2      0.64     -0.44
   -5   25    3     -1.06      0.36
   -5   25    4      1.53      0.43
   -5   25    5     -1.55     -1.12
   -5   25    6     -0.25     -0.06
   -5   25    7      0.55      1.79
   -5   25    8      1.23     -0.99
    4   24    9     -3.47      5.49
    4   24    8     -1.95      1.51
    4   24    7     -1.83      0.01
    4   24    6     -2.32      0.09
    4   24    5      1.14     -1.59
    4   24    4      2.37     -0.84
    4   24    3      0.15     -0.58
    4   24    2      0.24     -1.52
    4   24    1      2.60      0.11
    4   24    0      1.43      0.57
   -4   24    1      2.05      0.49
   -4   24    2      1.46      0.68
   -4   24    3      2.36     -0.29
   -4   24    4     -1.14     -1.06
   -4   24    5     -0.03      0.45
   -4   24    6      0.47      0.31
   -4   24    7      1.92      2.42
   -4   24    8      0.15      0.61
   -4   24    9      2.30     -0.02
    3   23    9     -0.46     -0.05
    3   23    8      0.13     -1.48
    3   23    7     -3.18     -0.38
    3   23    6      0.18      2.69
    3   23    5     -1.01      0.63
    3   23    4      0.75      0.08
    3   23    3      1.15      0.31
    3   23    2     -2.12     -3.37
    3   23    1     -1.23     -1.63
    3   23    0     -1.39     -1.71
   -3   23    1     -2.16     -0.94
   -3   23    2     -0.46     -2.13
   -3   23    3     -1.47     -0.04
   -3   23    4      0.07     -2.42
   -3   23    5     -3.02     -0.89
   -3   23    6     -0.60     -0.07
   -3   23    7      2.45     -2.83
   -3   23    8      3.94     -1.66
   -3   23    9      1.23     -0.89
    2   22   10     -0.16      3.33
    2   22    9      2.17      2.55
    2   22    8      0.76      0.98
    2   22    7     -1.08      0.55
    2   22    6     -1.14      3.24
    2   22    5     -0.24     -1.25
    2   22    4     -0.88     -0.02
    2   22    3     -0.52      0.67
    2   22    2     -0.87     -1.00
    2   22    1      1.00     -2.37
    2   22    0      0.23     -0.94
   -2   22    1      0.57     -5.13
   -2   22    2      0.14      0.00
   -2   22    3     -0.65     -0.46
   -2   22    4     -0.66     -0.16
   -2   22    5     -0.43     -1.11
   -2   22    6     -1.89      0.20
   -2   22    7      0.48     -1.04
   -2   22    8      0.45     -0.72
   -2   22    9     -1.93     -1.35
   -2   22   10     -1.55      0.60
    1   21   10      0.88      2.00
    1   21    9     -1.11     -0.05
    1   21    8     -2.22     -0.10
    1   21    7     -2.91      3.15
    1   21    6      1.28      0.90
    1   21    5      0.35      1.13
    1   21    4      0.01     -1.44
    1   21    3      0.64     -0.73
    1   21    2     -3.47     -0.78
    1   21    1     -1.38      2.93
    1   21    0      0.82      0.50
   -1   21    1     -1.09      3.73
   -1   21    2     -2.12     -1.58
   -1   21    3      0.13     -0.76
   -1   21    4     -1.16     -2.06
   -1   21    5     -1.10      0.06
   -1   21    6      1.33     -0.29
   -1   21    7     -2.89      0.41
   -1   21    8     -0.06     -3.77
   -1   21    9      0.62     -0.88
   -1   21   10     -0.94      2.91
    0   20   11      2.03      1.49
    0   20   10     -0.32      1.66
    0   20    9     -1.87      1.30
    0   20    8     -0.61     -1.06
    0   20    7     -1.39      0.82
    0   20    6      0.93      2.05
    0   20    5     -1.09     -1.45
    0   20    4     -0.43      0.10
    0   20    3      2.00      0.96
    0   20    2      0.07      2.28
    0   20    1     -3.69     -0.69
    0   20    0     -1.48     -1.13
  -20    0   11     -0.88     -0.19
  -20    0   10      2.05     -0.12
  -20    0    9     -0.18     -0.09
  -20    0    8      0.37     -0.06
  -20    0    7     -0.03     -0.08
  -20    0    6     -1.08     -0.06
  -20    0    5     -0.70      0.03
  -20    0    4     -2.66     -0.03
  -20    0    3      1.35     -0.03
  -20    0    2     -1.95     -0.03
  -20    0    1     -1.13     -0.15
   20    0    0     -0.23     -0.10
   20    0    1      0.62     -0.19
   20    0    2     -0.11     -0.24
   20    0    3     -0.70     -0.13
   20    0    4     -0.07     -0.15
   20    0    5      1.43     -0.15
   20    0    6     -0.83      0.01
   20    0    7     -2.11     -0.20
   20    0    8      0.16     -0.13
   20    0    9      1.37     -0.01
   20    0   10     -1.53     -0.10
  -21    1   10      1.74      0.51
  -21    1    9     -0.63     -0.43
  -21    1    8     -1.26     -1.28
  -21    1    7     -0.09      2.08
  -21    1    6     -0.37      2.46
  -21    1    5     -1.10     -0.28
  -21    1    4     -0.05      0.64
  -21    1    3     -0.88      0.12
  -21    1    2     -0.32      0.94
  -21    1    1     -0.74      0.06
   21    1    0     -0.52     -0.01
   21    1    1      0.89      1.20
   21    1    2     -0.54      0.01
   21    1    3     -0.66      0.59
   21    1    4      0.58      0.50
   21    1    5      0.89      0.99
   21    1    6      0.40      0.87
   21    1    7     -0.56      0.62
   21    1    8      0.62      0.36
   21    1    9      0.81      0.73
   21    1   10      2.18      1.73
  -22    2   10     -1.12      0.04
  -22    2    9      0.16      0.58
  -22    2    8      2.80     -0.20
  -22    2    7     -0.81      0.15
  -22    2    6     -0.45     -0.75
  -22    2    5      1.53     -0.45
  -22    2    4      1.56     -2.96
  -22    2    3      1.13     -0.61
  -22    2    2     -1.92     -1.41
  -22    2    1     -0.38     -1.40
   22    2    0     -0.43     -1.41
   22    2    1      0.13      1.19
   22    2    2      0.55      0.12
   22    2    3      1.12     -0.85
   22    2    4      1.99     -1.16
   22    2    5      0.33     -0.07
   22    2    6     -1.58     -0.42
   22    2    7     -2.39     -0.76
   22    2    8      1.53     -0.19
   22    2    9      1.72      2.00
  -23    3    9      0.88     -2.09
  -23    3    8      1.74      0.29
  -23    3    7     -0.62      1.43
  -23    3    6     -1.18      0.77
  -23    3    5      0.81      0.58
  -23    3    4      0.40      1.07
  -23    3    3     -1.10     -1.02
  -23    3    2     -2.02      1.00
  -23    3    1     -0.50     -0.29
   23    3    0     -0.42     -0.11
   23    3    1     -1.79      1.99
   23    3    2      0.23      0.12
   23    3    3      0.24     -1.46
   23    3    4      0.65      0.21
   23    3    5      0.12      0.72
   23    3    6     -0.25     -1.24
   23    3    7     -2.32     -0.35
   23    3    8     -0.52      0.82
   23    3    9      1.19      0.82
  -24    4    9     -0.37     -0.81
  -24    4    8     -0.08      0.97
  -24    4    7     -0.50     -2.25
  -24    4    6      0.97     -0.82
  -24    4    5      0.39      0.48
  -24    4    4      2.16      1.46
  -24    4    3      1.72      0.80
  -24    4    2      1.07     -2.30
  -24    4    1      0.42     -1.85
   24    4    0     -0.18     -1.36
   24    4    1     -0.45     -0.09
   24    4    2     -0.46     -0.82
   24    4    3      1.30      0.14
   24    4    4      1.70      1.38
   24    4    5      1.05      0.22
   24    4    6     -0.50      0.10
   24    4    7     -1.09     -2.82
   24    4    8      1.12      1.70
  -25    5    8      0.69      2.31
  -25    5    7      0.23      0.75
  -25    5    6     -0.69      1.15
  -25    5    5     -0.64      0.25
  -25    5    4     -0.15      0.22
  -25    5    3      2.16     -0.83
  -25    5    2      0.61     -1.66
  -25    5    1      1.97     -1.60
   25    5    0      1.90     -0.38
   25    5    1      0.42     -0.53
   25    5    2      0.42     -0.24
   25    5    3      1.77     -0.31
   25    5    4      0.54      0.70
   25    5    5     -0.64     -0.54
   25    5    6      0.47     -1.36
   25    5    7      0.00     -0.59
  -26    6    7      2.51     -0.94
  -26    6    6      0.17      2.59
  -26    6    5      0.75      0.45
  -26    6    4     -0.66      2.17
  -26    6    3      1.42      2.64
  -26    6    2      1.59      2.83
  -26    6    1      1.47      0.67
   26    6    0      1.53     -0.90
   26    6    1      0.90      1.72
   26    6    2      1.69     -1.81
   26    6    3      1.44      0.24
   26    6    4      0.07      0.29
   26    6    5     -0.84     -0.27
   26    6    6     -3.17     -0.58
   26    6    7      2.06     -0.91
  -27    7    6     -2.13      0.00
  -27    7    5      0.06     -0.30
  -27    7    4      0.94      1.76
  -27    7    3      0.44      1.20
  -27    7    2      1.04      2.40
  -27    7    1      5.42      3.08
   27    7    0      1.03      0.01
   27    7    1      0.12      3.22
   27    7    2      1.87     -0.57
   27    7    3     -0.18     -0.33
   27    7    4     -0.82      0.24
   27    7    5     -0.57     -0.63
  -28    8    5      0.99      0.85
  -28    8    4     -0.54      0.42
  -28    8    3      1.51      2.44
  -28    8    2     -2.57      1.83
  -28    8    1      0.51      0.45
   28    8    0      0.53      0.32
   28    8    1     -2.99      1.76
   28    8    2      2.49     -0.40
   28    8    3     -0.58      0.72
   28    8    4     -0.81     -1.09
  -29    9    2     -0.74      1.30
  -29    9    1     -0.21      7.05
   29    9    0      4.42     -0.88
   29    9    1     -2.08     -0.82
   29    9    2      0.63      1.34
    8   30    1      2.25     -0.95
    8   30    0      0.28     -0.07
   -8   30    1     -1.02      0.84
    7   29    4     -0.07      0.68
    7   29    3     -1.07     -0.26
    7   29    2      0.26     -0.38
    7   29    1     -0.19      0.48
    7   29    0      0.59      0.66
   -7   29    1     -1.33      2.09
   -7   29    2      0.83      1.61
   -7   29    3      0.50      0.26
   -7   29    4      0.59     -0.26
    6   28    5      0.67      0.04
    6   28    4      1.33      3.22
    6   28    3      3.02      0.09
    6   28    2      1.70     -1.83
    6   28    1     -1.15     -2.34
    6   28    0      0.43     -0.52
   -6   28    1      0.58      1.01
   -6   28    2      0.53      1.84
   -6   28    3      0.26      0.96
   -6   28    4      2.78      0.72
   -6   28    5     -1.26     -1.82
    5   27    6     -2.27      0.21
    5   27    5     -0.81     -0.78
    5   27    4      1.08     -1.69
    5   27    3      0.89      0.67
    5   27    2      0.80     -0.58
    5   27    1      1.03      0.68
    5   27    0      1.40     -0.17
   -5   27    1      0.12      3.12
   -5   27    2     -0.76     -0.30
   -5   27    3     -1.77     -1.27
   -5   27    4     -0.97      0.24
   -5   27    5     -2.44     -0.02
   -5   27    6     -0.33      0.74
   -5   27    7     -1.60      1.50
    4   26    7     -0.27     -1.51
    4   26    6     -0.19     -0.63
    4   26    5      1.15      0.71
    4   26    4      3.52      1.87
    4   26    3      0.78     -0.65
    4   26    2      0.89     -1.16
    4   26    1      0.55      1.81
    4   26    0      0.08      0.52
   -4   26    1      0.33      0.21
   -4   26    2      0.13     -0.16
   -4   26    3      0.30      0.63
   -4   26    4      0.80     -1.77
   -4   26    5     -2.78      1.55
   -4   26    6     -1.68      0.93
   -4   26    7     -1.34      2.46
    3   25    8     -2.11      1.22
    3   25    7     -2.48     -0.70
    3   25    6     -2.68      1.75
    3   25    5     -1.55     -0.12
    3   25    4     -1.50     -0.39
    3   25    3     -0.31     -0.15
    3   25    2      0.27     -3.17
    3   25    1      2.06     -1.55
    3   25    0      0.41     -1.53
   -3   25    1      0.73      1.12
   -3   25    2     -0.23      1.59
   -3   25    3     -1.92      1.99
   -3   25    4      0.77      0.65
   -3   25    5     -0.86     -0.34
   -3   25    6      1.04      0.40
   -3   25    7      3.69      3.05
   -3   25    8      3.00      1.46
    2   24    9     -2.48      7.09
    2   24    8     -0.83      2.99
    2   24    7      0.93      0.26
    2   24    6     -1.95     -0.67
    2   24    5      1.51     -1.43
    2   24    4      1.41     -1.12
    2   24    3     -0.41     -0.08
    2   24    2      0.28     -0.03
    2   24    1      3.25      0.21
    2   24    0      0.73     -0.04
   -2   24    1      3.39      0.21
   -2   24    2     -0.84      1.11
   -2   24    3      0.00     -0.01
   -2   24    4     -1.20     -0.24
   -2   24    5     -0.81      0.14
   -2   24    6      0.39     -0.58
   -2   24    7      2.73      2.31
   -2   24    8     -0.49      1.07
   -2   24    9      1.13      1.69
    1   23    9     -1.43      2.16
    1   23    8      1.21      0.07
    1   23    7     -1.31      0.74
    1   23    6      0.19      3.72
    1   23    5     -1.95      0.58
    1   23    4     -0.29     -0.44
    1   23    3      0.46     -0.18
    1   23    2     -1.44     -3.35
    1   23    1     -1.64     -1.50
    1   23    0     -1.01     -0.71
   -1   23    1     -0.74     -0.47
   -1   23    2      1.67     -2.06
   -1   23    3      1.50      0.89
   -1   23    4      0.80     -1.22
   -1   23    5     -1.66     -0.82
   -1   23    6     -0.01      0.51
   -1   23    7      1.23     -3.84
   -1   23    8      4.50     -2.71
   -1   23    9      1.60      0.07
    0   22   10      0.77      0.87
    0   22    9      1.77     -0.95
    0   22    8      2.24     -1.63
    0   22    7      0.34     -2.43
    0   22    6     -1.23      0.49
    0   22    5      0.25     -2.03
    0   22    4     -0.47     -0.40
    0   22    3     -0.23      0.68
    0   22    2      0.16     -0.38
    0   22    1      1.76     -5.35
    0   22    0      1.24     -1.78
  -22    0   10      1.17      0.00
  -22    0    9      1.40      0.05
  -22    0    8     -0.08      0.01
  -22    0    7     -1.20     -0.03
  -22    0    6     -1.60     -0.12
  -22    0    5     -0.86     -0.06
  -22    0    4     -2.88     -0.10
  -22    0    3      0.19     -0.32
  -22    0    2     -1.95     -0.11
  -22    0    1     -1.06     -0.24
   22    0    0     -1.31      0.37
   22    0    1      0.79      0.04
   22    0    2     -0.51      0.06
   22    0    3     -0.32      0.28
   22    0    4     -0.41      0.06
   22    0    5      1.20     -0.01
   22    0    6      0.29      0.01
   22    0    7     -1.63     -0.20
   22    0    8      0.87      0.00
   22    0    9      3.13     -0.07
  -23    1   10      2.56      1.34
  -23    1    9     -0.17     -1.25
  -23    1    8      1.62     -2.10
  -23    1    7      3.51      0.03
  -23    1    6      3.30      0.25
  -23    1    5      2.05     -2.02
  -23    1    4      2.13     -1.35
  -23    1    3      0.62     -1.22
  -23    1    2      1.87     -0.11
  -23    1    1      0.71     -1.36
   23    1    0      1.56     -0.46
   23    1    1      3.33      0.80
   23    1    2      1.73     -1.51
   23    1    3      1.44     -1.47
   23    1    4      2.27     -0.99
   23    1    5      2.72     -0.06
   23    1    6      0.85      0.19
   23    1    7      0.01      1.34
   23    1    8      2.51      1.83
   23    1    9      1.52      0.62
  -24    2    9     -0.52      1.20
  -24    2    8      1.42      0.06
  -24    2    7     -1.42     -0.86
  -24    2    6     -0.91     -1.43
  -24    2    5      0.57     -1.79
  -24    2    4      1.72     -2.26
  -24    2    3      0.99     -0.42
  -24    2    2     -1.77     -2.18
  -24    2    1     -0.77     -0.93
   24    2    0     -0.24     -0.44
   24    2    1      0.63     -0.12
   24    2    2      0.98     -0.90
   24    2    3      2.07     -0.28
   24    2    4      2.04      0.07
   24    2    5      1.06      0.10
   24    2    6     -0.79      1.24
   24    2    7     -3.17      1.00
   24    2    8      0.86      0.53
  -25    3    8      3.02      0.74
  -25    3    7      1.90      1.93
  -25    3    6      1.10      1.59
  -25    3    5      2.55      1.27
  -25    3    4      2.90      1.83
  -25    3    3      0.80     -0.38
  -25    3    2      0.28      1.45
  -25    3    1      0.56      0.40
   25    3    0      1.89      1.14
   25    3    1      0.08      4.11
   25    3    2      2.85      2.96
   25    3    3      2.83      1.08
   25    3    4      2.11      1.74
   25    3    5      0.97      1.54
   25    3    6     -0.51      0.12
   25    3    7     -1.16      0.20
   25    3    8     -0.65      2.08
  -26    4    7      1.12     -1.91
  -26    4    6      3.42     -1.04
  -26    4    5      2.82     -0.17
  -26    4    4      3.05      2.35
  -26    4    3      2.30      0.28
  -26    4    2      2.04     -1.16
  -26    4    1      0.86     -0.59
   26    4    0     -1.23     -1.09
   26    4    1      1.95      0.42
   26    4    2      1.07     -0.64
   26    4    3      0.70     -0.19
   26    4    4     -0.25      0.07
   26    4    5     -2.07     -0.56
   26    4    6     -2.55      1.32
   26    4    7     -2.35     -4.45
  -27    5    6      0.15      1.71
  -27    5    5      0.88      1.20
  -27    5    4      0.87      1.62
  -27    5    3      0.13     -0.04
  -27    5    2      1.57      1.42
  -27    5    1      1.51     -3.07
   27    5    0     -1.64      0.18
   27    5    1     -0.77      1.49
   27    5    2     -1.94     -1.01
   27    5    3     -1.96      0.38
   27    5    4     -0.78      0.15
   27    5    5     -0.42     -0.19
   27    5    6     -0.37     -1.23
  -28    6    5      0.95      1.13
  -28    6    4     -0.68      1.15
  -28    6    3      1.99      1.24
  -28    6    2      0.98      1.93
  -28    6    1     -0.02      0.42
   28    6    0      0.92     -0.18
   28    6    1      1.72      3.92
   28    6    2      0.18     -0.96
   28    6    3      1.47      0.11
   28    6    4     -0.02     -0.49
   28    6    5     -0.64     -3.04
  -29    7    4      1.14      3.15
  -29    7    3      2.24     -0.72
  -29    7    2     -0.46      2.31
  -29    7    1      5.96      0.88
   29    7    0      0.72     -5.25
   29    7    1     -1.96      0.57
   29    7    2      2.29     -3.35
   29    7    3     -0.49     -3.91
    6   30    2      0.74      1.73
    6   30    1      1.20      0.25
    6   30    0     -0.55      0.97
   -6   30    1     -1.61      1.23
   -6   30    2     -1.97      2.08
   -6   30    3     -1.20      1.31
    5   29    4      1.52      0.02
    5   29    3      0.05     -0.48
    5   29    2      0.56     -1.70
    5   29    1      1.47     -0.50
    5   29    0      2.59     -0.82
   -5   29    1     -1.02      0.76
   -5   29    2      0.60     -0.35
   -5   29    3      0.53     -0.31
   -5   29    4      0.94     -1.20
   -5   29    5     -0.55     -1.30
    4   28    6     -0.06      0.52
    4   28    5      0.69      1.47
    4   28    4      2.81      5.06
    4   28    3      3.32      0.37
    4   28    2      2.87      0.55
    4   28    1     -0.01     -0.23
    4   28    0     -0.16      0.04
   -4   28    1      0.27      1.52
   -4   28    2      0.29      1.76
   -4   28    3     -0.34      1.23
   -4   28    4      2.27      1.48
   -4   28    5     -3.15     -1.65
   -4   28    6     -0.61     -0.50
    3   27    7     -0.91     -0.86
    3   27    6     -2.65      0.73
    3   27    5     -1.94      0.01
    3   27    4      0.06     -1.05
    3   27    3     -0.57      0.49
    3   27    2     -1.04     -0.93
    3   27    1      0.31      0.05
    3   27    0      0.48     -1.80
   -3   27    1     -0.34      2.45
   -3   27    2     -1.65      0.33
   -3   27    3     -0.50     -0.21
   -3   27    4      0.40     -0.58
   -3   27    5     -1.55     -1.07
   -3   27    6      0.69     -2.10
   -3   27    7     -1.38     -1.44
    2   26    8     -3.70     -2.22
    2   26    7     -0.91     -1.06
    2   26    6      0.61     -2.69
    2   26    5      0.58     -0.47
    2   26    4      2.91     -0.51
    2   26    3      0.08     -2.41
    2   26    2     -0.30     -1.26
    2   26    1      0.14      2.38
    2   26    0     -0.68      1.66
   -2   26    1      0.11      2.56
   -2   26    2     -0.90     -0.39
   -2   26    3      0.16      0.46
   -2   26    4      0.51     -0.87
   -2   26    5     -2.35      0.48
   -2   26    6     -0.57      0.75
   -2   26    7     -2.19      2.03
   -2   26    8     -0.47     -1.86
    1   25    8      0.51      2.83
    1   25    7      0.72      1.36
    1   25    6     -0.75      1.02
    1   25    5      0.23      0.08
    1   25    4      0.27      0.30
    1   25    3      0.22      2.47
    1   25    2      0.45      0.60
    1   25    1      1.27      0.04
    1   25    0     -0.87     -0.89
   -1   25    1      0.97     -0.25
   -1   25    2      1.11      0.30
   -1   25    3     -0.05      0.60
   -1   25    4      0.60     -1.73
   -1   25    5     -1.14     -1.22
   -1   25    6     -2.28     -0.46
   -1   25    7      0.04      1.89
   -1   25    8     -0.63      1.88
    0   24    9     -1.99      3.38
    0   24    8     -2.13      1.66
    0   24    7      1.34      1.14
    0   24    6     -2.07     -0.89
    0   24    5     -1.21     -0.56
    0   24    4     -0.86     -1.18
    0   24    3     -1.34     -0.51
    0   24    2     -0.55      1.13
    0   24    1      4.71      0.83
    0   24    0      1.45      0.72
  -24    0    9      2.75      0.06
  -24    0    8      1.61      0.21
  -24    0    7      0.28      0.13
  -24    0    6      0.77     -0.12
  -24    0    5     -0.29     -0.04
  -24    0    4     -0.97     -0.02
  -24    0    3      0.38     -0.09
  -24    0    2     -3.87      0.06
  -24    0    1     -2.10     -0.04
   24    0    0     -0.48     -0.10
   24    0    1      0.31     -0.04
   24    0    2     -0.22     -0.04
   24    0    3      2.17     -0.06
   24    0    4      1.45      0.11
   24    0    5      0.31      0.10
   24    0    6     -0.15      0.05
   24    0    7     -0.88     -0.03
   24    0    8      0.80      0.21
  -25    1    8      0.16      0.10
  -25    1    7      1.99      1.92
  -25    1    6      1.77      2.71
  -25    1    5      0.82      0.87
  -25    1    4      1.34      0.89
  -25    1    3     -0.11      1.70
  -25    1    2      0.23      2.09
  -25    1    1     -1.38      1.02
   25    1    0      0.06      1.04
   25    1    1      2.18      3.70
   25    1    2      0.83      0.67
   25    1    3      0.21      0.13
   25    1    4      0.26      0.86
   25    1    5     -0.29      0.10
   25    1    6     -1.50     -0.19
   25    1    7     -0.58      0.47
   25    1    8      3.24      2.14
  -26    2    8      0.83      1.07
  -26    2    7     -0.13      0.39
  -26    2    6      0.16     -0.63
  -26    2    5      1.76     -1.39
  -26    2    4      3.79     -1.04
  -26    2    3      1.28     -0.12
  -26    2    2     -1.75     -2.29
  -26    2    1     -1.31     -1.68
   26    2    0     -1.08      2.01
   26    2    1     -0.71     -0.21
   26    2    2      0.44     -1.56
   26    2    3      1.49      0.66
   26    2    4      0.60      1.23
   26    2    5      0.08      0.98
   26    2    6      0.51      0.29
   26    2    7     -2.62     -0.52
  -27    3    7      1.56      0.69
  -27    3    6     -0.63      1.24
  -27    3    5      0.58      0.74
  -27    3    4      1.22      2.07
  -27    3    3     -2.67      1.47
  -27    3    2     -0.29     -1.65
  -27    3    1     -2.88     -3.20
   27    3    0     -1.24      0.33
   27    3    1     -1.30      0.55
   27    3    2     -0.05     -0.75
   27    3    3      0.97     -0.05
   27    3    4     -0.03     -1.44
   27    3    5      0.94     -3.25
   27    3    6      0.48     -2.28
  -28    4    6      2.21      0.12
  -28    4    5      2.23      0.76
  -28    4    4      1.75      3.38
  -28    4    3      2.34      0.49
  -28    4    2      0.97     -1.07
  -28    4    1      1.22     -0.72
   28    4    0     -1.62     -1.73
   28    4    1      1.34     -2.03
   28    4    2      0.58     -0.95
   28    4    3     -0.07     -0.59
   28    4    4     -0.57     -0.28
   28    4    5     -2.89     -0.89
  -29    5    4      0.37      0.65
  -29    5    3     -2.38     -3.49
  -29    5    2      2.67      1.37
  -29    5    1      2.75     -4.69
   29    5    0     -3.86     -1.88
   29    5    1      1.20      1.42
   29    5    2     -0.07     -3.02
   29    5    3     -2.51     -0.05
   29    5    4      0.74     -1.52
  -30    6    2     -0.16      1.05
  -30    6    1      0.93      0.04
   30    6    0     -0.26     -0.52
   30    6    1      2.17      2.73
    4   30    3      1.91      1.45
    4   30    2      0.05      1.99
    4   30    1      1.03      0.73
    4   30    0      0.59      1.18
   -4   30    1     -0.32      2.12
   -4   30    2     -1.08      2.56
   -4   30    3     -1.31      0.83
    3   29    5      0.56     -1.36
    3   29    4      2.34      0.87
    3   29    3      0.44      1.12
    3   29    2     -0.07     -0.68
    3   29    1      0.68      0.78
    3   29    0      2.32     -0.32
   -3   29    1     -1.56      0.20
   -3   29    2     -0.39     -2.23
   -3   29    3      1.20      0.31
   -3   29    4      2.42     -0.80
   -3   29    5     -0.11     -1.30
    2   28    6      0.80      0.30
    2   28    5      0.25     -0.36
    2   28    4      2.32      2.98
    2   28    3      2.11     -0.94
    2   28    2      1.68     -0.16
    2   28    1      0.07      0.19
    2   28    0      0.75     -0.16
   -2   28    1      0.94      1.02
   -2   28    2      1.90     -0.04
   -2   28    3      0.44      0.06
   -2   28    4      1.64      0.79
   -2   28    5     -2.54     -2.29
   -2   28    6     -0.77     -0.33
    1   27    7     -2.23     -2.15
    1   27    6     -2.02     -1.44
    1   27    5     -1.91     -0.33
    1   27    4      1.12     -1.60
    1   27    3      0.28      0.43
    1   27    2     -0.50      0.05
    1   27    1      1.10      1.12
    1   27    0     -0.21     -1.40
   -1   27    1     -0.63      1.64
   -1   27    2     -2.88      0.36
   -1   27    3     -1.02      0.16
   -1   27    4      0.63     -1.05
   -1   27    5     -1.82      0.74
   -1   27    6     -0.37     -0.43
   -1   27    7     -2.53      0.32
    0   26    8     -2.69     -1.94
    0   26    7     -1.96      1.31
    0   26    6      0.48     -0.73
    0   26    5     -1.65      0.02
    0   26    4      0.40     -0.28
    0   26    3     -1.04     -1.30
    0   26    2     -1.87     -1.25
    0   26    1      0.09      2.28
    0   26    0     -0.37      0.70
  -26    0    8      1.89      0.14
  -26    0    7      0.79      0.08
  -26    0    6      0.41     -0.04
  -26    0    5     -0.66     -0.08
  -26    0    4      0.35      0.09
  -26    0    3      1.60      0.36
  -26    0    2     -2.44      0.26
  -26    0    1     -2.06      0.20
   26    0    0      2.11     -0.68
   26    0    1     -1.40     -0.17
   26    0    2     -2.87     -0.17
   26    0    3      0.76     -0.38
   26    0    4      1.57      0.01
   26    0    5      1.52      0.02
   26    0    6      0.20      0.01
   26    0    7     -0.09     -0.15
  -27    1    7      2.44     -0.95
  -27    1    6      2.39      0.36
  -27    1    5      1.73     -1.11
  -27    1    4      2.87     -1.43
  -27    1    3      3.05      1.35
  -27    1    2     -0.60     -1.96
  -27    1    1     -1.26     -1.86
   27    1    0      3.04     -0.64
   27    1    1      3.21      0.23
   27    1    2      2.23     -2.14
   27    1    3      2.42     -2.36
   27    1    4      1.37     -1.36
   27    1    5     -1.25     -3.09
   27    1    6     -1.03     -2.27
  -28    2    6      0.21     -0.92
  -28    2    5      1.49     -1.17
  -28    2    4      3.86     -0.23
  -28    2    3      1.87     -0.21
  -28    2    2     -0.58      0.18
  -28    2    1      0.58     -2.38
   28    2    0      0.00      1.13
   28    2    1     -0.67     -1.59
   28    2    2      1.22     -4.06
   28    2    3      1.25     -1.48
   28    2    4      0.23      0.24
   28    2    5     -0.82      2.67
  -29    3    5      2.05      0.03
  -29    3    4      3.67      1.00
  -29    3    3     -2.34      3.59
  -29    3    2      2.85     -1.78
  -29    3    1     -0.43     -2.88
   29    3    0     -1.70      6.01
   29    3    1      1.38      1.32
   29    3    2      0.42     -0.19
   29    3    3      1.50      3.21
   29    3    4      0.23     -0.63
  -30    4    3      0.44      2.25
  -30    4    2     -1.16      0.80
  -30    4    1      0.82      0.36
   30    4    0     -0.08      1.08
   30    4    1      2.47     -1.63
   30    4    2      1.94      0.26
    3   31    1      0.01      0.87
    3   31    0      0.79      2.27
   -3   31    1      0.52      0.60
    2   30    4     -1.71      3.37
    2   30    3      1.25      1.17
    2   30    2     -0.32      2.11
    2   30    1     -0.17      1.34
    2   30    0      0.38      1.85
   -2   30    1     -0.05      1.97
   -2   30    2     -0.19      1.98
   -2   30    3     -0.59     -0.27
   -2   30    4     -0.91      2.19
    1   29    5     -0.22     -1.24
    1   29    4      2.72      0.58
    1   29    3      0.72      0.42
    1   29    2     -0.17     -2.08
    1   29    1      0.39      0.60
    1   29    0      2.43      0.17
   -1   29    1     -0.50      0.96
   -1   29    2     -0.53     -1.84
   -1   29    3      1.13      1.24
   -1   29    4      3.16      0.32
   -1   29    5      0.32     -1.17
    0   28    6      0.50      0.14
    0   28    5     -0.59     -1.79
    0   28    4      1.88      1.41
    0   28    3      1.63     -0.52
    0   28    2      1.76     -0.71
    0   28    1      0.06      0.44
    0   28    0      0.86     -0.14
  -28    0    6     -0.06     -0.02
  -28    0    5      0.07     -0.36
  -28    0    4      1.01     -0.09
  -28    0    3      0.75      0.15
  -28    0    2     -0.10      0.08
  -28    0    1     -2.67      0.18
   28    0    0      1.93     -0.45
   28    0    1      0.01     -0.22
   28    0    2     -1.61     -0.19
   28    0    3      0.66     -0.22
   28    0    4      1.99     -0.11
   28    0    5      3.44     -0.05
  -29    1    5      1.23      0.92
  -29    1    4      1.10     -0.52
  -29    1    3      3.35      4.23
  -29    1    2     -3.26     -1.32
  -29    1    1     -4.97     -1.37
   29    1    0      2.83      4.37
   29    1    1     -1.47      0.98
   29    1    2     -2.67     -0.13
   29    1    3     -0.75      0.43
   29    1    4     -2.63     -0.03
  -30    2    3      1.84      0.38
  -30    2    2     -1.10      1.64
  -30    2    1     -0.84     -1.63
   30    2    0     -1.03      0.36
   30    2    1     -2.22     -0.20
   30    2    2      0.02     -1.32
    1   31    1     -0.99      0.67
    1   31    0     -0.40      1.55
   -1   31    1     -0.16      0.28
    0   30    4     -0.98      2.40
    0   30    3      0.54      0.34
    0   30    2      0.47      1.53
    0   30    1      0.43      1.17
    0   30    0      1.04      2.08
  -30    0    3      0.95     -0.24
  -30    0    2      1.43     -0.17
  -30    0    1     -2.38     -0.06
   30    0    0     -1.47      0.26
   30    0    1     -1.52      0.08
   30    0    2     -2.91      0.09
    2    0    0    141.22     -0.63
    4    0    0    116.16     -0.08
    1    1    0      4.23      2.34
    3    1    0     16.67      7.50
   31    1    0      5.42      3.54
    0    2    0     61.05    123.91
    2    2    0     58.01    163.57
    1    3    0      5.92    -28.82
   31    3    0     -3.35      5.51
    0    4    0    -78.66     68.83
   31    5    0     -6.83     -0.83
   31    7    0      0.50     -4.21
   30    8    0      0.39     -0.60
   31    9    0      4.37     -0.41
   30   10    0      0.82      0.46
   29   11    0      2.27      3.72
   31   11    0      1.72      1.51
   30   12    0     -0.64     -0.31
   29   13    0     -0.58      2.24
   31   13    0      0.12      1.63
   28   14    0      1.15     -1.36
   30   14    0      1.84     -0.89
   29   15    0     -1.58      0.08
   28   16    0      1.13      1.49
   27   17    0      0.27     -0.09
   29   17    0      0.25     -0.10
   26   18    0      0.32      0.38
   28   18    0     -0.01      0.57
   25   19    0     -1.32     -0.73
   27   19    0     -1.38      0.07
   24   20    0     -0.10      0.31
   26   20    0      0.03     -0.15
   23   21    0     -0.28     -0.35
   25   21    0     -0.31     -1.94
   22   22    0     -0.53     -1.61
   24   22    0     -0.36     -1.27
   26   22    0     -0.13     -0.43
   21   23    0     -1.11      0.66
   23   23    0     -0.50     -0.89
   25   23    0      0.67     -0.61
   20   24    0     -0.01     -0.66
   22   24    0      1.66     -0.45
   24   24    0      1.07     -0.69
   19   25    0     -1.73      0.54
   21   25    0     -0.87     -0.82
   23   25    0     -0.46      0.04
   18   26    0     -0.58     -1.70
   20   26    0     -0.37      0.23
   22   26    0      0.35      0.82
   17   27    0     -1.69     -0.29
   19   27    0     -0.17     -0.27
   14   28    0     -1.09     -2.37
   16   28    0      0.50     -1.33
   18   28    0      0.07     -1.43
   13   29    0      1.97     -2.14
   15   29    0     -0.47     -2.48
   17   29    0     -0.24     -0.53
   10   30    0     -2.00     -1.19
   12   30    0     -0.39     -1.20
   14   30    0     -0.56     -0.38
   16   30    0      1.30     -0.43
    5   31    0      1.19      1.54
    7   31    0      0.85      1.88
    9   31    0     -0.42      1.61
   11   31    0      0.67      2.27
   13   31    0      1.14      0.16
    0   32    0     -1.18     -0.08
    2   32    0     -0.57      0.32
    4   32    0     -1.37     -0.57
    6   32    0     -1.02      0.51
    8   32    0     -0.45     -1.17
   10   32    0     -0.03     -0.83
   12   32    0     -0.23     -1.61
   -2    0    1     20.32      1.89
    0    0    1    128.38     -0.01
    2    0    1     31.38      0.55
  -31    1    1     -3.96     -3.61
   -1    1    1      1.34     -2.75
    1    1    1     -2.85      2.55
   31    1    1      0.15     -1.24
   -2    2    1     33.15     72.80
    0    2    1     19.72     23.26
    2    2    1     13.11     87.03
  -31    3    1     -0.56     -4.09
   31    3    1     -0.04     -1.37
  -31    5    1      0.75     -1.76
   31    5    1     -0.75      1.79
  -31    7    1      3.30      0.77
   31    7    1     -2.41      1.46
  -30    8    1      1.15      1.05
   30    8    1     -4.29      2.34
  -31    9    1      0.65      3.81
   31    9    1     -0.26     -0.98
  -30   10    1      0.36      0.88
   30   10    1     -1.50     -2.00
  -31   11    1     -2.25      0.97
  -29   11    1     -5.03      1.44
   29   11    1     -0.52      1.20
   31   11    1      0.03      0.28
  -30   12    1      0.56      1.78
   30   12    1      0.55      0.23
  -31   13    1      0.41     -0.58
  -29   13    1     -1.19     -1.42
   29   13    1     -0.78      0.29
   31   13    1     -2.05      0.34
  -30   14    1      0.58      2.47
  -28   14    1     -0.60      1.17
   28   14    1     -2.33     -0.49
   30   14    1      0.18      0.34
  -29   15    1     -0.24      0.19
   27   15    1     -0.31      2.03
   29   15    1     -0.42     -0.08
  -28   16    1     -0.58      1.35
   28   16    1     -0.06     -0.43
  -29   17    1      0.68     -0.16
  -27   17    1      0.82     -1.62
   27   17    1     -2.44      0.94
   29   17    1     -1.36      2.29
  -28   18    1      0.15      1.19
  -26   18    1     -0.61      0.80
   26   18    1      0.58      0.18
   28   18    1      0.49      0.45
  -27   19    1      0.25      1.01
  -25   19    1     -0.46      1.64
   25   19    1     -2.01     -0.16
   27   19    1     -3.34     -0.75
  -26   20    1     -1.40     -0.73
  -24   20    1     -1.15     -0.68
   24   20    1     -0.32      0.25
   26   20    1     -0.38      0.99
  -25   21    1     -1.37     -0.83
  -23   21    1     -0.01      0.28
   23   21    1     -1.42     -1.29
   25   21    1     -1.73     -1.87
  -24   22    1      0.77     -1.14
  -22   22    1     -0.40     -1.65
   22   22    1      0.14      0.59
   24   22    1      0.01      0.34
  -25   23    1      0.38     -0.15
  -23   23    1     -0.68      1.02
  -21   23    1     -0.41      3.66
   21   23    1      0.09      1.02
   23   23    1      0.20     -1.21
   25   23    1      0.36     -0.27
  -24   24    1      0.61      0.18
  -22   24    1      1.87     -0.58
  -20   24    1      1.40     -1.74
   20   24    1     -1.40      0.32
   22   24    1     -0.78      0.74
   24   24    1     -0.72      0.75
  -23   25    1     -1.05      0.48
  -21   25    1     -2.14      0.33
  -19   25    1     -2.78      2.41
   19   25    1     -2.20      0.88
   21   25    1      0.00     -0.45
   23   25    1     -0.37      0.29
  -22   26    1      1.08      1.10
  -20   26    1      0.93      1.04
  -18   26    1      1.42     -1.19
   18   26    1     -1.71     -0.60
   20   26    1     -1.20     -0.24
  -19   27    1     -0.61     -0.94
  -17   27    1     -2.08     -0.03
   17   27    1     -1.38     -1.33
   19   27    1     -0.04     -0.16
  -18   28    1      0.72     -0.36
  -16   28    1      1.58      0.89
  -14   28    1     -0.27      0.34
   14   28    1     -1.34     -0.85
   16   28    1     -0.36     -0.31
   18   28    1     -0.65     -1.41
  -17   29    1      0.06      0.28
  -15   29    1     -1.40     -0.59
  -13   29    1      0.92      0.61
   13   29    1      1.31      0.23
   15   29    1      0.88     -0.29
   17   29    1      0.66      0.50
  -16   30    1      0.08      0.33
  -14   30    1     -1.24      0.61
  -12   30    1     -0.90      0.10
  -10   30    1     -2.05      0.60
   10   30    1     -1.38     -0.90
   12   30    1     -0.77     -0.56
   14   30    1     -1.87      0.17
   16   30    1     -0.04      0.33
  -13   31    1      0.44     -0.04
  -11   31    1     -0.04      1.75
   -9   31    1     -1.15      0.76
   -7   31    1     -0.29      0.75
   -5   31    1      0.49      0.12
    5   31    1     -0.64      0.90
    7   31    1     -0.04      1.57
    9   31    1     -0.39      0.55
   11   31    1      0.74      0.60
   13   31    1      0.57     -0.05
  -12   32    1     -0.66     -0.83
  -10   32    1     -0.78     -0.53
   -8   32    1     -0.93     -1.27
   -6   32    1     -0.88     -0.14
   -4   32    1     -1.14     -0.26
   -2   32    1     -0.49      0.89
    0   32    1     -0.67     -0.21
    2   32    1     -0.13     -0.33
    4   32    1     -0.76     -0.21
    6   32    1     -0.19      1.72
    8   32    1     -0.39      0.31
   10   32    1     -0.76      0.51
   12   32    1     -0.65     -1.08
   -8    0    2      7.85     -0.20
  -31    1    2     -1.12     -1.47
   31    1    2     -0.89     -1.83
  -31    3    2      0.15     -1.37
   31    3    2     -1.08     -2.31
  -31    5    2      0.82      1.74
   31    5    2     -1.41     -1.51
   30    6    2     -0.58     -1.43
  -31    7    2     -0.74      1.75
   31    7    2      0.90     -1.70
  -30    8    2     -1.05      0.60
   30    8    2      0.60     -0.69
  -31    9    2     -1.11      0.69
   31    9    2      1.96      0.37
  -30   10    2     -1.66     -1.50
   30   10    2      0.60      1.79
  -31   11    2     -1.22      0.93
  -29   11    2     -2.50     -0.39
   29   11    2     -1.67      1.37
   31   11    2     -0.20     -0.46
  -30   12    2     -0.43     -1.84
   30   12    2     -1.19      0.84
  -31   13    2     -0.28     -0.52
  -29   13    2     -1.96     -1.94
   29   13    2      1.55     -0.18
  -30   14    2      1.84      0.60
  -28   14    2      0.14     -1.04
   28   14    2      0.12      0.09
   30   14    2      0.30     -0.16
  -29   15    2      0.55     -0.40
  -27   15    2      1.87     -1.05
   27   15    2      0.14      2.43
   29   15    2     -0.08      1.11
  -28   16    2     -1.41      0.29
   28   16    2      0.11      2.27
  -29   17    2      0.03      0.81
  -27   17    2     -0.15      1.29
   27   17    2      0.16     -0.38
  -28   18    2     -0.49     -0.93
  -26   18    2      0.09     -1.62
   26   18    2     -2.04      0.89
   28   18    2     -1.08      0.96
  -27   19    2     -1.31      0.18
  -25   19    2     -0.62      0.59
   25   19    2      0.13      1.26
   27   19    2     -0.38      1.16
  -26   20    2      0.55     -0.45
  -24   20    2      0.61     -0.47
   24   20    2     -0.70     -1.56
   26   20    2     -1.21     -1.46
  -25   21    2     -0.73      0.02
  -23   21    2     -0.13     -0.15
   23   21    2     -0.42      0.42
   25   21    2     -1.50     -0.45
  -24   22    2      0.92     -0.40
  -22   22    2      0.50      0.22
   22   22    2      0.57     -0.85
   24   22    2      1.14     -0.74
  -23   23    2     -0.52      0.36
  -21   23    2      0.28      1.69
   21   23    2     -0.69      0.28
   23   23    2     -0.66     -1.46
  -22   24    2      0.23      0.95
  -20   24    2     -0.60      0.14
   20   24    2      0.98      0.30
   22   24    2      0.82      0.52
  -21   25    2     -0.85     -0.39
  -19   25    2     -1.25      0.75
   19   25    2     -0.89     -0.13
   21   25    2      1.64     -1.31
  -20   26    2     -0.43      0.46
  -18   26    2      0.70     -0.46
   18   26    2     -0.46     -0.83
   20   26    2     -0.68      0.27
  -19   27    2      0.78     -0.51
  -17   27    2     -0.69      0.32
   15   27    2      1.62      1.16
   17   27    2      0.28     -0.74
   19   27    2      1.87      0.77
  -18   28    2     -0.14     -0.51
  -16   28    2      1.13      0.62
  -14   28    2      0.15     -0.02
   14   28    2     -0.88     -0.97
   16   28    2      0.15      0.31
   18   28    2      0.16     -0.83
  -17   29    2      1.26      0.35
  -15   29    2     -0.27     -1.33
  -13   29    2      1.54     -0.54
  -11   29    2      0.17      0.58
   11   29    2      0.27     -1.49
   13   29    2     -0.70     -0.45
   15   29    2     -1.07     -0.33
   17   29    2     -0.93      1.35
  -16   30    2      0.96      0.61
  -14   30    2      0.26      1.04
  -12   30    2      0.19      0.20
  -10   30    2     -0.87      1.16
   -8   30    2     -1.33      1.76
    8   30    2      4.01     -0.27
   10   30    2      1.95     -1.37
   12   30    2      1.87     -1.57
   14   30    2     -0.98     -1.13
  -13   31    2      1.31     -0.31
  -11   31    2      0.29      1.07
   -9   31    2     -0.75      1.10
   -7   31    2     -0.36      1.53
   -5   31    2      0.63      0.75
   -3   31    2      1.43      0.10
   -1   31    2      1.90     -0.55
    1   31    2      0.66     -0.09
    3   31    2      1.26     -0.33
    5   31    2      0.03     -0.48
    7   31    2      0.82      0.51
    9   31    2      0.15      0.61
   11   31    2      1.49      0.83
   13   31    2      1.33     -0.36
  -10   32    2     -0.75      0.10
   -8   32    2     -1.81     -0.71
   -6   32    2     -1.59     -0.09
   -4   32    2     -1.19      0.08
   -2   32    2     -0.85      0.59
    0   32    2     -0.94     -0.22
    2   32    2     -0.81     -0.64
    4   32    2     -1.07     -1.08
    6   32    2     -0.20      0.56
    8   32    2      0.68      0.50
   10   32    2      0.78      1.75
   30    0    3     -2.11      0.16
  -31    1    3      2.64      1.98
   31    1    3      1.44     -0.83
   30    2    3      0.46      0.02
  -31    3    3     -3.97      2.79
   31    3    3     -0.56      1.40
   30    4    3      1.15      0.61
  -31    5    3     -2.26     -3.05
   31    5    3     -3.67      0.26
  -30    6    3      0.65      0.23
   30    6    3      0.10     -0.37
  -31    7    3      3.58     -1.76
   31    7    3     -0.44     -2.50
  -30    8    3      3.40      0.69
   30    8    3     -0.71      0.99
  -31    9    3      0.93      1.90
  -29    9    3      1.33      0.80
   29    9    3      1.27     -1.64
   31    9    3      2.26     -0.27
  -30   10    3      1.54      3.12
   30   10    3     -1.01     -0.28
  -31   11    3      0.30      0.82
  -29   11    3     -0.08     -1.49
   29   11    3      0.50      1.63
   31   11    3      0.65      0.29
  -30   12    3     -2.75      2.01
  -28   12    3     -2.54      1.85
   28   12    3      0.27     -1.06
   30   12    3     -0.10     -1.25
  -29   13    3      1.00      0.28
   29   13    3      0.59      0.23
  -30   14    3     -0.66     -0.43
  -28   14    3     -1.30     -2.26
   28   14    3     -0.07      0.08
   30   14    3      1.13     -0.75
  -29   15    3      0.07      1.77
  -27   15    3      0.95      0.49
   27   15    3      1.00      0.75
   29   15    3      0.08     -0.48
  -28   16    3      0.20     -0.87
  -26   16    3      0.63     -0.88
   26   16    3     -0.50      0.49
   28   16    3      0.00      0.36
  -27   17    3      0.23      0.27
   25   17    3     -0.22      1.10
   27   17    3      0.62      0.44
  -28   18    3      0.71      0.05
  -26   18    3      0.75     -0.93
   26   18    3     -0.05     -0.82
  -27   19    3     -0.13     -0.22
  -25   19    3     -1.08      0.12
   25   19    3      0.99      0.10
   27   19    3     -0.58      0.85
  -26   20    3      0.56      0.06
  -24   20    3      0.29      0.99
   24   20    3      1.16      0.30
   26   20    3      0.82     -0.68
  -25   21    3     -0.21     -0.78
  -23   21    3     -1.29     -0.96
   23   21    3      0.43      0.52
   25   21    3     -0.66      0.20
  -24   22    3     -1.02      0.20
  -22   22    3     -1.64      0.11
   22   22    3     -0.59      0.21
   24   22    3      0.43     -0.13
  -23   23    3     -0.08     -0.93
  -21   23    3      0.64     -0.87
   21   23    3      0.32      0.49
   23   23    3     -0.34     -1.42
  -22   24    3      0.04      0.18
  -20   24    3     -0.32     -0.12
   20   24    3     -1.76      0.15
   22   24    3     -0.54      0.02
  -21   25    3      0.82      0.28
  -19   25    3      0.50      1.51
   19   25    3     -2.10     -1.25
   21   25    3      0.42     -1.58
  -20   26    3     -0.97     -0.05
  -18   26    3      0.16     -1.21
   16   26    3      0.31     -2.84
   18   26    3     -0.24     -2.98
   20   26    3     -0.76     -1.84
  -19   27    3      0.74      1.05
  -17   27    3     -0.40      1.54
  -15   27    3     -0.24      0.31
   15   27    3      2.15      0.15
   17   27    3      1.14     -1.91
   19   27    3      2.40     -0.40
  -18   28    3      0.73     -0.56
  -16   28    3      1.41      0.39
  -14   28    3      0.40      0.43
   14   28    3      0.09      0.32
   16   28    3      1.22      0.71
   18   28    3      0.99     -0.28
  -17   29    3     -0.55      1.66
  -15   29    3     -2.04     -0.53
  -13   29    3     -0.61     -1.28
  -11   29    3     -0.99     -0.63
   11   29    3      1.01     -1.58
   13   29    3      1.11     -0.72
   15   29    3      0.96     -0.80
  -14   30    3      0.66      0.87
  -12   30    3      0.55     -0.12
  -10   30    3      0.20      0.33
   -8   30    3     -0.76      0.54
    6   30    3      0.58      2.44
    8   30    3      1.20      2.40
   10   30    3     -1.73      1.04
   12   30    3     -0.61      0.34
   14   30    3     -1.32      0.03
  -13   31    3      0.67     -1.01
  -11   31    3      0.29      0.79
   -9   31    3     -0.45      1.45
   -7   31    3     -0.36      1.13
   -5   31    3     -0.16      1.16
   -3   31    3     -0.47      1.61
   -1   31    3     -0.24      1.50
    1   31    3     -0.51      1.32
    3   31    3      0.62      0.59
    5   31    3      0.04     -0.71
    7   31    3      1.65     -0.98
    9   31    3      0.37     -0.65
   11   31    3      1.02      1.04
   13   31    3      0.86      0.95
  -10   32    3      0.24      0.02
   -8   32    3     -1.06     -0.15
   -6   32    3     -1.16     -0.66
   -4   32    3     -0.22     -1.26
   -2   32    3      0.51     -1.36
    0   32    3      0.78     -0.71
    2   32    3      0.63      0.17
    4   32    3      0.72      0.42
    6   32    3     -0.09      1.11
    8   32    3     -0.49     -0.42
   10   32    3     -1.02      0.17
  -30    0    4      1.53     -0.10
   30    0    4     -0.30     -0.04
  -31    1    4     -0.22     -1.77
   31    1    4     -1.08     -2.14
  -30    2    4      2.41      0.74
   30    2    4      0.21      0.74
  -31    3    4      0.97     -0.04
   31    3    4     -0.50     -2.30
  -30    4    4      0.02      2.61
   30    4    4      0.37      0.01
  -31    5    4      1.13      1.30
   31    5    4     -0.20     -1.05
  -30    6    4     -0.67      0.22
   30    6    4     -0.95     -0.19
  -31    7    4      0.86      1.12
   29    7    4      0.40     -1.37
   31    7    4      0.62     -1.16
  -30    8    4      0.90      0.36
   30    8    4     -0.86     -0.84
  -31    9    4     -1.85      1.75
  -29    9    4     -2.26      2.24
   29    9    4     -0.39     -1.17
   31    9    4      1.38     -0.02
  -30   10    4     -0.15      0.10
   28   10    4      1.12     -0.29
   30   10    4      0.91     -1.06
  -31   11    4     -0.91     -0.04
  -29   11    4     -3.16     -3.34
   29   11    4      0.29      0.18
  -30   12    4     -1.35      0.11
  -28   12    4     -1.12      0.74
   28   12    4     -0.33      0.84
   30   12    4      0.14      0.58
  -29   13    4      0.73     -2.05
  -27   13    4      2.77     -2.56
   27   13    4      0.17     -0.33
   29   13    4      1.38     -0.31
  -28   14    4     -1.19     -2.92
   28   14    4     -1.62     -0.71
  -29   15    4      1.90      0.91
  -27   15    4      1.12      0.79
   27   15    4      0.92      1.36
   29   15    4      1.17      0.11
  -28   16    4      1.17     -1.79
  -26   16    4      2.17     -1.49
   26   16    4     -0.75     -0.92
   28   16    4      0.45     -0.34
  -27   17    4     -0.71      0.70
  -25   17    4     -1.31     -0.04
   25   17    4     -0.83      0.52
   27   17    4     -0.41      0.49
  -26   18    4      1.71      0.98
  -24   18    4      2.20      1.15
   24   18    4     -0.54      0.21
   26   18    4      0.11     -0.74
  -27   19    4     -0.26     -1.11
  -25   19    4     -0.22     -0.56
   23   19    4     -0.15     -0.35
   25   19    4      0.19      0.13
  -26   20    4     -0.21      1.26
  -24   20    4      0.32      2.55
   22   20    4     -2.42      0.07
   24   20    4     -0.54      0.97
  -25   21    4      1.37      0.17
  -23   21    4      1.06      0.38
   23   21    4      0.59     -0.09
   25   21    4     -0.92      0.23
  -24   22    4     -1.43      1.30
  -22   22    4     -2.26      2.26
   22   22    4     -1.79     -0.92
   24   22    4     -0.33     -0.76
  -23   23    4     -0.78      1.14
  -21   23    4     -0.54      1.58
   19   23    4     -1.70     -2.17
   21   23    4      0.06      1.12
   23   23    4     -0.35     -0.55
  -22   24    4     -1.35     -0.59
  -20   24    4     -1.65     -0.79
   18   24    4     -1.26      0.38
   20   24    4     -0.99     -0.81
   22   24    4     -0.03     -0.87
  -21   25    4     -0.72     -0.72
  -19   25    4     -1.40      0.29
  -17   25    4     -1.71     -0.09
   17   25    4      2.73     -1.59
   19   25    4     -0.80     -0.31
   21   25    4      0.56     -1.25
  -20   26    4     -0.60     -0.15
  -18   26    4     -0.18     -0.72
  -16   26    4      0.05      0.19
   16   26    4     -1.75     -0.74
   18   26    4     -1.26     -1.06
   20   26    4     -0.50     -0.74
  -19   27    4      0.32     -0.53
  -17   27    4     -0.62     -0.73
  -15   27    4     -0.58     -1.96
   13   27    4     -2.30      0.44
   15   27    4     -0.53      2.02
   17   27    4     -1.44      0.01
  -16   28    4      1.24      0.99
  -14   28    4      0.61      1.57
  -12   28    4      1.40      1.42
   12   28    4     -0.76      0.72
   14   28    4     -0.27     -1.87
   16   28    4     -0.41     -1.42
  -15   29    4     -0.57     -1.09
  -13   29    4      0.67     -1.04
  -11   29    4      0.38     -0.04
   -9   29    4      0.92     -0.12
    9   29    4     -0.25     -0.94
   11   29    4     -0.59     -1.00
   13   29    4     -0.69     -0.87
   15   29    4     -0.69     -1.35
  -14   30    4     -0.74      1.37
  -12   30    4     -1.05      0.26
  -10   30    4     -0.17      1.22
   -8   30    4     -0.04      1.75
   -6   30    4      0.23      3.40
   -4   30    4     -0.72      3.51
    4   30    4     -1.80      3.90
    6   30    4     -2.61      2.93
    8   30    4     -0.56      2.20
   10   30    4     -1.77      0.50
   12   30    4      0.67      0.29
   14   30    4      0.59     -0.32
  -11   31    4      0.45      0.61
   -9   31    4     -0.14      0.94
   -7   31    4      0.09      0.21
   -5   31    4      0.98      0.79
   -3   31    4      1.45      1.76
   -1   31    4      0.78      2.29
    1   31    4     -0.04      2.16
    3   31    4      0.36      1.61
    5   31    4     -0.73      0.46
    7   31    4      0.34      0.17
    9   31    4     -0.66     -0.61
   11   31    4      0.74      0.29
   -8   32    4     -2.12      0.44
   -6   32    4     -2.57      0.40
   -4   32    4     -2.36      0.07
   -2   32    4     -1.77     -0.78
    0   32    4     -0.88     -0.83
    2   32    4     -1.60     -0.80
    4   32    4     -1.62     -0.54
    6   32    4     -2.11      0.85
    8   32    4     -1.05     -0.02
  -30    0    5      0.58     -0.31
   30    0    5      2.04      0.00
  -31    1    5      1.64      0.42
   29    1    5     -3.99     -1.52
   31    1    5     -0.48     -1.32
  -30    2    5      0.95     -0.39
   30    2    5     -0.57      2.40
  -31    3    5     -0.44      0.70
   29    3    5      1.37     -2.68
   31    3    5     -0.28     -2.48
  -30    4    5      1.41      0.74
   30    4    5     -1.94     -1.12
  -31    5    5      1.01      0.58
  -29    5    5      0.41      0.07
   29    5    5      2.38     -0.64
   31    5    5      1.22     -0.37
  -30    6    5     -0.13      0.55
   30    6    5     -1.18     -1.77
  -31    7    5      0.61     -0.20
  -29    7    5      0.68      1.01
   29    7    5     -0.29     -0.44
   31    7    5     -0.16      0.22
  -30    8    5      1.12     -0.41
   28    8    5     -1.42     -1.92
   30    8    5     -0.17     -2.11
  -31    9    5     -0.15      0.69
  -29    9    5      0.64      0.41
   29    9    5     -0.92     -1.42
  -30   10    5      0.30      0.96
  -28   10    5     -0.97      3.40
   28   10    5     -0.04     -2.23
   30   10    5      0.53     -2.46
  -29   11    5     -1.71     -1.07
   27   11    5      0.07     -1.31
   29   11    5     -0.15     -0.51
  -30   12    5     -2.26     -0.11
  -28   12    5     -2.44      0.38
   28   12    5      1.55     -2.42
  -29   13    5     -0.81     -0.72
  -27   13    5      0.83     -1.85
   27   13    5     -0.71     -1.11
   29   13    5      0.58     -0.25
  -28   14    5     -0.49     -2.56
  -26   14    5     -0.75     -2.15
   26   14    5      0.62     -0.19
   28   14    5      0.22     -0.48
  -27   15    5      0.58     -0.46
   25   15    5      0.57     -1.00
   27   15    5      0.19     -0.37
  -28   16    5      0.65     -0.06
  -26   16    5      2.33      0.29
   26   16    5     -0.12     -1.68
  -27   17    5      0.48      0.76
  -25   17    5      0.16      0.24
   25   17    5     -0.26      0.08
   27   17    5      0.58     -0.42
  -26   18    5     -0.21      1.68
  -24   18    5      0.09      1.64
   24   18    5     -0.43     -0.70
   26   18    5      1.11     -0.88
  -25   19    5      0.05      0.58
  -23   19    5      0.64      0.02
   23   19    5      0.06     -1.74
   25   19    5     -0.50     -0.85
  -24   20    5     -0.81      0.37
  -22   20    5     -0.18      1.25
   22   20    5     -0.81     -2.24
   24   20    5      0.33     -0.28
  -23   21    5     -0.53      0.76
  -21   21    5     -0.37      0.81
   21   21    5      0.45     -0.08
   23   21    5      1.30     -0.67
  -24   22    5     -0.36      0.24
  -22   22    5     -0.63      0.68
  -20   22    5     -1.80      0.47
   20   22    5      1.14     -1.43
   22   22    5     -0.27     -0.75
  -23   23    5     -0.85      0.20
  -21   23    5     -0.91      0.48
  -19   23    5     -0.83      0.89
   19   23    5      0.48     -2.31
   21   23    5      0.91      0.30
  -22   24    5     -0.73      0.43
  -20   24    5     -0.82     -0.27
  -18   24    5      1.03     -0.70
   18   24    5     -0.09      1.66
   20   24    5      0.22     -0.12
  -19   25    5     -1.06      0.14
  -17   25    5     -1.26     -0.01
   15   25    5      0.15      1.99
   17   25    5      2.09      0.37
   19   25    5      0.18      1.27
  -18   26    5      0.83      0.54
  -16   26    5      1.08      1.55
  -14   26    5      2.40     -0.27
   14   26    5     -0.60     -0.56
   16   26    5     -2.64     -0.59
   18   26    5     -1.72     -0.08
  -17   27    5      0.34      0.15
  -15   27    5      0.54      0.29
  -13   27    5      1.34      1.20
   13   27    5     -0.83      0.34
   15   27    5     -0.30      0.98
   17   27    5     -1.04      0.14
  -16   28    5      0.28      1.17
  -14   28    5     -0.06      1.39
  -12   28    5      1.31      1.39
  -10   28    5      0.08      0.01
   10   28    5      1.13     -0.96
   12   28    5      0.17      1.28
   14   28    5      0.58     -0.37
   16   28    5     -0.34     -0.62
  -15   29    5     -0.95      1.00
  -13   29    5     -0.67      0.74
  -11   29    5     -0.86      1.19
   -9   29    5     -0.70      0.11
   -7   29    5     -1.30     -0.43
    5   29    5      0.35     -1.23
    7   29    5     -0.75      0.72
    9   29    5     -0.63      0.85
   11   29    5     -1.15      1.34
   13   29    5     -0.65      0.29
  -12   30    5     -0.56     -0.09
  -10   30    5      0.44      0.99
   -8   30    5      0.83      0.76
   -6   30    5      1.15      0.25
   -4   30    5      0.65     -1.12
   -2   30    5      0.91     -1.77
    0   30    5      1.19      0.01
    2   30    5      0.03      1.55
    4   30    5     -1.08      2.21
    6   30    5     -2.54      1.21
    8   30    5     -0.42      1.28
   10   30    5     -1.61     -0.13
   12   30    5     -0.53      0.64
   -9   31    5     -0.68     -0.20
   -7   31    5     -0.54     -0.89
   -5   31    5     -0.21     -0.09
   -3   31    5      0.31      0.87
   -1   31    5      0.18      1.02
    1   31    5      0.16      1.09
    3   31    5      0.53      1.05
    5   31    5     -0.32      0.43
    7   31    5      0.11      0.39
    9   31    5     -1.71     -0.57
   -6   32    5     -0.53      0.90
   -4   32    5      0.19      0.54
   -2   32    5      0.21      0.23
    0   32    5     -0.16      0.62
    2   32    5     -1.68      0.27
    4   32    5     -1.72     -0.83
    6   32    5     -1.85     -0.68
  -30    0    6      0.18      0.01
   28    0    6      0.57      0.04
   30    0    6      1.00      0.03
  -31    1    6      0.08     -0.88
  -29    1    6      0.47      0.85
   29    1    6     -2.41     -1.75
   31    1    6     -0.13     -1.86
  -30    2    6      0.23     -0.28
   28    2    6      0.73      0.91
   30    2    6      1.26      0.81
  -31    3    6     -0.06      0.16
  -29    3    6      0.88      0.22
   29    3    6      2.25     -0.89
  -30    4    6      1.00      0.36
   28    4    6     -1.36      1.83
   30    4    6     -1.04      0.72
  -31    5    6      0.43      0.73
  -29    5    6     -0.46      0.40
   29    5    6      1.04      0.06
  -30    6    6     -0.22      1.28
  -28    6    6      0.13      3.74
   28    6    6     -2.61     -2.87
   30    6    6     -1.36     -1.02
  -29    7    6     -0.74      1.05
   27    7    6      1.81     -0.55
   29    7    6      0.33     -0.73
  -30    8    6     -1.32     -0.22
  -28    8    6     -2.38      0.28
   28    8    6     -0.49     -2.85
   30    8    6      1.08     -0.74
  -29    9    6      0.20     -0.26
  -27    9    6     -1.34      0.27
   27    9    6      1.31      1.20
   29    9    6     -0.32      0.46
  -30   10    6      0.54     -0.78
  -28   10    6     -0.36      0.22
   26   10    6      1.06     -2.50
   28   10    6      1.26     -0.39
  -29   11    6     -0.86      0.19
  -27   11    6     -0.23      0.44
   27   11    6     -1.23     -0.61
   29   11    6     -1.06      0.12
  -28   12    6     -0.12      1.35
  -26   12    6     -1.70      0.72
   26   12    6      0.63      0.08
   28   12    6      0.93     -1.06
  -27   13    6      0.05     -1.00
   25   13    6      0.08     -0.35
   27   13    6     -0.55     -1.51
  -28   14    6     -0.41     -0.48
  -26   14    6     -2.36     -0.23
   26   14    6      1.11     -0.18
  -27   15    6      0.21      0.10
  -25   15    6      1.13      0.07
   25   15    6      0.26     -0.42
   27   15    6      0.54      0.01
  -26   16    6     -0.02     -1.20
  -24   16    6     -0.53     -1.21
   24   16    6      0.28      0.26
   26   16    6      0.02      0.27
  -25   17    6     -0.47      1.34
  -23   17    6     -0.02      1.18
   23   17    6     -0.88     -2.54
   25   17    6     -0.52     -0.47
  -26   18    6      0.61     -0.13
  -24   18    6      0.15     -0.48
   22   18    6      0.92     -0.44
   24   18    6     -1.12     -0.33
  -25   19    6     -1.73      0.17
  -23   19    6     -1.47      0.41
   21   19    6      4.09     -1.76
   23   19    6      2.01     -1.48
  -24   20    6      0.00     -0.47
  -22   20    6     -0.30      0.02
   20   20    6     -0.92      1.67
   22   20    6     -1.42     -0.87
   24   20    6      0.68      0.33
  -23   21    6     -0.55     -0.23
  -21   21    6     -1.22      0.64
   19   21    6      1.64      1.56
   21   21    6      1.61      1.44
   23   21    6      0.82      1.07
  -22   22    6      0.74     -0.27
  -20   22    6     -0.43     -0.67
   18   22    6     -0.44     -1.06
   20   22    6      0.26     -3.06
   22   22    6     -1.50     -1.13
  -21   23    6     -1.01      0.54
  -19   23    6     -0.41      0.81
  -17   23    6      0.07      1.49
   17   23    6      1.46      0.46
   19   23    6      0.72      0.66
   21   23    6      0.47      1.23
  -20   24    6      0.59      0.66
  -18   24    6      0.80      0.15
  -16   24    6      0.86      0.26
   16   24    6     -1.02      0.07
   18   24    6      0.79      0.71
   20   24    6      1.48     -1.43
  -19   25    6     -1.09      0.42
  -17   25    6     -1.14      1.52
  -15   25    6     -0.33      0.53
   15   25    6      0.27      1.66
   17   25    6      0.28      0.76
   19   25    6     -0.94      1.25
  -18   26    6      0.16      0.17
  -16   26    6     -0.05      1.13
  -14   26    6      0.71      0.41
  -12   26    6      0.33      0.46
   12   26    6     -0.50     -1.60
   14   26    6      0.72     -1.05
   16   26    6     -0.92     -1.72
  -17   27    6     -0.36     -0.24
  -15   27    6     -0.70     -0.43
  -13   27    6      0.35      0.96
  -11   27    6     -0.07      1.01
    9   27    6     -1.61      3.27
   11   27    6     -1.94      2.69
   13   27    6     -1.42      1.99
   15   27    6     -0.60      0.97
  -14   28    6     -0.21      0.39
  -12   28    6      1.53      0.27
  -10   28    6      1.27     -0.50
   -8   28    6      1.85     -0.80
   -6   28    6      0.91     -1.12
    6   28    6     -0.80     -1.04
    8   28    6     -1.51     -0.31
   10   28    6      1.04     -1.85
   12   28    6      0.20      0.82
   14   28    6      1.20      0.18
  -13   29    6     -0.35     -0.54
  -11   29    6     -1.39      0.56
   -9   29    6     -1.09      0.70
   -7   29    6     -0.77      1.10
   -5   29    6      1.16      0.86
   -3   29    6      1.34      0.44
   -1   29    6      1.86     -0.60
    1   29    6     -0.79     -2.29
    3   29    6     -1.00     -2.79
    5   29    6     -1.14     -2.33
    7   29    6     -1.56     -1.07
    9   29    6     -1.69     -1.26
   11   29    6     -2.31     -0.40
  -10   30    6      1.35      0.88
   -8   30    6      0.86      0.76
   -6   30    6      0.17      0.89
   -4   30    6     -0.05      0.62
   -2   30    6     -0.28     -0.34
    0   30    6     -0.16      0.13
    2   30    6     -0.35      0.58
    4   30    6     -0.07      0.08
    6   30    6     -0.54     -0.96
    8   30    6      1.22     -0.04
   10   30    6      0.18     -0.37
   -7   31    6     -0.91     -0.17
   -5   31    6     -0.52      0.41
   -3   31    6     -0.03      1.17
   -1   31    6      0.62      0.31
    1   31    6      1.19     -0.31
    3   31    6      1.52     -0.96
    5   31    6      0.68     -0.84
    7   31    6      1.05     -0.30
  -30    0    7      0.96     -0.12
  -28    0    7      1.15     -0.09
   28    0    7     -1.48     -0.28
   30    0    7     -1.14     -0.12
  -29    1    7      0.83      0.01
   27    1    7      0.93     -0.69
   29    1    7     -0.13     -0.35
  -30    2    7      0.59      0.56
  -28    2    7      0.82      0.93
   28    2    7     -1.80     -1.13
   30    2    7      0.04     -1.23
  -29    3    7      2.20      0.29
   27    3    7      0.56     -0.85
   29    3    7      1.15      0.25
  -30    4    7     -0.39      0.67
  -28    4    7     -0.66     -0.24
   28    4    7      0.12     -2.58
  -29    5    7      1.25      0.82
  -27    5    7      2.00      1.41
   27    5    7     -0.54      0.23
   29    5    7      0.41      0.12
  -30    6    7      0.20     -0.89
  -28    6    7      1.28     -0.03
   28    6    7      1.53     -2.18
  -29    7    7      0.52      2.43
  -27    7    7     -0.44      1.77
   27    7    7     -0.93      0.34
   29    7    7     -0.45     -0.10
  -28    8    7      1.43      0.91
   26    8    7      0.96      0.49
   28    8    7     -0.38      0.63
  -29    9    7     -0.91      0.10
  -27    9    7     -2.12     -0.18
   27    9    7     -0.63     -0.91
  -28   10    7     -0.44      1.45
  -26   10    7      0.09      1.54
   26   10    7     -1.24     -1.26
   28   10    7     -0.03      0.92
  -27   11    7      1.18     -1.07
   25   11    7      0.51      0.42
   27   11    7     -0.03     -0.44
  -28   12    7     -1.70      1.20
  -26   12    7     -2.74      0.30
   24   12    7     -0.13     -0.28
   26   12    7     -0.48      0.46
  -27   13    7      0.31      0.18
  -25   13    7      0.07      1.14
   25   13    7     -0.43      0.38
   27   13    7     -0.43      0.03
  -26   14    7     -2.96     -1.69
  -24   14    7     -1.72     -1.34
   24   14    7     -0.34     -0.78
   26   14    7      0.24      0.16
  -27   15    7     -0.78     -0.13
  -25   15    7     -0.36     -0.30
   23   15    7     -0.10     -0.18
   25   15    7      0.08     -0.09
  -26   16    7      0.14     -1.16
  -24   16    7     -0.11     -2.17
   22   16    7      1.66      0.04
   24   16    7      0.23     -0.30
  -25   17    7      0.12     -0.28
  -23   17    7      1.35      0.78
   21   17    7      1.00     -0.94
   23   17    7     -0.01     -0.41
   25   17    7     -0.10      0.39
  -24   18    7      0.68     -0.51
  -22   18    7     -0.19     -0.57
   22   18    7      1.30      0.83
   24   18    7     -0.78      0.82
  -23   19    7     -0.93      1.09
  -21   19    7     -1.24      1.81
   21   19    7      1.85      0.12
   23   19    7      0.03      0.10
  -22   20    7      0.19      0.26
  -20   20    7     -1.36     -0.33
   20   20    7     -1.23      0.87
   22   20    7     -2.05     -0.68
  -21   21    7     -1.64     -0.90
  -19   21    7     -0.46     -1.20
   19   21    7      1.38      1.96
   21   21    7      0.60      0.47
  -20   22    7     -0.75     -0.99
  -18   22    7     -0.06     -1.86
   16   22    7      1.53      1.73
   18   22    7      0.20      0.31
   20   22    7      1.36     -1.70
  -19   23    7      1.32     -0.45
  -17   23    7      1.68     -0.33
   15   23    7      0.76      0.69
   17   23    7      0.30      1.57
   19   23    7      0.29      1.69
  -18   24    7      1.06     -0.33
  -16   24    7      0.86      0.16
  -14   24    7      1.25      0.16
   14   24    7     -1.00      0.84
   16   24    7     -0.59     -0.04
   18   24    7      0.04      1.38
  -17   25    7      0.53      0.98
  -15   25    7      1.22      0.03
  -13   25    7      0.69      1.11
   11   25    7      2.21      0.30
   13   25    7      1.97      0.81
   15   25    7      1.30      0.74
   17   25    7     -0.10      0.63
  -16   26    7      0.03      0.79
  -14   26    7      0.72      0.04
  -12   26    7      0.77      0.12
  -10   26    7      0.48     -1.21
   10   26    7     -0.05      0.36
   12   26    7     -0.90     -0.47
   14   26    7      0.52      0.37
   16   26    7     -0.37     -0.67
  -15   27    7     -0.46      0.14
  -13   27    7     -0.15      1.26
  -11   27    7     -1.29      1.54
   -9   27    7     -0.73      2.93
   -7   27    7     -0.70      0.45
    5   27    7      1.32     -1.95
    7   27    7      2.69     -0.49
    9   27    7      1.55      1.06
   11   27    7     -0.14      1.59
   13   27    7     -0.47      1.83
  -12   28    7      0.85      0.12
  -10   28    7      0.15     -0.11
   -8   28    7     -0.85      0.52
   -6   28    7     -1.42      0.88
   -4   28    7     -1.62      0.33
   -2   28    7     -0.83     -1.59
    0   28    7      0.33     -2.16
    2   28    7      0.79     -1.05
    4   28    7      1.66      0.23
    6   28    7      1.61     -0.70
    8   28    7      0.51     -0.08
   10   28    7      1.41     -1.17
   12   28    7     -0.22      0.29
  -11   29    7     -0.99     -0.52
   -9   29    7     -0.88     -0.82
   -7   29    7     -0.70     -0.65
   -5   29    7      1.02     -0.61
   -3   29    7      0.43     -1.31
   -1   29    7      1.81     -1.16
    1   29    7      0.18     -1.86
    3   29    7      1.37     -1.43
    5   29    7      1.09     -0.65
    7   29    7      0.55      0.73
    9   29    7     -0.16      0.41
   -6   30    7     -1.12     -0.57
   -4   30    7     -0.52     -0.05
   -2   30    7     -0.10     -0.20
    0   30    7      0.55      0.07
    2   30    7      0.14      1.05
    4   30    7     -0.26      0.58
    6   30    7     -0.35     -0.27
  -28    0    8      0.82     -0.01
   26    0    8      1.41      0.11
   28    0    8      0.92     -0.10
  -29    1    8      0.63      0.26
  -27    1    8      1.42     -1.15
   27    1    8      2.90      1.18
  -28    2    8      1.03      0.49
   26    2    8      0.36     -0.03
   28    2    8     -0.39      0.86
  -29    3    8      1.42      0.14
  -27    3    8      1.87     -0.11
   27    3    8      0.24      1.15
  -28    4    8      0.35      0.21
  -26    4    8      0.85      0.52
   26    4    8     -0.56     -0.81
   28    4    8      0.11     -0.72
  -29    5    8      0.84      0.76
  -27    5    8      1.59      1.96
   25    5    8     -0.15     -0.30
   27    5    8     -0.13      0.52
  -28    6    8     -0.15      1.28
  -26    6    8      0.49     -0.25
   26    6    8     -0.13      0.99
   28    6    8      0.95     -0.74
  -27    7    8     -1.41      1.56
   25    7    8     -0.35      0.18
   27    7    8     -0.25      0.72
  -28    8    8      0.02      0.23
  -26    8    8     -1.26      1.78
   26    8    8      0.05     -0.92
  -27    9    8     -2.35     -0.59
  -25    9    8     -2.94     -2.61
   25    9    8     -0.44      0.31
   27    9    8     -0.35     -0.72
  -28   10    8     -0.84      0.11
  -26   10    8     -0.89      0.92
   24   10    8      0.98     -0.05
   26   10    8      0.21     -1.40
  -27   11    8      0.58     -1.58
  -25   11    8      1.71     -2.87
   23   11    8     -0.99      0.02
   25   11    8      0.16      0.02
  -26   12    8     -1.45     -1.13
  -24   12    8     -1.01      0.15
   24   12    8      0.39      0.71
   26   12    8      0.31      0.78
  -25   13    8      1.75      2.03
  -23   13    8      1.20      1.55
   23   13    8      0.56     -0.07
   25   13    8      0.13      0.56
  -26   14    8     -1.33     -1.18
  -24   14    8      0.04     -1.49
   22   14    8     -0.28      0.53
   24   14    8     -0.30      0.00
  -25   15    8     -1.12      0.42
  -23   15    8     -1.48     -0.06
   21   15    8      1.23      0.14
   23   15    8      0.58      0.71
  -24   16    8      0.69     -1.48
  -22   16    8      0.27     -0.73
   20   16    8      0.44     -0.40
   22   16    8      0.58      0.51
   24   16    8      0.17     -0.99
  -23   17    8      0.45     -0.84
  -21   17    8      1.64      0.29
   21   17    8      0.59      0.98
   23   17    8      0.07      0.29
  -22   18    8      0.73     -0.30
  -20   18    8      1.52     -0.58
   20   18    8     -0.76      0.58
   22   18    8      1.60     -0.47
  -23   19    8      0.24      0.57
  -21   19    8      0.05      0.53
  -19   19    8     -1.06      0.49
   19   19    8      0.39      0.09
   21   19    8      0.81      0.28
  -22   20    8      0.72      0.31
  -20   20    8      1.00      0.66
  -18   20    8     -0.08      2.26
   18   20    8     -0.70     -1.51
   20   20    8      0.65      0.65
  -21   21    8     -0.20     -0.56
  -19   21    8      0.63     -0.91
  -17   21    8      0.42     -1.91
   15   21    8      0.50      0.44
   17   21    8      0.97      1.03
   19   21    8      0.43      1.74
  -20   22    8     -0.56      0.46
  -18   22    8     -0.99     -0.15
  -16   22    8     -1.12     -1.17
   14   22    8     -0.62     -1.39
   16   22    8      0.17     -0.82
   18   22    8     -0.75     -0.39
  -19   23    8      1.44      0.24
  -17   23    8      0.59      0.47
  -15   23    8      0.15      0.24
  -13   23    8     -2.09     -1.09
   13   23    8      1.35     -0.88
   15   23    8      0.00      0.19
   17   23    8     -1.48      0.58
  -16   24    8     -0.13      0.31
  -14   24    8     -0.50      0.57
  -12   24    8     -2.95      0.27
   10   24    8     -0.55      3.41
   12   24    8      1.28      1.13
   14   24    8      0.46      0.09
   16   24    8      0.82     -1.45
  -15   25    8     -0.25     -0.83
  -13   25    8     -0.49     -0.94
  -11   25    8      0.73     -2.26
   -9   25    8     -0.37     -1.86
    9   25    8      1.02     -0.60
   11   25    8      1.28      0.00
   13   25    8      1.27      0.18
   15   25    8      0.57     -0.17
  -14   26    8     -0.46     -1.19
  -12   26    8      0.21     -1.61
  -10   26    8     -0.24     -1.99
   -8   26    8     -0.68     -0.50
   -6   26    8     -0.48      0.47
   -4   26    8      0.07     -0.55
    4   26    8     -3.82     -0.69
    6   26    8     -2.30     -0.66
    8   26    8     -2.88     -0.56
   10   26    8     -1.28      0.56
   12   26    8     -1.04     -0.64
  -11   27    8     -0.17      0.07
   -9   27    8      0.26      0.92
   -7   27    8      0.81     -0.11
   -5   27    8      0.63      1.64
   -3   27    8      0.51     -0.92
   -1   27    8     -1.91      0.54
    1   27    8     -2.32     -2.27
    3   27    8     -2.99     -1.43
    5   27    8     -1.83     -2.41
    7   27    8     -0.60     -0.62
    9   27    8      0.63     -0.09
   11   27    8      0.97      0.59
  -10   28    8      0.28      0.03
   -8   28    8     -0.61     -0.52
   -6   28    8     -0.43     -0.26
   -4   28    8     -0.24      0.38
   -2   28    8      0.81     -0.12
    0   28    8      1.77     -1.20
    2   28    8      0.51     -2.23
    4   28    8      0.34     -2.15
    6   28    8     -0.24     -1.79
    8   28    8     -0.62     -0.11
   -7   29    8     -0.55     -0.41
   -5   29    8      0.45      0.09
   -3   29    8     -0.55     -0.52
   -1   29    8      0.91     -0.52
    1   29    8      0.03     -2.08
    3   29    8      1.63     -1.94
    5   29    8      0.92     -1.82
  -28    0    9     -0.95      0.02
  -26    0    9      1.17     -0.05
   24    0    9      3.97     -0.01
   26    0    9      3.18      0.05
  -27    1    9      0.24     -0.28
  -25    1    9     -1.61      0.17
   25    1    9      1.07      0.22
   27    1    9      0.75      0.11
  -28    2    9     -0.22     -0.79
  -26    2    9     -0.86      0.38
   24    2    9      1.46      3.29
   26    2    9      1.42      2.00
  -27    3    9     -0.16     -1.26
  -25    3    9      0.84     -2.04
   25    3    9      1.60      0.87
   27    3    9      0.84      0.12
  -28    4    9      1.09     -0.91
  -26    4    9      1.28     -0.32
   24    4    9     -0.22      2.96
   26    4    9     -1.16      1.56
  -27    5    9      1.63      0.60
  -25    5    9      2.19      1.15
   25    5    9      0.43      2.01
   27    5    9      0.61      1.19
  -26    6    9     -0.41      0.84
   24    6    9     -1.29     -0.27
   26    6    9     -1.21      0.40
  -27    7    9     -0.77      1.11
  -25    7    9     -1.59      1.90
   23    7    9     -0.24      0.00
   25    7    9     -0.66      0.67
  -26    8    9     -2.03     -0.59
  -24    8    9     -0.53     -1.07
   24    8    9     -0.19     -0.45
   26    8    9      1.57     -1.10
  -27    9    9     -1.11     -0.21
  -25    9    9     -1.76     -1.68
   23    9    9      0.27      0.79
   25    9    9      0.65      0.96
  -26   10    9      1.23     -0.13
  -24   10    9     -1.34     -1.00
   22   10    9     -0.41      0.07
   24   10    9      0.54      1.27
  -25   11    9      0.40     -1.44
  -23   11    9      1.08     -1.52
   23   11    9     -1.39      1.19
   25   11    9     -0.84      0.31
  -24   12    9     -0.60      0.10
  -22   12    9     -0.44     -2.40
   22   12    9     -0.06     -0.22
   24   12    9      0.46      0.10
  -25   13    9      1.07      0.54
  -23   13    9      0.31      1.46
   21   13    9     -0.47     -1.10
   23   13    9     -0.40     -1.01
  -24   14    9      1.08     -0.44
  -22   14    9      0.36     -0.69
   20   14    9      1.46     -0.12
   22   14    9      0.42      1.09
  -23   15    9     -1.20      0.33
  -21   15    9     -1.30     -0.94
   19   15    9      2.13     -0.22
   21   15    9      1.16     -0.62
   23   15    9      0.82     -0.35
  -22   16    9      1.38      0.71
  -20   16    9      1.34     -0.64
   20   16    9      1.06      1.10
   22   16    9     -0.22      1.95
  -21   17    9      1.55     -0.29
  -19   17    9      1.75     -0.29
   19   17    9      1.12      0.88
   21   17    9      0.77      0.75
  -22   18    9      0.85      1.14
  -20   18    9      0.36      0.82
  -18   18    9      0.75      0.68
   18   18    9     -0.03      2.27
   20   18    9     -1.75      1.63
  -21   19    9      0.18      0.52
  -19   19    9     -0.78      1.16
  -17   19    9     -0.86     -0.20
   17   19    9     -0.30     -0.35
   19   19    9     -0.11     -0.07
  -20   20    9     -0.14      0.15
  -18   20    9     -0.22     -0.11
  -16   20    9      0.06      0.10
   14   20    9     -1.45     -0.62
   16   20    9     -1.53      0.28
   18   20    9     -1.20     -1.06
  -19   21    9     -0.20     -0.37
  -17   21    9     -0.30     -1.42
  -15   21    9     -0.53     -0.92
   13   21    9     -0.91     -1.95
   15   21    9      0.08     -1.53
   17   21    9      0.76     -0.77
  -18   22    9      0.08      0.21
  -16   22    9      0.23     -0.79
  -14   22    9      1.07     -0.63
  -12   22    9      2.05     -0.85
   12   22    9      1.44     -0.85
   14   22    9      0.32     -1.61
   16   22    9      0.67     -0.92
  -17   23    9      0.15     -0.43
  -15   23    9      0.75     -1.06
  -13   23    9     -0.72     -2.34
  -11   23    9      0.02     -0.29
    9   23    9      1.31     -0.98
   11   23    9      1.33     -2.44
   13   23    9      1.45     -0.97
   15   23    9      0.98     -0.13
  -14   24    9      1.31      0.51
  -12   24    9     -0.21      0.83
  -10   24    9     -0.26      0.63
   -8   24    9      0.61      1.16
    6   24    9     -0.80      3.99
    8   24    9      0.14      2.48
   10   24    9      0.35      2.24
   12   24    9      0.90      1.32
   14   24    9      0.25      0.71
  -13   25    9      0.35     -0.42
  -11   25    9      0.92     -1.17
   -9   25    9     -0.46     -0.10
   -7   25    9      1.97      0.10
   -5   25    9      1.31      1.06
   -3   25    9      2.10      2.28
   -1   25    9     -1.88      0.96
    1   25    9     -1.94      1.74
    3   25    9     -3.41     -0.22
    5   25    9     -1.08      1.07
    7   25    9     -1.47      0.62
    9   25    9      1.58      0.82
   11   25    9      0.86      0.64
  -10   26    9     -0.54      0.06
   -8   26    9      0.20      1.45
   -6   26    9     -0.13      3.19
   -4   26    9     -0.31      2.75
   -2   26    9     -1.28      1.62
    0   26    9     -4.43      0.46
    2   26    9     -5.83     -2.04
    4   26    9     -6.19     -0.93
    6   26    9     -3.50     -0.22
    8   26    9     -2.53      0.50
   10   26    9     -1.26      0.55
   -9   27    9      0.26      0.48
   -7   27    9      0.10     -0.09
   -5   27    9     -0.84      1.89
   -3   27    9     -1.01      0.29
   -1   27    9     -1.88      0.59
    1   27    9     -0.72     -1.55
    3   27    9     -1.72     -0.51
    5   27    9     -0.84     -1.59
    7   27    9     -0.99     -0.28
   -4   28    9     -1.29      0.30
   -2   28    9     -1.33     -0.26
    0   28    9     -0.23     -1.35
    2   28    9     -0.37     -2.70
    4   28    9      0.37     -2.31
  -26    0   10      0.54     -0.02
  -24    0   10      0.21      0.08
   22    0   10     -2.21     -0.02
   24    0   10     -0.85      0.05
  -27    1   10      0.16     -0.25
  -25    1   10      0.77      1.46
   23    1   10      1.92      1.40
   25    1   10      0.58      0.36
  -26    2   10     -0.12      0.12
  -24    2   10     -0.51     -0.53
   22    2   10      0.43     -1.77
   24    2   10      0.18     -0.80
  -25    3   10     -0.23      0.12
  -23    3   10      0.29      0.23
   23    3   10     -0.24      1.40
   25    3   10      0.73      0.36
  -26    4   10      0.56      0.81
  -24    4   10      1.05     -0.61
   22    4   10      1.87     -1.07
   24    4   10      1.33      0.67
  -25    5   10      0.44      0.09
  -23    5   10      0.32      0.69
   23    5   10      0.36      0.65
   25    5   10      0.05      0.66
  -26    6   10     -1.29      0.46
  -24    6   10     -0.60      1.95
   22    6   10      1.03      1.20
   24    6   10      0.39      0.26
  -25    7   10     -0.56      0.13
  -23    7   10     -2.23     -0.15
   21    7   10      0.11      1.04
   23    7   10     -0.04      0.97
   25    7   10     -0.40      0.75
  -24    8   10     -0.95     -1.48
  -22    8   10     -1.05      0.84
   22    8   10      1.36      2.09
   24    8   10     -0.03      0.88
  -25    9   10      0.19     -0.74
  -23    9   10      0.98     -1.88
   21    9   10     -0.66      0.64
   23    9   10     -1.23      0.77
  -24   10   10      0.03     -0.22
  -22   10   10     -0.63      0.88
   20   10   10     -0.76      3.93
   22   10   10     -0.65      2.54
   24   10   10     -0.32      1.68
  -23   11   10      2.26      0.61
  -21   11   10      2.13      1.62
   21   11   10     -0.69     -0.14
   23   11   10     -0.64      0.45
  -24   12   10     -1.16      1.26
  -22   12   10     -1.35     -1.16
  -20   12   10     -1.12     -1.62
   20   12   10     -3.42      2.36
   22   12   10     -2.76      1.32
  -23   13   10      0.13      2.15
  -21   13   10     -0.59      2.05
   19   13   10      0.28     -0.11
   21   13   10     -0.57      0.47
  -22   14   10     -0.08     -0.84
  -20   14   10      0.90     -0.12
   18   14   10     -3.84     -0.66
   20   14   10     -2.98     -1.21
   22   14   10     -2.09     -0.55
  -21   15   10     -1.74     -0.25
  -19   15   10     -1.79     -1.27
   17   15   10      0.34      1.33
   19   15   10     -0.15      1.06
   21   15   10     -0.85      0.20
  -20   16   10     -0.68     -0.01
  -18   16   10     -0.58      0.10
   16   16   10     -0.92     -1.58
   18   16   10     -0.43     -1.77
   20   16   10     -0.27     -1.64
  -21   17   10      0.66     -0.29
  -19   17   10      0.80     -1.15
  -17   17   10      0.53     -1.80
   15   17   10     -2.08      0.58
   17   17   10     -1.62      0.64
   19   17   10     -0.80      0.26
  -20   18   10     -0.98     -0.72
  -18   18   10      0.18      0.09
  -16   18   10     -0.97      0.83
   14   18   10      0.13     -0.35
   16   18   10      0.84      0.30
   18   18   10      0.94      0.09
  -19   19   10      0.07      1.03
  -17   19   10      0.06     -0.10
  -15   19   10      0.30     -0.44
   13   19   10     -1.98     -2.59
   15   19   10     -0.98     -1.55
   17   19   10     -0.55     -0.53
  -18   20   10     -0.69     -0.99
  -16   20   10     -1.15     -0.53
  -14   20   10     -1.87     -1.81
  -12   20   10     -1.03     -0.58
   12   20   10      0.49     -0.98
   14   20   10     -0.61      0.45
   16   20   10      0.06      0.80
  -17   21   10     -0.01     -0.58
  -15   21   10     -0.72     -0.12
  -13   21   10     -1.42      0.76
  -11   21   10     -3.15      1.53
    9   21   10      0.54     -0.64
   11   21   10      1.42     -2.15
   13   21   10      0.63     -1.80
   15   21   10      0.62     -1.31
  -14   22   10     -0.08     -0.75
  -12   22   10     -0.07     -0.34
  -10   22   10     -0.32      1.40
   -8   22   10     -0.25      1.84
    6   22   10      0.87      2.50
    8   22   10      0.60      0.81
   10   22   10      1.87      0.02
   12   22   10      0.71     -0.88
   14   22   10      0.39     -0.12
  -13   23   10     -2.21     -1.34
  -11   23   10     -1.53     -0.41
   -9   23   10     -1.74     -0.63
   -7   23   10     -0.56      1.68
   -5   23   10     -1.30      0.08
   -3   23   10     -1.89     -0.30
   -1   23   10     -0.92     -0.28
    1   23   10     -2.89      1.25
    3   23   10     -0.30      1.95
    5   23   10     -1.32      3.53
    7   23   10      1.01      1.18
    9   23   10      1.27      1.76
   11   23   10      1.36     -0.64
   13   23   10      1.47     -0.15
  -12   24   10     -0.19      0.43
  -10   24   10     -0.76      0.70
   -8   24   10     -0.34      1.13
   -6   24   10      0.01      0.58
   -4   24   10      1.33     -0.29
   -2   24   10      1.31      0.91
    0   24   10     -0.97      0.37
    2   24   10     -1.13      2.97
    4   24   10     -2.94      2.18
    6   24   10     -1.52      2.07
    8   24   10     -0.35      1.52
   10   24   10      1.15      0.95
   -9   25   10     -0.37      0.36
   -7   25   10      0.31      0.39
   -5   25   10     -0.09      0.82
   -3   25   10      1.81      1.08
   -1   25   10      1.18     -0.27
    1   25   10      0.65      1.09
    3   25   10     -1.19     -1.26
    5   25   10     -0.53      0.36
    7   25   10     -1.88     -0.21
    9   25   10      0.21      0.66
   -6   26   10      0.17      1.28
   -4   26   10      0.56      1.65
   -2   26   10      0.60      1.66
    0   26   10     -0.83      1.57
    2   26   10     -0.81     -1.02
    4   26   10     -1.67     -1.28
    6   26   10     -0.49     -1.57
  -24    0   11     -1.66      0.08
  -22    0   11     -2.45     -0.04
   20    0   11     -3.64      0.01
   22    0   11     -2.72      0.08
   24    0   11     -0.21      0.09
  -25    1   11      0.63      0.71
  -23    1   11      2.44      1.59
  -21    1   11      2.35      0.42
   21    1   11      2.03      0.07
   23    1   11      0.77     -0.21
  -24    2   11     -0.09     -1.80
  -22    2   11      0.27     -3.48
   20    2   11     -2.62     -4.55
   22    2   11     -0.86     -2.05
  -25    3   11      0.13      0.92
  -23    3   11      0.09      1.98
  -21    3   11     -0.08      1.89
   21    3   11      1.86      1.19
   23    3   11      0.89      0.46
  -24    4   11      2.12     -0.42
  -22    4   11      3.44     -0.15
   20    4   11      1.59     -3.36
   22    4   11      1.29     -2.42
  -23    5   11     -1.68      0.12
  -21    5   11     -0.76      1.89
   21    5   11     -0.58      2.03
   23    5   11      0.38      1.17
  -24    6   11      0.71      1.26
  -22    6   11      0.35      2.34
   20    6   11      4.03     -0.30
   22    6   11      1.42     -0.51
  -23    7   11     -0.53     -1.31
  -21    7   11     -0.16     -1.49
   19    7   11     -1.32      0.42
   21    7   11     -0.87      0.54
   23    7   11     -0.69      0.15
  -22    8   11     -0.44     -0.01
  -20    8   11     -0.47      0.09
   20    8   11      2.09      1.72
   22    8   11      1.60      0.98
  -23    9   11      1.16     -0.49
  -21    9   11      0.38     -0.82
  -19    9   11      0.61     -0.19
   19    9   11     -0.85      1.07
   21    9   11     -0.34      0.36
  -22   10   11      0.30      0.09
  -20   10   11     -0.49      0.47
   18   10   11     -0.53      1.73
   20   10   11     -0.94      2.58
   22   10   11     -0.25      1.64
  -21   11   11      0.00      0.39
  -19   11   11     -0.58      0.38
   17   11   11     -2.16     -0.13
   19   11   11     -1.61     -0.23
   21   11   11     -1.69     -0.36
  -22   12   11      0.03     -0.45
  -20   12   11     -1.00     -1.08
  -18   12   11     -0.51     -1.13
   16   12   11      0.13      0.28
   18   12   11     -1.66      0.08
   20   12   11     -1.66     -0.02
  -21   13   11     -0.78     -0.62
  -19   13   11     -1.61     -0.29
  -17   13   11     -1.48     -0.31
   17   13   11     -0.13     -1.58
   19   13   11      0.26     -1.76
  -20   14   11      1.08     -0.42
  -18   14   11      0.74     -0.79
  -16   14   11     -0.01      0.27
   16   14   11     -0.01     -0.91
   18   14   11      0.06     -0.44
  -19   15   11      0.07     -1.92
  -17   15   11     -0.40     -1.41
  -15   15   11     -1.83     -0.31
   15   15   11      1.06      0.12
   17   15   11      1.61      0.02
   19   15   11      0.57      0.09
  -18   16   11     -0.20      0.88
  -16   16   11      0.24     -0.74
  -14   16   11     -0.68     -0.91
   14   16   11      2.28     -0.29
   16   16   11      0.48      0.56
   18   16   11      0.37      0.12
  -17   17   11      0.48     -0.59
  -15   17   11     -0.71      0.10
  -13   17   11     -1.60     -1.55
   11   17   11     -1.06      0.12
   13   17   11     -1.04     -0.35
   15   17   11     -0.75      1.11
   17   17   11      0.12      0.09
  -16   18   11     -0.39      0.27
  -14   18   11      0.36      0.35
  -12   18   11      0.51     -0.50
   10   18   11     -1.13     -1.78
   12   18   11      1.25      1.38
   14   18   11      0.02      0.46
   16   18   11     -0.05      0.87
  -15   19   11     -0.82     -0.91
  -13   19   11     -1.49     -0.12
  -11   19   11      0.92     -0.73
   -9   19   11      3.44      2.89
    9   19   11      1.15     -1.45
   11   19   11      1.18     -1.03
   13   19   11     -0.30     -2.23
   15   19   11      0.32     -0.93
  -14   20   11     -1.09     -0.21
  -12   20   11      0.22      0.05
  -10   20   11      0.93      0.95
   -8   20   11     -0.01      0.45
   -6   20   11     -0.84      0.84
    6   20   11      0.08     -2.65
    8   20   11      0.80     -3.35
   10   20   11     -0.07     -0.76
   12   20   11      0.56     -0.34
   14   20   11     -0.74      0.74
  -13   21   11      0.34     -1.00
  -11   21   11     -0.78      0.26
   -9   21   11      0.51      2.03
   -7   21   11     -1.76      5.62
   -5   21   11     -0.58      6.70
   -3   21   11      1.66      7.66
   -1   21   11      2.59      7.39
    1   21   11      5.45      5.13
    3   21   11      3.69      4.77
    5   21   11      4.12      0.98
    7   21   11      3.46      1.23
    9   21   11      1.27      0.54
   11   21   11      2.05     -0.24
  -12   22   11      0.21      0.44
  -10   22   11     -0.17      0.62
   -8   22   11     -0.58      0.42
   -6   22   11      0.08     -1.68
   -4   22   11      1.06     -2.07
   -2   22   11     -0.06     -0.29
    0   22   11      1.84      0.65
    2   22   11      0.93      2.76
    4   22   11      2.71      0.97
    6   22   11      2.72      0.03
    8   22   11      2.14     -0.83
   10   22   11      1.82     -0.20
   -9   23   11     -0.79     -0.14
   -7   23   11     -1.55      1.24
   -5   23   11     -3.55      0.58
   -3   23   11     -4.28      1.27
   -1   23   11     -2.58      2.43
    1   23   11     -3.46      2.13
    3   23   11     -0.48      2.33
    5   23   11     -1.37      2.15
    7   23   11      0.04      0.66
    9   23   11     -0.16      1.55
   -6   24   11      1.49      0.10
   -4   24   11      2.89      0.43
   -2   24   11      2.78      1.34
    0   24   11      0.19      0.15
    2   24   11      0.47      1.14
    4   24   11     -0.41      0.31
    6   24   11      0.52      0.60
   -1   25   11      0.30     -1.47
    1   25   11      0.00      0.49
  -22    0   12     -0.96      0.08
  -20    0   12     -3.18     -0.07
   18    0   12     -0.28      0.40
   20    0   12     -0.36      0.14
  -23    1   12      0.76      0.59
  -21    1   12      1.46     -0.34
  -19    1   12     -0.22     -0.19
   17    1   12      0.13      0.41
   19    1   12      0.45      0.96
   21    1   12      0.79      0.52
  -22    2   12      0.07     -2.54
  -20    2   12      1.32     -3.49
   18    2   12     -0.74      1.18
   20    2   12     -1.25     -0.74
  -21    3   12      0.24      0.05
  -19    3   12      2.84     -1.23
   17    3   12     -0.03     -0.69
   19    3   12      0.30      0.65
   21    3   12      0.22      0.23
  -22    4   12      1.95     -0.93
  -20    4   12      4.27      0.04
  -18    4   12      2.64      1.39
   18    4   12      0.39     -1.00
   20    4   12      0.03     -0.51
  -21    5   12      0.28      0.35
  -19    5   12      0.67     -1.49
   17    5   12      1.24      1.03
   19    5   12      0.97      1.22
   21    5   12      0.29      0.90
  -22    6   12      0.78      1.05
  -20    6   12     -0.44      1.01
  -18    6   12     -1.05      1.13
   16    6   12     -0.94      0.97
   18    6   12     -0.74     -0.38
   20    6   12      1.08      1.03
  -21    7   12      0.75     -1.28
  -19    7   12      0.57     -0.22
  -17    7   12      1.60     -0.56
   17    7   12     -0.06      1.77
   19    7   12     -1.16      1.17
  -20    8   12     -0.72     -0.20
  -18    8   12      0.38     -1.62
   16    8   12      0.16     -2.40
   18    8   12     -0.26     -0.26
   20    8   12      0.26      0.30
  -21    9   12      0.04      0.15
  -19    9   12      0.49      0.89
  -17    9   12      0.18      0.50
   15    9   12     -0.66      1.32
   17    9   12     -0.25      0.22
   19    9   12     -0.40      0.30
  -20   10   12     -0.35      0.35
  -18   10   12      0.18      0.40
  -16   10   12      0.14      0.68
   14   10   12      0.53     -0.11
   16   10   12      0.97      0.23
   18   10   12      1.50      0.42
  -19   11   12     -0.59      0.03
  -17   11   12      0.12      0.29
  -15   11   12      0.04      0.28
   15   11   12     -0.43      1.13
   17   11   12     -1.01      0.48
   19   11   12      0.55      0.53
  -18   12   12     -0.93      0.43
  -16   12   12     -1.22      0.35
  -14   12   12     -1.23      0.09
   14   12   12     -1.69     -0.57
   16   12   12     -0.08      1.17
   18   12   12     -0.46      0.90
  -19   13   12      0.03      0.84
  -17   13   12     -1.27      0.75
  -15   13   12     -0.91      0.88
  -13   13   12     -0.10      0.45
   13   13   12     -1.19      1.63
   15   13   12     -0.55     -0.24
   17   13   12     -0.74     -0.09
  -18   14   12     -0.63     -0.75
  -16   14   12     -0.51     -0.63
  -14   14   12     -0.70     -1.11
  -12   14   12     -0.84     -0.78
   12   14   12      0.35     -2.28
   14   14   12      0.01     -0.47
   16   14   12     -0.42     -1.61
  -17   15   12     -1.16     -0.56
  -15   15   12     -1.80     -1.11
  -13   15   12      0.20     -0.68
  -11   15   12     -0.10      0.42
    9   15   12     -1.49     -1.95
   11   15   12     -1.95     -1.32
   13   15   12     -1.32      0.29
   15   15   12     -0.96     -0.27
  -16   16   12      0.52     -0.47
  -14   16   12      0.59     -0.22
  -12   16   12      1.10      0.80
  -10   16   12      1.49     -0.38
    8   16   12     -1.31      2.14
   10   16   12      1.93     -0.21
   12   16   12      0.39     -0.33
   14   16   12      2.57     -0.74
  -15   17   12      0.20     -0.48
  -13   17   12     -0.27     -0.99
  -11   17   12      1.47      0.96
   -9   17   12      0.63      0.24
   -7   17   12      3.04     -0.76
    5   17   12     -6.12     -0.25
    7   17   12     -0.89     -1.27
    9   17   12      0.55     -0.79
   11   17   12     -0.29     -0.95
   13   17   12     -0.47     -1.75
  -14   18   12      0.20      0.28
  -12   18   12     -0.06      0.93
  -10   18   12     -1.24      1.64
   -8   18   12      1.62      1.46
   -6   18   12      0.73      0.33
   -4   18   12      1.63      0.16
   -2   18   12      1.33     -0.32
    0   18   12     -2.62     -0.04
    2   18   12     -0.62     -1.29
    4   18   12     -2.70     -1.64
    6   18   12     -1.91     -1.31
    8   18   12     -1.00      0.81
   10   18   12     -0.30      0.12
   12   18   12      1.57      2.17
  -13   19   12     -0.24     -0.11
  -11   19   12      0.21     -0.85
   -9   19   12      0.76      1.76
   -7   19   12      1.12      0.71
   -5   19   12      3.11      0.91
   -3   19   12      2.46     -0.90
   -1   19   12      4.39     -6.56
    1   19   12      4.12     -4.63
    3   19   12      1.86     -9.14
    5   19   12      1.60     -4.67
    7   19   12      0.08     -2.97
    9   19   12      0.30     -1.31
   11   19   12      0.38     -0.23
  -10   20   12     -0.17     -0.10
   -8   20   12     -0.06     -0.29
   -6   20   12      1.06      1.40
   -4   20   12      1.60      1.60
   -2   20   12      0.75      0.46
    0   20   12      1.47      1.34
    2   20   12      0.94     -1.32
    4   20   12      1.36     -0.34
    6   20   12      0.61     -1.54
    8   20   12      0.13     -1.48
   10   20   12     -1.04      0.37
   -9   21   12      1.35      0.22
   -7   21   12     -0.48      1.79
   -5   21   12      0.39      1.64
   -3   21   12      1.53      2.38
   -1   21   12      1.72      2.74
    1   21   12      5.31      1.20
    3   21   12      3.46      0.94
    5   21   12      3.94     -0.93
    7   21   12      2.56     -0.11
   -6   22   12      0.61      0.71
   -4   22   12      0.62      0.54
   -2   22   12     -0.20      0.74
    0   22   12      0.37     -0.70
    2   22   12     -1.03      0.40
    4   22   12      0.02     -0.08
  -20    0   13      0.00     -0.02
  -18    0   13      0.50     -0.12
  -16    0   13     -0.45      0.06
   14    0   13     -0.52     -0.07
   16    0   13     -0.79     -0.12
   18    0   13     -1.11      0.15
  -19    1   13     -0.92     -0.38
  -17    1   13     -0.65     -1.89
  -15    1   13     -0.41     -0.62
   15    1   13     -1.06     -1.76
   17    1   13     -0.27     -0.39
   19    1   13     -0.13      0.21
  -20    2   13      0.82      0.25
  -18    2   13      1.76     -0.93
  -16    2   13      2.65     -0.68
   14    2   13      0.51      1.41
   16    2   13     -1.08      0.45
   18    2   13     -1.25      0.31
  -19    3   13      1.64     -0.52
  -17    3   13      0.35     -0.79
  -15    3   13      1.55      0.45
   15    3   13      0.30      0.56
   17    3   13      0.82      0.48
  -20    4   13      0.75      0.44
  -18    4   13      0.81      2.70
  -16    4   13      1.49      3.08
   14    4   13     -1.68      0.98
   16    4   13     -2.43      0.62
   18    4   13     -0.33     -0.93
  -19    5   13     -0.47     -0.30
  -17    5   13      0.03      0.82
  -15    5   13     -0.48      1.13
   13    5   13     -2.61     -0.87
   15    5   13     -0.73      1.32
   17    5   13     -0.01      1.26
  -18    6   13     -2.01      1.20
  -16    6   13     -3.15      1.19
  -14    6   13     -0.87      0.22
   14    6   13     -1.34     -1.14
   16    6   13      0.28     -0.03
   18    6   13      0.01     -0.70
  -19    7   13     -0.62     -0.38
  -17    7   13      0.25     -0.16
  -15    7   13     -0.62      0.07
   13    7   13     -0.39     -0.99
   15    7   13     -0.10      0.23
   17    7   13     -0.15      0.97
  -18    8   13     -0.72     -1.23
  -16    8   13     -1.46     -1.39
  -14    8   13     -0.01      0.44
   12    8   13     -1.79      2.11
   14    8   13     -1.18      2.28
   16    8   13      0.70     -0.17
  -17    9   13     -0.98      0.44
  -15    9   13     -2.00     -0.20
  -13    9   13     -1.26     -0.07
   11    9   13      0.15     -1.27
   13    9   13      0.43     -0.25
   15    9   13     -0.49      0.78
   17    9   13     -0.11      0.38
  -16   10   13     -0.55     -0.55
  -14   10   13     -0.86      0.37
  -12   10   13     -2.63      2.91
   10   10   13     -7.14     -2.50
   12   10   13     -4.63     -0.71
   14   10   13     -1.12     -0.60
   16   10   13     -0.91      0.29
  -17   11   13     -0.73     -1.32
  -15   11   13     -0.96     -1.24
  -13   11   13      0.01     -1.52
  -11   11   13      0.44     -0.21
    9   11   13     -0.18      1.41
   11   11   13      0.05      0.54
   13   11   13     -0.34     -0.35
   15   11   13     -0.31      0.22
  -16   12   13     -0.29     -0.52
  -14   12   13     -0.89     -0.93
  -12   12   13     -1.38     -0.58
  -10   12   13     -2.14     -0.44
    8   12   13     -2.53     -9.13
   10   12   13     -2.02     -4.85
   12   12   13      0.74     -1.26
   14   12   13     -0.86     -1.44
  -15   13   13      0.80     -0.08
  -13   13   13      0.64      0.55
  -11   13   13      0.21      0.57
   -9   13   13      0.22      1.65
   -7   13   13     -2.69     -0.72
    7   13   13     -4.64     -1.35
    9   13   13     -3.34     -1.09
   11   13   13     -1.88     -0.65
   13   13   13     -0.80      0.06
  -14   14   13      0.33     -0.34
  -12   14   13      0.59     -0.62
  -10   14   13      1.42     -0.17
   -8   14   13     -0.75      0.32
   -6   14   13     -2.46      3.94
   -4   14   13     -3.80      5.87
    4   14   13      0.90     -8.69
    6   14   13      2.71     -7.77
    8   14   13      2.30     -4.82
   10   14   13      0.57      0.35
   12   14   13     -0.51     -1.16
  -13   15   13      0.09      0.70
  -11   15   13     -0.66      1.27
   -9   15   13     -0.17     -0.95
   -7   15   13     -0.12      0.04
   -5   15   13      2.21     -1.01
   -3   15   13      5.22      0.29
   -1   15   13      4.27     -0.06
    1   15   13      3.33     -4.47
    3   15   13      2.02      1.22
    5   15   13      0.82     -2.39
    7   15   13      0.58     -1.58
    9   15   13     -0.13     -3.43
   11   15   13     -0.24     -1.98
  -12   16   13      0.39      1.30
  -10   16   13      1.09      0.04
   -8   16   13      0.60      1.15
   -6   16   13     -0.12     -1.94
   -4   16   13     -2.26     -2.79
   -2   16   13     -1.55      0.63
    0   16   13      0.43      1.20
    2   16   13      3.35      3.41
    4   16   13      4.68     -0.28
    6   16   13      3.77      0.00
    8   16   13      0.17      0.73
   10   16   13      0.30     -0.32
  -11   17   13      0.23      0.30
   -9   17   13     -0.50     -0.48
   -7   17   13      1.76     -0.60
   -5   17   13      1.17      1.56
   -3   17   13      0.54      1.32
   -1   17   13      2.68      1.14
    1   17   13     -2.53     -0.60
    3   17   13      0.04     -0.43
    5   17   13     -3.37      0.97
    7   17   13     -0.01     -0.29
    9   17   13      0.80      0.09
   -8   18   13      1.39      0.98
   -6   18   13      0.82      0.44
   -4   18   13      1.20      0.02
   -2   18   13      0.93     -0.41
    0   18   13     -3.20      1.97
    2   18   13     -0.65      2.48
    4   18   13     -1.13      2.19
    6   18   13      0.06      0.68
    8   18   13     -0.29      0.25
   -7   19   13      0.43     -0.58
   -5   19   13      0.85      0.63
   -3   19   13     -0.17      0.91
   -1   19   13      1.12     -2.16
    1   19   13      1.73     -0.16
    3   19   13      0.48     -3.42
    5   19   13      0.79     -0.76
   -2   20   13     -0.91     -0.85
    0   20   13     -1.12      0.52
    2   20   13     -1.91     -0.49
  -16    0   14     -0.81      0.18
  -14    0   14     -2.67     -0.01
  -12    0   14     -3.00      0.19
  -10    0   14     -2.28     -0.89
   10    0   14     -1.21      0.18
   12    0   14     -0.97     -0.07
   14    0   14     -0.36      0.00
  -17    1   14      0.31     -0.33
  -15    1   14      0.91      0.50
  -13    1   14      1.26      1.20
  -11    1   14      0.60      0.23
    9    1   14      7.22      4.65
   11    1   14      4.96      2.21
   13    1   14      2.28      2.56
   15    1   14      2.46      0.35
  -16    2   14     -0.29     -0.63
  -14    2   14     -1.48     -1.44
  -12    2   14     -1.96     -2.20
  -10    2   14     -2.09     -1.10
    8    2   14     -0.75     -0.08
   10    2   14     -1.57     -2.54
   12    2   14     -0.92      0.19
   14    2   14     -0.05     -0.20
  -17    3   14     -0.04      0.15
  -15    3   14      0.18      1.31
  -13    3   14      0.80      1.70
  -11    3   14     -1.00      1.86
    9    3   14     -0.22      5.66
   11    3   14     -1.73      3.04
   13    3   14      0.42      2.22
   15    3   14     -0.24      1.50
  -16    4   14      0.08     -0.28
  -14    4   14      0.43     -0.53
  -12    4   14     -0.23     -1.76
  -10    4   14      0.57     -1.85
    8    4   14      2.00     -2.61
   10    4   14      0.52     -2.16
   12    4   14     -0.90     -0.75
   14    4   14     -0.52     -0.04
  -15    5   14     -0.59      1.12
  -13    5   14     -1.92      1.17
  -11    5   14     -1.71      2.07
   -9    5   14     -1.96     -0.67
    7    5   14     -0.21      3.65
    9    5   14     -2.67      1.73
   11    5   14     -1.31      0.26
   13    5   14     -0.61     -1.09
   15    5   14     -0.90      0.53
  -16    6   14     -0.50      0.06
  -14    6   14     -0.47     -0.20
  -12    6   14      0.62     -0.39
  -10    6   14      0.87     -0.88
   -8    6   14      0.69      0.89
    6    6   14      1.72      0.27
    8    6   14      1.04      0.95
   10    6   14      2.57      0.76
   12    6   14      0.71     -0.02
   14    6   14     -1.08     -1.22
  -15    7   14     -0.69     -0.08
  -13    7   14     -2.64      0.43
  -11    7   14     -1.49     -1.46
   -9    7   14     -0.63     -2.31
   -7    7   14     -1.96      0.47
    5    7   14     -3.13      5.65
    7    7   14     -5.26      2.55
    9    7   14     -1.53      0.37
   11    7   14      0.54     -0.55
   13    7   14      0.40      0.16
  -14    8   14      0.20     -0.41
  -12    8   14      1.06     -0.36
  -10    8   14      1.22      0.70
   -8    8   14     -0.05     -0.24
   -6    8   14     -1.78     -0.40
    4    8   14     -0.45      0.77
    6    8   14     -0.56     -1.22
    8    8   14     -2.13      4.43
   10    8   14     -1.57      2.75
   12    8   14     -0.39      0.53
  -13    9   14     -0.49     -0.85
  -11    9   14      0.41     -1.97
   -9    9   14      1.21     -1.26
   -7    9   14      2.20     -0.18
   -5    9   14     -5.63     -4.52
   -3    9   14     -4.01     -2.65
    1    9   14     -1.13     -0.57
    3    9   14     -2.60     -0.65
    5    9   14     -4.68     -4.06
    7    9   14     -2.97     -2.06
    9    9   14     -0.84     -1.26
   11    9   14     -0.10      0.53
   13    9   14     -0.03      1.07
  -14   10   14      1.06     -0.13
  -12   10   14      0.90      1.29
  -10   10   14      1.02      0.80
   -8   10   14      0.22      0.00
   -6   10   14      1.82     -1.03
   -4   10   14      3.95     -3.60
   -2   10   14      5.24     -4.78
    0   10   14      6.47    -10.17
    2   10   14      0.22     -5.19
    4   10   14      1.78     -2.13
    6   10   14     -4.61      0.42
    8   10   14     -2.99     -0.09
   10   10   14     -2.93     -1.25
   12   10   14     -2.03     -0.07
  -13   11   14      1.39     -1.28
  -11   11   14      1.58     -0.26
   -9   11   14      0.79      2.29
   -7   11   14      1.66     -0.48
   -5   11   14      0.31     -0.22
   -3   11   14      1.95     -6.97
   -1   11   14     -0.24     -2.88
    1   11   14     -0.84     -1.20
    3   11   14      0.86     -2.37
    5   11   14      0.65     -1.44
    7   11   14      0.97     -2.30
    9   11   14     -0.35      0.32
   11   11   14     -0.26      0.64
  -12   12   14      0.42      1.37
  -10   12   14     -0.17      0.99
   -8   12   14      1.06      0.31
   -6   12   14      1.52      1.10
   -4   12   14      3.23      3.05
   -2   12   14      7.42      2.93
    0   12   14      6.48      0.80
    2   12   14      4.54      0.33
    4   12   14     -2.63     -3.06
    6   12   14     -3.84     -1.28
    8   12   14     -1.37     -2.47
   10   12   14     -1.19     -1.31
  -11   13   14      0.78      0.46
   -9   13   14      0.00      1.28
   -7   13   14     -2.27     -0.29
   -5   13   14      2.11     -0.51
   -3   13   14      1.03     -2.07
   -1   13   14      0.32     -2.02
    1   13   14     -0.48     -1.37
    3   13   14     -2.35     -1.10
    5   13   14      1.38     -0.28
    7   13   14     -1.15     -0.48
    9   13   14     -0.65     -0.44
  -10   14   14      0.62      0.77
   -8   14   14      0.33      0.25
   -6   14   14      0.16      1.17
   -4   14   14     -0.86      1.76
   -2   14   14     -2.20      3.33
    0   14   14     -0.59      3.57
    2   14   14     -1.11     -0.59
    4   14   14     -1.20     -3.74
    6   14   14     -0.20     -4.08
    8   14   14     -0.51     -2.39
   -7   15   14     -0.18     -0.28
   -5   15   14      1.47     -1.52
   -3   15   14      1.89     -0.94
   -1   15   14      0.61     -0.72
    1   15   14      0.14     -3.19
    3   15   14      0.18      0.41
    5   15   14     -0.24     -1.30
   -6   16   14      0.20     -0.02
   -4   16   14     -1.19     -1.10
   -2   16   14     -1.07      0.40
    0   16   14     -1.45     -1.61
    2   16   14      0.06     -0.48
    4   16   14      1.46     -2.02
  -12    0   15     -0.75     -0.01
  -10    0   15     -2.01     -0.56
   -8    0   15     -1.19     -0.20
   -6    0   15     -0.46     -0.86
   -4    0   15     -0.64     -0.24
   -2    0   15     -0.46     -0.57
    0    0   15     -1.65      0.26
    2    0   15      4.98     -0.11
    4    0   15      2.50     -0.23
    6    0   15      5.38     -0.38
    8    0   15     -1.64     -0.25
   10    0   15     -0.51      0.10
  -11    1   15      0.12     -0.62
   -9    1   15     -0.15      0.20
   -7    1   15     -0.39      1.01
   -5    1   15      1.16      0.22
   -3    1   15      1.34      1.30
   -1    1   15      0.24      1.79
    1    1   15      0.31      0.57
    3    1   15     -1.72      2.52
    5    1   15      1.41     -0.47
    7    1   15      1.59      1.77
    9    1   15      1.60      2.07
   11    1   15      1.17      0.08
  -12    2   15     -0.35     -1.30
  -10    2   15     -0.69     -1.98
   -8    2   15      0.04     -2.33
   -6    2   15     -0.40     -0.54
   -4    2   15     -0.73      0.06
   -2    2   15     -4.13      0.06
    0    2   15     -2.09      2.66
    2    2   15     -3.23      1.68
    4    2   15      0.81      6.54
    6    2   15     -0.35      0.62
    8    2   15      0.64      0.65
   10    2   15     -0.05     -2.02
  -11    3   15     -0.31      0.25
   -9    3   15     -0.33     -0.35
   -7    3   15     -0.53      0.43
   -5    3   15     -0.98      1.24
   -3    3   15      1.28      1.16
   -1    3   15     -0.56      1.39
    1    3   15     -3.09     -1.43
    3    3   15      0.49      0.44
    5    3   15     -0.82     -0.23
    7    3   15      0.41      1.49
    9    3   15     -1.02      1.03
  -12    4   15      0.29     -0.75
  -10    4   15      1.97     -1.16
   -8    4   15      1.80     -0.45
   -6    4   15      1.53      0.40
   -4    4   15     -1.27     -1.60
   -2    4   15     -2.15     -1.07
    0    4   15     -1.68     -3.76
    2    4   15     -3.45      1.89
    4    4   15     -0.86     -1.69
    6    4   15     -2.29      1.71
    8    4   15      1.10     -0.68
   10    4   15      0.15      0.01
  -11    5   15     -0.27      1.11
   -9    5   15     -1.55     -0.20
   -7    5   15     -1.90     -0.38
   -5    5   15     -0.67      2.89
   -3    5   15     -1.14      2.54
   -1    5   15      1.76      2.41
    1    5   15      0.09      1.18
    3    5   15      1.73     -0.41
    5    5   15     -0.63      3.51
    7    5   15     -0.73      0.86
    9    5   15     -1.14     -0.76
  -10    6   15      0.42      0.44
   -8    6   15      0.11      2.01
   -6    6   15     -0.76      0.64
   -4    6   15     -1.16     -0.01
   -2    6   15      0.97     -2.11
    0    6   15     -2.42     -0.04
    2    6   15      2.24      1.13
    4    6   15     -2.41      0.10
    6    6   15      1.92      0.85
    8    6   15     -1.78      0.17
   -9    7   15     -1.16     -1.62
   -7    7   15     -1.69     -1.13
   -5    7   15     -1.91     -1.02
   -3    7   15     -5.24      3.21
   -1    7   15     -3.02      0.99
    1    7   15     -0.46      2.90
    3    7   15     -1.81      1.03
    5    7   15     -1.90      0.87
    7    7   15     -3.51     -0.46
    9    7   15     -1.19     -0.67
  -10    8   15     -0.34      0.38
   -8    8   15     -0.65      0.14
   -6    8   15     -1.55     -0.57
   -4    8   15      0.66     -1.93
   -2    8   15     -1.32     -3.58
    0    8   15     -0.68      0.03
    2    8   15     -2.91     -2.49
    4    8   15     -1.44      3.88
    6    8   15     -0.77     -0.66
    8    8   15     -1.38      0.88
   -9    9   15      0.40     -0.33
   -7    9   15      1.32     -0.21
   -5    9   15     -2.92     -2.23
   -3    9   15     -1.47     -2.28
   -1    9   15     -3.11     -2.99
    1    9   15     -0.26     -0.85
    3    9   15     -0.58      0.55
    5    9   15     -1.22     -2.16
    7    9   15     -0.42     -1.78
   -6   10   15      0.63      0.17
   -4   10   15      2.34     -1.80
   -2   10   15      2.41     -0.87
    0   10   15      3.28     -4.05
    2   10   15     -1.36     -1.98
    4   10   15      0.41     -1.67
    6   10   15     -3.38     -0.06
   -5   11   15     -1.15     -0.27
   -3   11   15      0.52     -3.29
   -1   11   15      1.04     -0.56
    1   11   15      0.48      0.40
    3   11   15      0.07     -0.42
   -2   12   15      2.06      1.37
    0   12   15      1.52      0.20
    0    0    0      0.00      0.00
# SQUEEZE RESULTS (Version = 180518)
# Note: Data are Listed for all Voids in the P1 Unit Cell
# i.e. Centre of Gravity, Solvent Accessible Volume,
# Recovered number of Electrons in the Void and
# Details about the Squeezed Material
loop_
  _platon_squeeze_void_nr
  _platon_squeeze_void_average_x
  _platon_squeeze_void_average_y
  _platon_squeeze_void_average_z
  _platon_squeeze_void_volume
  _platon_squeeze_void_count_electrons
  _platon_squeeze_void_content
   1  0.000  0.095 -0.005       457        52 ' '
   2  0.500  0.097 -0.004       393        48 ' '
   3  0.242  0.369 -0.011        59        11 ' '
   4  0.758  0.369  0.011        59        11 ' '
   5  0.500  0.595 -0.007       457        52 ' '
   6  0.000  0.597 -0.004       393        48 ' '
   7  0.257  0.869  0.011        59        11 ' '
   8  0.742  0.869 -0.011        59        11 ' '
# Missing Reflections Below sin(th)/lambda = 0.25
loop_
  _platon_missing_refln_index_h
  _platon_missing_refln_index_k
  _platon_missing_refln_index_l
  _platon_missing_refln_theta
    2    0    0     1.573
    4    0    0     3.148
    1    1    0     1.104
    3    1    0     2.484
    0    2    0     1.549
    2    2    0     2.208
    1    3    0     2.453
    0    4    0     3.098
   -2    0    1     2.256
    0    0    1     1.657
    2    0    1     2.315
   -1    1    1     1.974
    1    1    1     2.008
   -2    2    1     2.736
    0    2    1     2.268
    2    2    1     2.785
   -8    0    2     7.053
_platon_squeeze_void_probe_radius                  1.20
_platon_squeeze_details

TITL a_a.res in C2
CELL   25.8950   26.3010   12.2932     90.00     91.48     90.00
SPGR C2
# Solvent Accessible Volume =      1931
# Electrons Found in S.A.V. =       235
# Note: Atoms in Void are Labelled as Cxxx and Qxxx for all Others
Q101 0.493 0.334 0.635 !       3.06 eA-3
Q102 0.796 0.118 0.366 !       3.06 eA-3
Q103 0.939 0.362 0.617 !       2.79 eA-3
Q104 0.200 0.068 0.368 !       2.66 eA-3
Q105 0.274 0.070 0.367 !       2.57 eA-3
Q106 0.013 0.360 0.616 !       2.55 eA-3
Q107 0.764 0.119 0.430 !       2.43 eA-3
Q108 0.566 0.338 0.618 !       2.35 eA-3
Q109 0.722 0.115 0.366 !       2.31 eA-3
Q110 0.235 0.059 0.322 !       2.22 eA-3
Q111 0.531 0.338 0.697 !       2.02 eA-3
Q112 0.973 0.349 0.571 !       2.00 eA-3
Q113 0.528 0.333 0.557 !       1.94 eA-3
Q114 0.242 0.119 0.726 !       1.91 eA-3
Q115 0.240 0.062 0.461 !       1.86 eA-3
Q116 0.977 0.362 0.696 !       1.80 eA-3
C117 0.475 0.089 0.981 !       1.30 eA-3
C118 0.500 0.180 0.000 !       1.28 eA-3
C119 1.000 0.062 0.004 !       1.20 eA-3
C120 0.560 0.080-0.005 !       1.17 eA-3
C121 0.531 0.086 0.862 !       1.15 eA-3
C122 0.533 0.069 0.064 !       1.11 eA-3
C123 0.446 0.090 0.060 !       1.11 eA-3
Q124 0.490 0.335 0.547 !       1.06 eA-3
C125 0.484 0.087 0.055 !       1.04 eA-3
C126 0.976 0.156 0.086 !       1.02 eA-3
C127 0.544 0.086 0.148 !       1.00 eA-3
C128 0.509 0.064 0.131 !       0.99 eA-3
C129 0.977 0.139 0.018 !       0.98 eA-3
C130 0.039 0.067 0.983 !       0.98 eA-3
C131 0.493 0.078 0.841 !       0.98 eA-3
C132 0.241 0.400 0.005 !       0.98 eA-3
C133 0.009 0.146 0.082 !       0.97 eA-3
C134 0.531 0.546 0.988 !       0.96 eA-3
C135 0.984 0.050 0.075 !       0.95 eA-3
C136 0.986 0.063 0.160 !       0.95 eA-3
C137 0.240 0.360 0.973 !       0.95 eA-3
C138 0.702 0.365 0.984 !       0.94 eA-3
Q139 0.049 0.351 0.611 !       0.93 eA-3
C140 0.452 0.089 0.919 !       0.93 eA-3
C141 0.016 0.072 0.066 !       0.92 eA-3
C142 0.243 0.397 0.949 !       0.91 eA-3
C143 0.984 0.051 0.921 !       0.88 eA-3
C144 0.024 0.066 0.203 !       0.88 eA-3
Q145 0.760 0.302 0.968 !       0.87 eA-3
C146 0.762 0.366 0.972 !       0.86 eA-3
C147 0.523 0.098 0.778 !       0.85 eA-3
C148 0.490 0.079 0.771 !       0.85 eA-3
C149 0.039 0.046 0.060 !       0.84 eA-3
C150 0.563 0.075 0.095 !       0.84 eA-3
Q151 0.203 0.342 0.966 !       0.83 eA-3
C152 0.962 0.171 0.142 !       0.83 eA-3
C153 0.987 0.078 0.062 !       0.82 eA-3
C154 1.001 0.168 0.143 !       0.82 eA-3
Q155 0.274 0.120 0.728 !       0.81 eA-3
C156 0.507 0.054 0.899 !       0.80 eA-3
C157 0.789 0.340 0.955 !       0.80 eA-3
Q158 0.850 0.443 0.953 !       0.79 eA-3
C159 0.733 0.385 0.965 !       0.79 eA-3
C160 0.020 0.056 0.128 !       0.79 eA-3
C161 1.000 0.084 0.200 !       0.79 eA-3
C162 0.406 0.065 0.020 !       0.78 eA-3
C163 0.280 0.354 0.953 !       0.77 eA-3
C164 0.780 0.410 0.044 !       0.75 eA-3
C165 0.032 0.031 0.129 !       0.75 eA-3
C166 0.517 0.141-0.007 !       0.75 eA-3
Q167 0.457 0.345 0.594 !       0.75 eA-3
C168 0.507 0.041 0.048 !       0.74 eA-3
C169 0.969 0.098 0.645 !       0.74 eA-3
C170 0.491 0.074 0.668 !       0.74 eA-3
Q171 0.457 0.320 0.580 !       0.74 eA-3
C172 0.786 0.378 0.014 !       0.72 eA-3
Q173 0.915 0.341 0.477 !       0.71 eA-3
C174 0.070 0.084 0.006 !       0.71 eA-3
C175 0.031 0.078 0.267 !       0.71 eA-3
Q176 0.797 0.305 0.989 !       0.70 eA-3
Q177 0.265 0.297 0.948 !       0.70 eA-3
C178 0.545 0.083 0.216 !       0.69 eA-3
C179 0.046 0.189 0.683 !       0.68 eA-3
Q180 0.048 0.338 0.676 !       0.67 eA-3
C181 0.523 0.146 0.044 !       0.67 eA-3
C182 0.571 0.050 0.192 !       0.66 eA-3
Q183 0.070 0.126 0.050 !       0.66 eA-3
Q184 0.566 0.328 0.710 !       0.65 eA-3
Q185 0.091 0.104 0.964 !       0.65 eA-3
Q186 0.167 0.118 0.641 !       0.64 eA-3
Q187 0.260 0.341 0.905 !       0.64 eA-3
Q188 0.686 0.106 0.344 !       0.63 eA-3
C189 0.475 0.136 0.267 !       0.63 eA-3
Q190 0.495 0.199 0.969 !       0.62 eA-3
C191 0.946 0.113 0.028 !       0.61 eA-3
C192 0.515 0.116 0.079 !       0.61 eA-3
Q193 0.720 0.363 0.904 !       0.61 eA-3
C194 0.955 0.078 0.079 !       0.61 eA-3
C195 0.525 0.090 0.707 !       0.61 eA-3
Q196 0.530 0.187 0.010 !       0.60 eA-3
C197 0.994 0.080 0.268 !       0.60 eA-3
Q198 0.562 0.153 0.043 !       0.60 eA-3
C199 0.968 0.178 0.222 !       0.60 eA-3
;
_shelx_fab_checksum              80019
loop_
_space_group_symop_operation_xyz
'x, y, z'
'-x, y, -z'
'x+1/2, y+1/2, z'
'-x+1/2, y+1/2, -z'
loop_
_atom_site_label
_atom_site_type_symbol
_atom_site_fract_x
_atom_site_fract_y
_atom_site_fract_z
_atom_site_U_iso_or_equiv
_atom_site_adp_type
_atom_site_occupancy
_atom_site_site_symmetry_order
_atom_site_calc_flag
_atom_site_refinement_flags_posn
_atom_site_refinement_flags_adp
_atom_site_refinement_flags_occupancy
_atom_site_disorder_assembly
_atom_site_disorder_group
Cd1 Cd 1.02512(3) 0.35598(3) 0.36533(6) 0.0288(2) Uani 1 1 d . . . . .
Cd2 Cd 0.73680(3) 0.56690(3) 0.37549(6) 0.0289(2) Uani 1 1 d D . . . .
Cd3 Cd 0.73966(3) 0.62014(3) 0.64293(6) 0.0289(2) Uani 1 1 d D . . . .
Cd4 Cd 0.52878(3) 0.33331(3) 0.63218(6) 0.0288(2) Uani 1 1 d . . . . .
O3 O 0.9508(3) 0.3735(3) 0.8273(7) 0.0366(18) Uani 1 1 d D . . . .
C1 C 0.9483(6) 0.3074(7) 0.1413(14) 0.063(4) Uani 1 1 d . . . . .
H1A H 0.9831 0.3020 0.1188 0.094 Uiso 1 1 calc R U . . .
H1B H 0.9329 0.3344 0.0993 0.094 Uiso 1 1 calc DR U . . .
H1C H 0.9287 0.2767 0.1301 0.094 Uiso 1 1 calc R U . . .
N1 N 0.8977(4) 0.3979(4) 0.6320(8) 0.034(2) Uani 1 1 d . . . . .
O2 O 0.9512(3) 0.3452(3) 0.4563(7) 0.0352(18) Uani 1 1 d . . . . .
O8 O 0.9868(4) 0.4357(4) 0.3411(8) 0.045(2) Uani 1 1 d . . . . .
O7 O 0.9675(4) 0.4401(4) 0.1637(8) 0.049(2) Uani 1 1 d . . . . .
N3 N 0.8210(4) 0.5333(4) 0.3339(9) 0.041(2) Uani 1 1 d . . . . .
O6 O 1.1532(4) 0.1067(3) 0.3571(8) 0.046(2) Uani 1 1 d . . . . .
O11 O 0.7109(4) 0.5470(3) 0.1878(8) 0.042(2) Uani 1 1 d D . . . .
H11 H 0.706(4) 0.563(2) 0.128(3) 0.064 Uiso 1 1 d D U . . .
O12 O 0.6434(7) 0.4457(7) 0.0477(12) 0.111(6) Uani 1 1 d . . . . .
H12 H 0.6493 0.4246 0.0956 0.166 Uiso 1 1 calc R U . . .
O9 O 0.7733(4) 0.5455(3) 0.7602(7) 0.044(2) Uani 1 1 d . . . . .
N5 N 0.8246(4) 0.6524(4) 0.6790(9) 0.042(2) Uani 1 1 d . . . . .
O17 O 0.9882(4) 0.7519(4) 0.6505(8) 0.046(2) Uani 1 1 d . . . . .
O18 O 0.9804(4) 0.7453(4) 0.8297(8) 0.052(2) Uani 1 1 d . . . . .
N6 N 0.7129(5) 0.7037(4) 0.6496(9) 0.043(3) Uani 1 1 d . . . . .
O15 O 0.7173(4) 0.6398(3) 0.8304(8) 0.043(2) Uani 1 1 d D . . . .
H15 H 0.709(3) 0.6212(16) 0.885(4) 0.064 Uiso 1 1 d D U . . .
O13 O 0.7700(4) 0.6409(3) 0.2610(7) 0.044(2) Uani 1 1 d . . . . .
O14 O 0.7496(3) 0.6414(3) 0.4662(7) 0.0357(18) Uani 1 1 d . . . . .
O10 O 0.7513(3) 0.5447(3) 0.5525(6) 0.0342(18) Uani 1 1 d . . . . .
O19 O 0.6573(4) 0.5830(4) 0.6544(8) 0.051(2) Uani 1 1 d . . . . .
C58 C 0.4578(6) 0.3803(7) 0.8652(12) 0.056(4) Uani 1 1 d . . . . .
H58A H 0.4878 0.4009 0.8795 0.084 Uiso 1 1 calc R U . . .
H58B H 0.4601 0.3498 0.9079 0.084 Uiso 1 1 calc R U . . .
H58C H 0.4274 0.3989 0.8841 0.084 Uiso 1 1 calc R U . . .
O23 O 0.4447(3) 0.3139(3) 0.1784(8) 0.0390(19) Uani 1 1 d D . . . .
O22 O 0.4520(3) 0.3455(3) 0.5451(6) 0.0308(17) Uani 1 1 d . . . . .
O20 O 0.6521(4) 0.5661(4) 0.8300(8) 0.055(3) Uani 1 1 d . . . . .
O5 O 1.1482(4) 0.1227(4) 0.1781(8) 0.053(2) Uani 1 1 d . . . . .
C2 C 0.9033(5) 0.3396(4) 0.2936(10) 0.036(3) Uani 1 1 d . . . . .
C8 C 0.8627(5) 0.3985(5) 0.5571(9) 0.041(3) Uani 1 1 d . . . . .
H8 H 0.8325 0.4155 0.5739 0.049 Uiso 1 1 calc R U . . .
C7 C 0.9089(4) 0.3528(4) 0.4011(9) 0.029(2) Uani 1 1 d . . . . .
N4 N 0.7079(5) 0.4843(4) 0.3677(9) 0.045(3) Uani 1 1 d . . . . .
C42 C 0.7550(4) 0.5003(4) 0.7203(10) 0.033(2) Uani 1 1 d . . . . .
C31 C 0.7072(5) 0.7347(4) 0.5721(9) 0.040(3) Uani 1 1 d . . . . .
H31 H 0.6936 0.7661 0.5907 0.048 Uiso 1 1 calc R U . . .
C26 C 0.7512(4) 0.6858(4) 0.2992(9) 0.032(2) Uani 1 1 d . . . . .
N7 N 0.5634(4) 0.4158(4) 0.6662(9) 0.039(2) Uani 1 1 d . . . . .
C59 C 0.4088(4) 0.3480(4) 0.7113(9) 0.031(2) Uani 1 1 d . . . . .
N8 N 0.3943(4) 0.2911(4) 0.3706(9) 0.038(2) Uani 1 1 d . . . . .
N2 N 1.0599(4) 0.2732(4) 0.3350(9) 0.038(2) Uani 1 1 d . . . . .
O1 O 0.9485(3) 0.3203(4) 0.2521(7) 0.042(2) Uani 1 1 d . . . . .
C3 C 0.8591(5) 0.3475(5) 0.2305(10) 0.039(3) Uani 1 1 d . . . . .
H3A H 0.8581 0.3389 0.1571 0.046 Uiso 1 1 calc R U . . .
C4 C 0.8166(5) 0.3684(5) 0.2787(12) 0.046(3) Uani 1 1 d . . . . .
H4 H 0.7862 0.3727 0.2378 0.056 Uiso 1 1 calc R U . . .
C5 C 0.8182(5) 0.3828(5) 0.3839(11) 0.041(3) Uani 1 1 d . . . . .
H5 H 0.7890 0.3973 0.4140 0.050 Uiso 1 1 calc R U . . .
C6 C 0.8637(4) 0.3763(4) 0.4499(10) 0.034(2) Uani 1 1 d . . . . .
C10 C 0.8990(5) 0.3920(6) 0.8301(11) 0.044(3) Uani 1 1 d . . . . .
H10 H 0.8759 0.3627 0.8231 0.053 Uiso 1 1 calc R U . . .
C11 C 0.8885(6) 0.4174(6) 0.9361(11) 0.054(4) Uani 1 1 d . . . . .
H11A H 0.8628 0.4067 0.9825 0.065 Uiso 1 1 calc R U . . .
O4 O 0.9206(6) 0.4580(5) 0.9580(10) 0.075(3) Uani 1 1 d . . . . .
H4A H 0.9141 0.4810 0.9147 0.112 Uiso 1 1 calc R U . . .
C9 C 0.8881(5) 0.4268(5) 0.7322(9) 0.044(3) Uani 1 1 d . . . . .
H9A H 0.8525 0.4383 0.7323 0.053 Uiso 1 1 calc R U . . .
H9B H 0.9104 0.4564 0.7362 0.053 Uiso 1 1 calc R U . . .
C18 C 0.9595(5) 0.4496(4) 0.2596(11) 0.040(3) Uani 1 1 d . . . . .
C21 C 0.9105(5) 0.4807(4) 0.2832(10) 0.035(2) Uani 1 1 d . . . . .
C22 C 0.8725(5) 0.4875(5) 0.2075(11) 0.045(3) Uani 1 1 d . . . . .
H22 H 0.8757 0.4745 0.1376 0.054 Uiso 1 1 calc R U . . .
C23 C 0.8280(5) 0.5146(6) 0.2360(11) 0.046(3) Uani 1 1 d . . . . .
H23A H 0.8022 0.5196 0.1831 0.056 Uiso 1 1 calc R U . . .
C19 C 0.8582(6) 0.5249(5) 0.4107(12) 0.047(3) Uani 1 1 d . . . . .
H19 H 0.8533 0.5372 0.4806 0.056 Uiso 1 1 calc R U . . .
C20 C 0.9026(5) 0.4991(5) 0.3906(11) 0.042(3) Uani 1 1 d . . . . .
H20 H 0.9272 0.4937 0.4458 0.051 Uiso 1 1 calc R U . . .
C50 C 0.6782(6) 0.5037(5) 0.1831(12) 0.049(3) Uani 1 1 d D . . . .
H50 H 0.6437 0.5137 0.2059 0.059 Uiso 1 1 calc R U . . .
C51 C 0.6750(9) 0.4878(7) 0.0646(14) 0.079(6) Uani 1 1 d . . . . .
H51 H 0.6923 0.5043 0.0094 0.095 Uiso 1 1 calc R U . . .
C49 C 0.6978(7) 0.4656(5) 0.2554(13) 0.059(4) Uani 1 1 d . . . . .
H49A H 0.7296 0.4522 0.2271 0.071 Uiso 1 1 calc R U . . .
H49B H 0.6731 0.4379 0.2577 0.071 Uiso 1 1 calc R U . . .
C48 C 0.7049(5) 0.4524(4) 0.4460(11) 0.042(3) Uani 1 1 d . . . . .
H48 H 0.6911 0.4210 0.4266 0.051 Uiso 1 1 calc R U . . .
C46 C 0.7195(5) 0.4574(4) 0.5588(11) 0.038(3) Uani 1 1 d . . . . .
C47 C 0.7417(5) 0.5036(4) 0.6071(11) 0.035(3) Uani 1 1 d . . . . .
C41 C 0.7877(7) 0.5451(7) 0.8747(12) 0.063(4) Uani 1 1 d . . . . .
H41A H 0.8128 0.5188 0.8884 0.094 Uiso 1 1 calc R U . . .
H41B H 0.7576 0.5386 0.9167 0.094 Uiso 1 1 calc R U . . .
H41C H 0.8022 0.5774 0.8949 0.094 Uiso 1 1 calc R U . . .
C40 C 0.8580(5) 0.6607(5) 0.6000(11) 0.043(3) Uani 1 1 d . . . . .
H40 H 0.8495 0.6481 0.5311 0.051 Uiso 1 1 calc R U . . .
C39 C 0.9042(5) 0.6866(5) 0.6128(12) 0.044(3) Uani 1 1 d . . . . .
H39 H 0.9259 0.6909 0.5544 0.052 Uiso 1 1 calc R U . . .
C38 C 0.9174(5) 0.7058(5) 0.7136(10) 0.037(3) Uani 1 1 d . . . . .
C35 C 0.9665(5) 0.7368(4) 0.7326(11) 0.040(3) Uani 1 1 d . . . . .
C37 C 0.8840(5) 0.6975(5) 0.7977(10) 0.039(3) Uani 1 1 d . . . . .
H37 H 0.8924 0.7088 0.8677 0.047 Uiso 1 1 calc R U . . .
C36 C 0.8384(5) 0.6723(5) 0.7765(10) 0.042(3) Uani 1 1 d . . . . .
H36 H 0.8155 0.6688 0.8331 0.051 Uiso 1 1 calc R U . . .
C32 C 0.7073(7) 0.7229(5) 0.7592(10) 0.056(4) Uani 1 1 d . . . . .
H32A H 0.6848 0.7525 0.7567 0.068 Uiso 1 1 calc R U . . .
H32B H 0.7408 0.7338 0.7875 0.068 Uiso 1 1 calc R U . . .
C33 C 0.6856(5) 0.6849(5) 0.8346(10) 0.040(3) Uani 1 1 d D . . . .
H33 H 0.6504 0.6763 0.8098 0.049 Uiso 1 1 calc R U . . .
C34 C 0.6844(9) 0.7019(7) 0.9517(13) 0.071(5) Uani 1 1 d . . . . .
H34A H 0.6684 0.6754 0.9944 0.085 Uiso 1 1 calc R U . . .
H34B H 0.7196 0.7061 0.9792 0.085 Uiso 1 1 calc R U . . .
O16 O 0.6584(7) 0.7459(6) 0.9661(11) 0.104(5) Uani 1 1 d . . . . .
H16 H 0.6493 0.7575 0.9066 0.155 Uiso 1 1 calc DR U . . .
C30 C 0.7188(4) 0.7285(4) 0.4585(9) 0.031(2) Uani 1 1 d . . . . .
C29 C 0.7096(5) 0.7715(4) 0.3905(11) 0.040(3) Uani 1 1 d . . . . .
H29 H 0.6954 0.8005 0.4209 0.048 Uiso 1 1 calc R U . . .
C28 C 0.7203(6) 0.7720(4) 0.2862(11) 0.044(3) Uani 1 1 d . . . . .
H28 H 0.7144 0.8012 0.2453 0.053 Uiso 1 1 calc R U . . .
C27 C 0.7408(5) 0.7282(5) 0.2367(10) 0.040(3) Uani 1 1 d . . . . .
H27 H 0.7473 0.7280 0.1626 0.048 Uiso 1 1 calc R U . . .
C24 C 0.7846(7) 0.6401(6) 0.1501(12) 0.057(4) Uani 1 1 d . . . . .
H24A H 0.7546 0.6451 0.1040 0.085 Uiso 1 1 calc R U . . .
H24B H 0.8000 0.6078 0.1339 0.085 Uiso 1 1 calc R U . . .
H24C H 0.8091 0.6667 0.1378 0.085 Uiso 1 1 calc R U . . .
C25 C 0.7394(4) 0.6834(4) 0.4101(10) 0.030(2) Uani 1 1 d . . . . .
C52 C 0.6426(4) 0.5566(5) 0.7328(11) 0.040(3) Uani 1 1 d . . . . .
C55 C 0.6132(5) 0.5074(5) 0.7074(11) 0.039(3) Uani 1 1 d . . . . .
C54 C 0.5945(6) 0.4958(5) 0.6062(12) 0.047(3) Uani 1 1 d . . . . .
H54 H 0.5980 0.5189 0.5496 0.056 Uiso 1 1 calc R U . . .
C53 C 0.5701(5) 0.4495(5) 0.5868(11) 0.045(3) Uani 1 1 d . . . . .
H53 H 0.5582 0.4418 0.5167 0.054 Uiso 1 1 calc R U . . .
O21 O 0.4549(3) 0.3673(4) 0.7506(7) 0.042(2) Uani 1 1 d . . . . .
C64 C 0.4109(4) 0.3355(4) 0.5992(11) 0.036(3) Uani 1 1 d . . . . .
C63 C 0.3655(4) 0.3123(5) 0.5534(10) 0.036(3) Uani 1 1 d . . . . .
C65 C 0.3614(5) 0.2902(5) 0.4458(9) 0.039(3) Uani 1 1 d . . . . .
H65 H 0.3307 0.2730 0.4294 0.047 Uiso 1 1 calc R U . . .
C67 C 0.3933(5) 0.2937(5) 0.1707(10) 0.040(3) Uani 1 1 d . . . . .
H67 H 0.3689 0.3222 0.1692 0.049 Uiso 1 1 calc R U . . .
C68 C 0.3867(6) 0.2644(6) 0.0660(12) 0.054(4) Uani 1 1 d . . . . .
H68 H 0.4134 0.2586 0.0185 0.065 Uiso 1 1 calc R U . . .
O24 O 0.3361(5) 0.2468(5) 0.0474(10) 0.072(3) Uani 1 1 d . . . . .
H24 H 0.3163 0.2711 0.0423 0.108 Uiso 1 1 calc R U . . .
C66 C 0.3837(5) 0.2618(5) 0.2723(9) 0.044(3) Uani 1 1 d . . . . .
H66A H 0.3480 0.2505 0.2713 0.053 Uiso 1 1 calc R U . . .
H66B H 0.4057 0.2320 0.2721 0.053 Uiso 1 1 calc R U . . .
C62 C 0.3220(4) 0.3054(5) 0.6211(12) 0.044(3) Uani 1 1 d . . . . .
H62 H 0.2920 0.2914 0.5908 0.052 Uiso 1 1 calc R U . . .
C61 C 0.3227(5) 0.3183(5) 0.7266(11) 0.044(3) Uani 1 1 d . . . . .
H61 H 0.2936 0.3129 0.7679 0.053 Uiso 1 1 calc R U . . .
C60 C 0.3664(5) 0.3394(5) 0.7741(10) 0.038(3) Uani 1 1 d . . . . .
H60 H 0.3672 0.3478 0.8477 0.046 Uiso 1 1 calc R U . . .
C57 C 0.5821(5) 0.4267(5) 0.7655(11) 0.042(3) Uani 1 1 d . . . . .
H57 H 0.5785 0.4028 0.8205 0.051 Uiso 1 1 calc R U . . .
C56 C 0.6069(6) 0.4728(5) 0.7900(12) 0.049(3) Uani 1 1 d . . . . .
H56 H 0.6188 0.4798 0.8604 0.059 Uiso 1 1 calc R U . . .
C43 C 0.7459(5) 0.4576(5) 0.7813(10) 0.042(3) Uani 1 1 d . . . . .
H43 H 0.7535 0.4575 0.8556 0.051 Uiso 1 1 calc R U . . .
C44 C 0.7250(6) 0.4140(4) 0.7308(12) 0.050(3) Uani 1 1 d . . . . .
H44 H 0.7198 0.3847 0.7712 0.060 Uiso 1 1 calc R U . . .
C45 C 0.7128(5) 0.4148(5) 0.6244(10) 0.042(3) Uani 1 1 d . . . . .
H45 H 0.6991 0.3855 0.5926 0.050 Uiso 1 1 calc R U . . .
C16 C 1.0766(5) 0.2612(5) 0.2358(10) 0.042(3) Uani 1 1 d . . . . .
H16A H 1.0716 0.2844 0.1793 0.050 Uiso 1 1 calc R U . . .
C15 C 1.1012(6) 0.2152(5) 0.2145(12) 0.046(3) Uani 1 1 d . . . . .
H15A H 1.1118 0.2076 0.1446 0.056 Uiso 1 1 calc R U . . .
C14 C 1.1095(5) 0.1815(5) 0.2980(11) 0.041(3) Uani 1 1 d . . . . .
C13 C 1.0926(5) 0.1926(5) 0.3999(12) 0.043(3) Uani 1 1 d . . . . .
H13 H 1.0971 0.1699 0.4572 0.052 Uiso 1 1 calc R U . . .
C12 C 1.0680(6) 0.2405(5) 0.4144(13) 0.051(3) Uani 1 1 d . . . . .
H12A H 1.0571 0.2490 0.4836 0.061 Uiso 1 1 calc R U . . .
C17 C 1.1383(4) 0.1320(4) 0.2755(10) 0.038(3) Uani 1 1 d . . . . .
H3 H 0.969(4) 0.384(5) 0.879(7) 0.03(3) Uiso 1 1 d D . . . .
H23 H 0.464(5) 0.294(5) 0.146(11) 0.05(5) Uiso 1 1 d D . . . .
loop_
_atom_site_aniso_label
_atom_site_aniso_U_11
_atom_site_aniso_U_22
_atom_site_aniso_U_33
_atom_site_aniso_U_23
_atom_site_aniso_U_13
_atom_site_aniso_U_12
Cd1 0.0274(4) 0.0232(4) 0.0359(4) 0.0003(3) 0.0027(3) 0.0023(3)
Cd2 0.0382(4) 0.0156(4) 0.0328(4) -0.0028(3) 0.0015(3) 0.0023(3)
Cd3 0.0367(4) 0.0172(4) 0.0330(4) -0.0025(3) 0.0032(3) -0.0034(3)
Cd4 0.0283(4) 0.0241(4) 0.0337(4) 0.0001(3) -0.0021(3) -0.0023(3)
O3 0.041(5) 0.026(4) 0.043(5) -0.005(3) -0.002(4) -0.003(3)
C1 0.047(8) 0.069(11) 0.072(11) -0.021(9) -0.008(7) 0.009(7)
N1 0.026(5) 0.036(6) 0.040(5) -0.002(4) 0.005(4) -0.003(4)
O2 0.023(4) 0.037(5) 0.045(5) 0.000(4) 0.001(3) -0.004(3)
O8 0.042(5) 0.036(5) 0.058(6) 0.006(4) 0.002(4) 0.014(4)
O7 0.059(6) 0.046(6) 0.043(5) 0.004(4) 0.014(4) 0.020(4)
N3 0.045(6) 0.030(5) 0.048(6) -0.003(5) 0.007(5) 0.005(4)
O6 0.058(6) 0.028(5) 0.054(5) -0.008(4) 0.003(4) 0.011(4)
O11 0.049(5) 0.023(4) 0.055(5) -0.002(4) 0.001(4) 0.002(4)
O12 0.166(17) 0.099(12) 0.067(8) 0.003(8) -0.018(9) -0.063(12)
O9 0.068(6) 0.029(4) 0.034(5) 0.007(4) -0.003(4) -0.001(4)
N5 0.042(6) 0.027(5) 0.056(7) -0.004(5) 0.002(5) -0.001(4)
O17 0.044(5) 0.034(5) 0.059(6) 0.000(4) 0.001(4) -0.012(4)
O18 0.061(6) 0.050(6) 0.043(5) 0.009(4) -0.013(4) -0.025(5)
N6 0.069(8) 0.025(5) 0.034(6) -0.002(4) 0.008(5) 0.004(5)
O15 0.051(5) 0.020(4) 0.058(6) 0.005(4) 0.009(4) -0.003(4)
O13 0.068(6) 0.025(4) 0.039(5) 0.008(4) 0.008(4) 0.001(4)
O14 0.054(5) 0.011(3) 0.042(5) -0.001(3) -0.003(4) 0.000(3)
O10 0.062(5) 0.019(4) 0.022(4) -0.009(3) 0.005(3) -0.002(3)
O19 0.056(6) 0.036(5) 0.062(6) 0.002(4) 0.012(5) -0.009(4)
C58 0.045(8) 0.073(11) 0.050(8) -0.009(7) 0.000(6) -0.007(7)
O23 0.042(5) 0.023(4) 0.052(5) 0.004(4) 0.000(4) 0.006(3)
O22 0.025(4) 0.035(4) 0.032(4) 0.003(3) 0.002(3) 0.001(3)
O20 0.078(7) 0.038(5) 0.050(6) -0.002(5) 0.012(5) -0.026(5)
O5 0.077(7) 0.036(5) 0.046(5) -0.007(4) -0.001(5) 0.024(5)
C2 0.038(6) 0.017(5) 0.052(7) 0.007(5) 0.000(5) -0.002(4)
C8 0.030(6) 0.032(6) 0.061(8) 0.007(6) 0.006(5) 0.007(5)
C7 0.023(5) 0.023(5) 0.040(6) 0.006(4) -0.003(4) 0.000(4)
N4 0.071(8) 0.026(5) 0.040(6) 0.004(4) -0.007(5) -0.011(5)
C42 0.041(6) 0.020(5) 0.037(6) 0.004(4) 0.004(5) 0.002(4)
C31 0.057(8) 0.020(5) 0.043(7) -0.002(5) 0.001(6) 0.002(5)
C26 0.038(6) 0.020(5) 0.037(6) -0.003(4) -0.001(5) -0.003(4)
N7 0.045(6) 0.024(5) 0.046(6) -0.001(4) -0.003(5) -0.010(4)
C59 0.044(6) 0.019(5) 0.032(6) 0.001(4) -0.004(5) 0.003(4)
N8 0.031(5) 0.041(6) 0.043(6) 0.002(5) -0.001(4) 0.004(4)
N2 0.046(6) 0.026(5) 0.043(6) 0.002(4) 0.003(4) 0.006(4)
O1 0.037(4) 0.048(5) 0.040(5) -0.014(4) -0.002(3) 0.000(4)
C3 0.049(7) 0.030(6) 0.036(6) -0.001(5) -0.007(5) -0.005(5)
C4 0.035(6) 0.045(8) 0.058(8) 0.007(6) -0.011(6) 0.001(5)
C5 0.031(6) 0.037(7) 0.056(8) 0.004(6) 0.002(5) 0.003(5)
C6 0.027(5) 0.029(6) 0.046(7) 0.006(5) 0.003(5) 0.000(4)
C10 0.039(7) 0.050(8) 0.045(7) -0.007(6) 0.010(5) -0.005(6)
C11 0.067(9) 0.062(10) 0.034(7) 0.000(6) 0.019(6) -0.004(7)
O4 0.106(10) 0.061(8) 0.059(7) -0.011(6) 0.012(6) -0.006(7)
C9 0.055(8) 0.038(7) 0.039(7) 0.002(5) 0.009(6) 0.007(6)
C18 0.040(7) 0.024(6) 0.056(8) -0.001(5) 0.003(6) 0.006(5)
C21 0.038(6) 0.028(6) 0.039(6) 0.007(5) 0.008(5) 0.005(5)
C22 0.050(8) 0.046(7) 0.038(7) -0.005(6) 0.011(5) 0.020(6)
C23 0.044(7) 0.051(8) 0.044(7) 0.006(6) 0.002(5) 0.009(6)
C19 0.056(8) 0.038(7) 0.046(7) -0.002(6) 0.011(6) 0.006(6)
C20 0.043(7) 0.033(7) 0.050(8) 0.001(5) 0.006(6) 0.011(5)
C50 0.055(8) 0.039(8) 0.052(8) 0.003(6) -0.005(6) -0.011(6)
C51 0.136(18) 0.054(10) 0.046(9) 0.002(8) -0.019(10) -0.033(11)
C49 0.088(12) 0.027(7) 0.062(10) -0.010(6) -0.007(8) -0.008(7)
C48 0.059(8) 0.015(5) 0.053(8) -0.003(5) 0.000(6) -0.002(5)
C46 0.041(7) 0.018(5) 0.054(7) -0.002(5) 0.009(5) -0.002(5)
C47 0.033(6) 0.017(5) 0.054(8) 0.003(5) 0.001(5) 0.003(4)
C41 0.091(12) 0.058(10) 0.039(8) -0.009(7) -0.023(7) -0.017(9)
C40 0.047(7) 0.039(7) 0.041(7) -0.014(5) -0.005(5) -0.007(6)
C39 0.033(6) 0.043(7) 0.055(8) 0.003(6) 0.005(5) -0.011(5)
C38 0.045(7) 0.028(6) 0.037(6) 0.007(5) -0.004(5) -0.004(5)
C35 0.036(6) 0.027(6) 0.057(8) 0.001(5) 0.000(6) -0.006(5)
C37 0.045(7) 0.035(6) 0.036(6) -0.006(5) -0.001(5) -0.006(5)
C36 0.043(7) 0.045(7) 0.040(7) 0.002(6) 0.004(5) -0.006(6)
C32 0.094(12) 0.026(7) 0.051(8) -0.006(6) 0.023(8) 0.006(7)
C33 0.047(7) 0.033(7) 0.042(7) 0.003(5) 0.006(5) 0.012(5)
C34 0.120(16) 0.048(9) 0.046(9) 0.010(7) 0.012(9) 0.016(10)
O16 0.161(16) 0.085(10) 0.065(8) -0.006(7) 0.009(9) 0.052(10)
C30 0.041(6) 0.017(5) 0.035(6) -0.001(4) 0.001(5) 0.000(4)
C29 0.047(7) 0.017(5) 0.057(8) -0.005(5) -0.004(6) 0.002(5)
C28 0.071(9) 0.017(5) 0.044(7) 0.008(5) -0.003(6) 0.006(5)
C27 0.058(8) 0.033(6) 0.030(6) 0.007(5) 0.007(5) -0.002(5)
C24 0.096(12) 0.032(7) 0.043(8) -0.015(6) 0.018(7) 0.006(7)
C25 0.031(6) 0.018(5) 0.039(6) 0.008(4) -0.001(4) 0.000(4)
C52 0.039(6) 0.033(7) 0.049(8) -0.007(5) 0.005(5) -0.007(5)
C55 0.045(7) 0.026(6) 0.048(7) -0.004(5) 0.012(5) -0.007(5)
C54 0.055(8) 0.028(6) 0.057(8) -0.002(6) 0.001(6) -0.005(5)
C53 0.058(8) 0.034(7) 0.044(7) -0.003(5) -0.007(6) -0.006(6)
O21 0.042(5) 0.047(5) 0.037(4) -0.001(4) 0.006(3) 0.001(4)
C64 0.024(5) 0.023(6) 0.062(8) 0.000(5) 0.004(5) 0.002(4)
C63 0.031(6) 0.033(6) 0.045(7) 0.002(5) 0.002(5) 0.000(5)
C65 0.032(6) 0.035(6) 0.050(7) -0.002(5) -0.006(5) -0.001(5)
C67 0.040(7) 0.037(7) 0.044(7) 0.000(5) -0.009(5) 0.003(5)
C68 0.057(9) 0.063(10) 0.043(8) -0.014(7) -0.003(6) 0.000(7)
O24 0.081(8) 0.081(8) 0.054(6) -0.001(6) -0.008(6) -0.036(7)
C66 0.043(7) 0.037(7) 0.052(8) -0.006(6) -0.009(6) -0.003(5)
C62 0.022(5) 0.041(7) 0.069(9) 0.008(6) 0.006(5) -0.004(5)
C61 0.035(6) 0.043(7) 0.056(8) 0.010(6) 0.011(5) 0.000(5)
C60 0.048(7) 0.032(6) 0.035(6) 0.004(5) 0.009(5) 0.004(5)
C57 0.060(8) 0.023(6) 0.044(7) 0.006(5) -0.002(6) -0.012(5)
C56 0.057(8) 0.036(7) 0.053(8) -0.012(6) 0.000(6) -0.015(6)
C43 0.060(8) 0.040(7) 0.028(6) 0.013(5) 0.002(5) 0.001(6)
C44 0.069(9) 0.015(5) 0.066(9) 0.008(5) 0.019(7) -0.001(5)
C45 0.056(8) 0.025(6) 0.043(7) -0.003(5) 0.002(6) -0.002(5)
C16 0.059(8) 0.023(6) 0.043(7) 0.000(5) 0.003(6) 0.011(5)
C15 0.057(8) 0.026(6) 0.055(8) -0.001(6) 0.008(6) 0.010(6)
C14 0.041(7) 0.026(6) 0.055(8) -0.007(5) -0.002(6) 0.004(5)
C13 0.046(7) 0.028(6) 0.056(8) -0.002(6) 0.004(6) 0.007(5)
C12 0.055(8) 0.022(6) 0.075(10) -0.002(6) 0.014(7) 0.008(6)
C17 0.042(6) 0.026(6) 0.045(7) 0.008(5) -0.001(5) 0.006(5)
loop_
_atom_type_symbol
_atom_type_description
_atom_type_scat_dispersion_real
_atom_type_scat_dispersion_imag
_atom_type_scat_source
C C 0.0033 0.0016 'International Tables Vol C Tables 4.2.6.8 and 6.1.1.4'
H H 0.0000 0.0000 'International Tables Vol C Tables 4.2.6.8 and 6.1.1.4'
Cd Cd -0.8075 1.2024 'International Tables Vol C Tables 4.2.6.8 and 6.1.1.4'
N N 0.0061 0.0033 'International Tables Vol C Tables 4.2.6.8 and 6.1.1.4'
O O 0.0106 0.0060 'International Tables Vol C Tables 4.2.6.8 and 6.1.1.4'
loop_
_geom_angle_atom_site_label_1
_geom_angle_atom_site_label_2
_geom_angle_atom_site_label_3
_geom_angle
_geom_angle_site_symmetry_1
_geom_angle_site_symmetry_3
_geom_angle_publ_flag
O2 Cd1 O2 73.7(3) . 2_756 ?
O2 Cd1 N1 143.7(3) . 2_756 ?
O2 Cd1 N1 80.3(3) 2_756 2_756 ?
O2 Cd1 O8 79.2(3) . . ?
O2 Cd1 O8 109.7(3) 2_756 . ?
N1 Cd1 O8 86.4(4) 2_756 . ?
O2 Cd1 N2 106.9(3) . . ?
O2 Cd1 N2 86.8(3) 2_756 . ?
N1 Cd1 N2 96.3(4) 2_756 . ?
O8 Cd1 N2 163.5(4) . . ?
O2 Cd1 O3 136.5(3) . 2_756 ?
O2 Cd1 O3 149.7(3) 2_756 2_756 ?
N1 Cd1 O3 71.7(3) 2_756 2_756 ?
O8 Cd1 O3 80.2(3) . 2_756 ?
N2 Cd1 O3 85.2(3) . 2_756 ?
O10 Cd2 O14 74.6(3) . . ?
O10 Cd2 N4 80.9(3) . . ?
O14 Cd2 N4 151.4(4) . . ?
O10 Cd2 O6 109.1(3) . 3_455 ?
O14 Cd2 O6 77.9(3) . 3_455 ?
N4 Cd2 O6 96.7(4) . 3_455 ?
O10 Cd2 N3 88.9(3) . . ?
O14 Cd2 N3 107.3(3) . . ?
N4 Cd2 N3 86.6(4) . . ?
O6 Cd2 N3 162.0(4) 3_455 . ?
O10 Cd2 O11 152.0(3) . . ?
O14 Cd2 O11 132.8(3) . . ?
N4 Cd2 O11 71.2(3) . . ?
O6 Cd2 O11 77.3(3) 3_455 . ?
N3 Cd2 O11 87.1(3) . . ?
O14 Cd3 O10 74.3(3) . . ?
O14 Cd3 N6 80.8(3) . . ?
O10 Cd3 N6 152.0(3) . . ?
O14 Cd3 O19 106.6(3) . . ?
O10 Cd3 O19 78.5(3) . . ?
N6 Cd3 O19 96.9(4) . . ?
O14 Cd3 N5 87.9(4) . . ?
O10 Cd3 N5 105.4(3) . . ?
N6 Cd3 N5 86.0(4) . . ?
O19 Cd3 N5 165.5(4) . . ?
O14 Cd3 O15 152.5(3) . . ?
O10 Cd3 O15 132.5(3) . . ?
N6 Cd3 O15 71.7(3) . . ?
O19 Cd3 O15 78.1(3) . . ?
N5 Cd3 O15 89.4(3) . . ?
O22 Cd4 O22 74.7(3) . 2_656 ?
O22 Cd4 N8 145.2(3) . 2_656 ?
O22 Cd4 N8 80.9(3) 2_656 2_656 ?
O22 Cd4 N7 106.1(3) . . ?
O22 Cd4 N7 87.1(3) 2_656 . ?
N8 Cd4 N7 96.9(4) 2_656 . ?
O22 Cd4 O17 77.8(3) . 3_445 ?
O22 Cd4 O17 108.9(3) 2_656 3_445 ?
N8 Cd4 O17 87.2(4) 2_656 3_445 ?
N7 Cd4 O17 164.0(4) . 3_445 ?
O22 Cd4 O23 134.3(3) . 2_656 ?
O22 Cd4 O23 150.9(3) 2_656 2_656 ?
N8 Cd4 O23 72.0(3) 2_656 2_656 ?
N7 Cd4 O23 85.9(3) . 2_656 ?
O17 Cd4 O23 80.7(3) 3_445 2_656 ?
C10 O3 Cd1 110.0(7) . 2_756 ?
C10 O3 H3 112(9) . . ?
Cd1 O3 H3 130(9) 2_756 . ?
O1 C1 H1A 109.5 . . ?
O1 C1 H1B 109.5 . . ?
H1A C1 H1B 109.5 . . ?
O1 C1 H1C 109.5 . . ?
H1A C1 H1C 109.5 . . ?
H1B C1 H1C 109.5 . . ?
C8 N1 C9 117.7(10) . . ?
C8 N1 Cd1 128.5(8) . 2_756 ?
C9 N1 Cd1 113.8(8) . 2_756 ?
C7 O2 Cd1 116.0(7) . . ?
C7 O2 Cd1 133.8(7) . 2_756 ?
Cd1 O2 Cd1 104.5(3) . 2_756 ?
C18 O8 Cd1 126.1(8) . . ?
C23 N3 C19 117.8(11) . . ?
C23 N3 Cd2 118.3(9) . . ?
C19 N3 Cd2 122.9(9) . . ?
C17 O6 Cd2 124.1(8) . 3_545 ?
C50 O11 Cd2 111.1(8) . . ?
C50 O11 H11 107(3) . . ?
Cd2 O11 H11 137(3) . . ?
C51 O12 H12 109.5 . . ?
C42 O9 C41 114.8(10) . . ?
C40 N5 C36 114.9(11) . . ?
C40 N5 Cd3 122.3(8) . . ?
C36 N5 Cd3 121.7(9) . . ?
C35 O17 Cd4 125.0(8) . 3 ?
C31 N6 C32 117.7(11) . . ?
C31 N6 Cd3 128.3(9) . . ?
C32 N6 Cd3 113.7(8) . . ?
C33 O15 Cd3 110.9(7) . . ?
C33 O15 H15 107(3) . . ?
Cd3 O15 H15 133(3) . . ?
C26 O13 C24 116.6(10) . . ?
C25 O14 Cd3 132.8(7) . . ?
C25 O14 Cd2 116.0(7) . . ?
Cd3 O14 Cd2 103.8(3) . . ?
C47 O10 Cd2 132.8(7) . . ?
C47 O10 Cd3 116.0(7) . . ?
Cd2 O10 Cd3 102.7(3) . . ?
C52 O19 Cd3 124.6(9) . . ?
O21 C58 H58A 109.5 . . ?
O21 C58 H58B 109.5 . . ?
H58A C58 H58B 109.5 . . ?
O21 C58 H58C 109.5 . . ?
H58A C58 H58C 109.5 . . ?
H58B C58 H58C 109.5 . . ?
C67 O23 Cd4 112.0(7) . 2_656 ?
C67 O23 H23 107(10) . . ?
Cd4 O23 H23 115(10) 2_656 . ?
C64 O22 Cd4 116.9(7) . . ?
C64 O22 Cd4 131.7(8) . 2_656 ?
Cd4 O22 Cd4 102.9(3) . 2_656 ?
C7 C2 C3 124.6(12) . . ?
C7 C2 O1 112.3(10) . . ?
C3 C2 O1 123.0(11) . . ?
N1 C8 C6 128.8(11) . . ?
N1 C8 H8 115.6 . . ?
C6 C8 H8 115.6 . . ?
O2 C7 C2 122.5(11) . . ?
O2 C7 C6 121.7(11) . . ?
C2 C7 C6 115.9(10) . . ?
C48 N4 C49 118.1(11) . . ?
C48 N4 Cd2 127.8(9) . . ?
C49 N4 Cd2 113.7(8) . . ?
O9 C42 C43 125.4(11) . . ?
O9 C42 C47 111.7(9) . . ?
C43 C42 C47 122.8(11) . . ?
N6 C31 C30 129.4(11) . . ?
N6 C31 H31 115.3 . . ?
C30 C31 H31 115.3 . . ?
O13 C26 C27 125.1(11) . . ?
O13 C26 C25 112.5(10) . . ?
C27 C26 C25 122.3(11) . . ?
C57 N7 C53 118.5(10) . . ?
C57 N7 Cd4 118.8(8) . . ?
C53 N7 Cd4 122.2(8) . . ?
O21 C59 C60 124.2(10) . . ?
O21 C59 C64 111.8(10) . . ?
C60 C59 C64 123.9(11) . . ?
C65 N8 C66 118.5(11) . . ?
C65 N8 Cd4 128.4(9) . 2_656 ?
C66 N8 Cd4 113.1(8) . 2_656 ?
C12 N2 C16 118.2(11) . . ?
C12 N2 Cd1 122.3(9) . . ?
C16 N2 Cd1 119.1(8) . . ?
C2 O1 C1 117.6(10) . . ?
C4 C3 C2 118.6(12) . . ?
C4 C3 H3A 120.7 . . ?
C2 C3 H3A 120.7 . . ?
C5 C4 C3 121.3(12) . . ?
C5 C4 H4 119.4 . . ?
C3 C4 H4 119.4 . . ?
C4 C5 C6 121.2(12) . . ?
C4 C5 H5 119.4 . . ?
C6 C5 H5 119.4 . . ?
C5 C6 C8 116.1(11) . . ?
C5 C6 C7 118.4(11) . . ?
C8 C6 C7 125.2(10) . . ?
O3 C10 C11 111.5(12) . . ?
O3 C10 C9 109.9(10) . . ?
C11 C10 C9 112.5(12) . . ?
O3 C10 H10 107.6 . . ?
C11 C10 H10 107.6 . . ?
C9 C10 H10 107.6 . . ?
O4 C11 C10 113.2(12) . . ?
O4 C11 H11A 123.4 . . ?
C10 C11 H11A 123.4 . . ?
C11 O4 H4A 109.5 . . ?
N1 C9 C10 108.4(10) . . ?
N1 C9 H9A 110.0 . . ?
C10 C9 H9A 110.0 . . ?
N1 C9 H9B 110.0 . . ?
C10 C9 H9B 110.0 . . ?
H9A C9 H9B 108.4 . . ?
O7 C18 O8 126.6(12) . . ?
O7 C18 C21 116.6(11) . . ?
O8 C18 C21 116.8(11) . . ?
C22 C21 C20 118.3(11) . . ?
C22 C21 C18 121.9(11) . . ?
C20 C21 C18 119.5(11) . . ?
C21 C22 C23 118.8(12) . . ?
C21 C22 H22 120.6 . . ?
C23 C22 H22 120.6 . . ?
N3 C23 C22 123.3(13) . . ?
N3 C23 H23A 118.4 . . ?
C22 C23 H23A 118.4 . . ?
N3 C19 C20 123.0(13) . . ?
N3 C19 H19 118.5 . . ?
C20 C19 H19 118.5 . . ?
C19 C20 C21 118.6(13) . . ?
C19 C20 H20 120.7 . . ?
C21 C20 H20 120.7 . . ?
O11 C50 C49 109.7(12) . . ?
O11 C50 C51 106.2(12) . . ?
C49 C50 C51 114.5(14) . . ?
O11 C50 H50 108.8 . . ?
C49 C50 H50 108.8 . . ?
C51 C50 H50 108.8 . . ?
O12 C51 C50 112.5(15) . . ?
O12 C51 H51 123.8 . . ?
C50 C51 H51 123.8 . . ?
C50 C49 N4 113.5(12) . . ?
C50 C49 H49A 108.9 . . ?
N4 C49 H49A 108.9 . . ?
C50 C49 H49B 108.9 . . ?
N4 C49 H49B 108.9 . . ?
H49A C49 H49B 107.7 . . ?
N4 C48 C46 130.4(12) . . ?
N4 C48 H48 114.8 . . ?
C46 C48 H48 114.8 . . ?
C45 C46 C48 116.9(11) . . ?
C45 C46 C47 119.1(12) . . ?
C48 C46 C47 124.0(11) . . ?
O10 C47 C42 120.7(10) . . ?
O10 C47 C46 124.0(11) . . ?
C42 C47 C46 115.3(10) . . ?
O9 C41 H41A 109.5 . . ?
O9 C41 H41B 109.5 . . ?
H41A C41 H41B 109.5 . . ?
O9 C41 H41C 109.5 . . ?
H41A C41 H41C 109.5 . . ?
H41B C41 H41C 109.5 . . ?
N5 C40 C39 125.0(12) . . ?
N5 C40 H40 117.5 . . ?
C39 C40 H40 117.5 . . ?
C38 C39 C40 118.6(13) . . ?
C38 C39 H39 120.7 . . ?
C40 C39 H39 120.7 . . ?
C39 C38 C37 118.2(12) . . ?
C39 C38 C35 121.5(12) . . ?
C37 C38 C35 120.3(11) . . ?
O17 C35 O18 126.5(12) . . ?
O17 C35 C38 116.2(11) . . ?
O18 C35 C38 117.3(11) . . ?
C36 C37 C38 119.0(12) . . ?
C36 C37 H37 120.5 . . ?
C38 C37 H37 120.5 . . ?
N5 C36 C37 124.3(12) . . ?
N5 C36 H36 117.8 . . ?
C37 C36 H36 117.8 . . ?
N6 C32 C33 113.3(12) . . ?
N6 C32 H32A 108.9 . . ?
C33 C32 H32A 108.9 . . ?
N6 C32 H32B 108.9 . . ?
C33 C32 H32B 108.9 . . ?
H32A C32 H32B 107.7 . . ?
O15 C33 C32 107.9(11) . . ?
O15 C33 C34 107.7(11) . . ?
C32 C33 C34 114.4(12) . . ?
O15 C33 H33 108.9 . . ?
C32 C33 H33 108.9 . . ?
C34 C33 H33 108.9 . . ?
O16 C34 C33 113.6(14) . . ?
O16 C34 H34A 108.8 . . ?
C33 C34 H34A 108.8 . . ?
O16 C34 H34B 108.8 . . ?
C33 C34 H34B 108.8 . . ?
H34A C34 H34B 107.7 . . ?
C34 O16 H16 109.5 . . ?
C29 C30 C25 118.2(10) . . ?
C29 C30 C31 116.3(10) . . ?
C25 C30 C31 125.5(10) . . ?
C28 C29 C30 123.0(11) . . ?
C28 C29 H29 118.5 . . ?
C30 C29 H29 118.5 . . ?
C29 C28 C27 120.1(11) . . ?
C29 C28 H28 120.0 . . ?
C27 C28 H28 120.0 . . ?
C26 C27 C28 119.3(11) . . ?
C26 C27 H27 120.3 . . ?
C28 C27 H27 120.3 . . ?
O13 C24 H24A 109.5 . . ?
O13 C24 H24B 109.5 . . ?
H24A C24 H24B 109.5 . . ?
O13 C24 H24C 109.5 . . ?
H24A C24 H24C 109.5 . . ?
H24B C24 H24C 109.5 . . ?
O14 C25 C26 119.8(10) . . ?
O14 C25 C30 123.0(10) . . ?
C26 C25 C30 117.1(10) . . ?
O20 C52 O19 125.1(12) . . ?
O20 C52 C55 116.8(12) . . ?
O19 C52 C55 118.0(11) . . ?
C54 C55 C56 118.8(12) . . ?
C54 C55 C52 122.7(12) . . ?
C56 C55 C52 118.5(12) . . ?
C55 C54 C53 120.2(13) . . ?
C55 C54 H54 119.9 . . ?
C53 C54 H54 119.9 . . ?
N7 C53 C54 121.6(13) . . ?
N7 C53 H53 119.2 . . ?
C54 C53 H53 119.2 . . ?
C59 O21 C58 116.9(10) . . ?
O22 C64 C59 120.2(11) . . ?
O22 C64 C63 124.3(12) . . ?
C59 C64 C63 115.4(11) . . ?
C64 C63 C62 118.5(12) . . ?
C64 C63 C65 125.0(11) . . ?
C62 C63 C65 116.2(11) . . ?
N8 C65 C63 128.4(11) . . ?
N8 C65 H65 115.8 . . ?
C63 C65 H65 115.8 . . ?
O23 C67 C68 109.3(11) . . ?
O23 C67 C66 108.6(10) . . ?
C68 C67 C66 113.7(11) . . ?
O23 C67 H67 108.4 . . ?
C68 C67 H67 108.4 . . ?
C66 C67 H67 108.4 . . ?
O24 C68 C67 113.1(13) . . ?
O24 C68 H68 123.4 . . ?
C67 C68 H68 123.4 . . ?
C68 O24 H24 109.5 . . ?
N8 C66 C67 111.0(11) . . ?
N8 C66 H66A 109.4 . . ?
C67 C66 H66A 109.4 . . ?
N8 C66 H66B 109.4 . . ?
C67 C66 H66B 109.4 . . ?
H66A C66 H66B 108.0 . . ?
C61 C62 C63 122.7(12) . . ?
C61 C62 H62 118.6 . . ?
C63 C62 H62 118.6 . . ?
C62 C61 C60 120.2(12) . . ?
C62 C61 H61 119.9 . . ?
C60 C61 H61 119.9 . . ?
C61 C60 C59 119.1(12) . . ?
C61 C60 H60 120.4 . . ?
C59 C60 H60 120.4 . . ?
N7 C57 C56 122.4(12) . . ?
N7 C57 H57 118.8 . . ?
C56 C57 H57 118.8 . . ?
C55 C56 C57 118.4(13) . . ?
C55 C56 H56 120.8 . . ?
C57 C56 H56 120.8 . . ?
C42 C43 C44 119.7(12) . . ?
C42 C43 H43 120.2 . . ?
C44 C43 H43 120.2 . . ?
C45 C44 C43 119.9(11) . . ?
C45 C44 H44 120.0 . . ?
C43 C44 H44 120.0 . . ?
C44 C45 C46 123.2(12) . . ?
C44 C45 H45 118.4 . . ?
C46 C45 H45 118.4 . . ?
N2 C16 C15 122.2(12) . . ?
N2 C16 H16A 118.9 . . ?
C15 C16 H16A 118.9 . . ?
C14 C15 C16 118.9(13) . . ?
C14 C15 H15A 120.5 . . ?
C16 C15 H15A 120.5 . . ?
C13 C14 C15 120.1(12) . . ?
C13 C14 C17 121.0(12) . . ?
C15 C14 C17 118.9(12) . . ?
C14 C13 C12 117.2(13) . . ?
C14 C13 H13 121.4 . . ?
C12 C13 H13 121.4 . . ?
N2 C12 C13 123.3(14) . . ?
N2 C12 H12A 118.4 . . ?
C13 C12 H12A 118.4 . . ?
O5 C17 O6 126.4(11) . . ?
O5 C17 C14 116.8(11) . . ?
O6 C17 C14 116.6(11) . . ?
loop_
_geom_bond_atom_site_label_1
_geom_bond_atom_site_label_2
_geom_bond_distance
_geom_bond_site_symmetry_2
_geom_bond_publ_flag
Cd1 O2 2.260(8) . ?
Cd1 O2 2.279(8) 2_756 ?
Cd1 N1 2.282(10) 2_756 ?
Cd1 O8 2.334(9) . ?
Cd1 N2 2.390(10) . ?
Cd1 O3 2.507(9) 2_756 ?
Cd2 O10 2.275(8) . ?
Cd2 O14 2.275(8) . ?
Cd2 N4 2.300(11) . ?
Cd2 O6 2.410(9) 3_455 ?
Cd2 N3 2.420(11) . ?
Cd2 O11 2.442(9) . ?
Cd3 O14 2.264(8) . ?
Cd3 O10 2.299(7) . ?
Cd3 N6 2.307(11) . ?
Cd3 O19 2.354(9) . ?
Cd3 N5 2.387(11) . ?
Cd3 O15 2.446(10) . ?
Cd4 O22 2.256(7) . ?
Cd4 O22 2.271(8) 2_656 ?
Cd4 N8 2.282(11) 2_656 ?
Cd4 N7 2.381(10) . ?
Cd4 O17 2.398(9) 3_445 ?
Cd4 O23 2.465(9) 2_656 ?
O3 C10 1.426(16) . ?
O3 Cd1 2.507(9) 2_756 ?
O3 H3 0.83(3) . ?
C1 O1 1.404(18) . ?
C1 H1A 0.9600 . ?
C1 H1B 0.9600 . ?
C1 H1C 0.9600 . ?
N1 C8 1.275(15) . ?
N1 C9 1.475(15) . ?
N1 Cd1 2.282(10) 2_756 ?
O2 C7 1.288(13) . ?
O2 Cd1 2.279(8) 2_756 ?
O8 C18 1.265(16) . ?
O7 C18 1.229(16) . ?
N3 C23 1.317(17) . ?
N3 C19 1.348(19) . ?
O6 C17 1.257(15) . ?
O6 Cd2 2.410(9) 3_545 ?
O11 C50 1.419(16) . ?
O11 H11 0.857(14) . ?
O12 C51 1.39(2) . ?
O12 H12 0.8200 . ?
O9 C42 1.368(15) . ?
O9 C41 1.446(16) . ?
N5 C40 1.335(18) . ?
N5 C36 1.348(17) . ?
O17 C35 1.234(16) . ?
O17 Cd4 2.398(9) 3 ?
O18 C35 1.257(16) . ?
N6 C31 1.260(16) . ?
N6 C32 1.450(16) . ?
O15 C33 1.443(15) . ?
O15 H15 0.859(14) . ?
O13 C26 1.366(14) . ?
O13 C24 1.424(16) . ?
O14 C25 1.323(13) . ?
O10 C47 1.299(14) . ?
O19 C52 1.254(16) . ?
C58 O21 1.450(17) . ?
C58 H58A 0.9600 . ?
C58 H58B 0.9600 . ?
C58 H58C 0.9600 . ?
O23 C67 1.433(16) . ?
O23 Cd4 2.465(9) 2_656 ?
O23 H23 0.83(3) . ?
O22 C64 1.297(14) . ?
O22 Cd4 2.271(8) 2_656 ?
O20 C52 1.239(16) . ?
O5 C17 1.255(15) . ?
C2 C7 1.370(17) . ?
C2 C3 1.383(17) . ?
C2 O1 1.385(15) . ?
C8 C6 1.441(17) . ?
C8 H8 0.9300 . ?
C7 C6 1.468(16) . ?
N4 C48 1.279(17) . ?
N4 C49 1.482(18) . ?
C42 C43 1.375(16) . ?
C42 C47 1.428(18) . ?
C31 C30 1.445(16) . ?
C31 H31 0.9300 . ?
C26 C27 1.376(16) . ?
C26 C25 1.407(16) . ?
N7 C57 1.332(17) . ?
N7 C53 1.333(17) . ?
C59 O21 1.373(14) . ?
C59 C60 1.378(17) . ?
C59 C64 1.420(17) . ?
N8 C65 1.274(15) . ?
N8 C66 1.452(15) . ?
N8 Cd4 2.282(11) 2_656 ?
N2 C12 1.314(18) . ?
N2 C16 1.342(16) . ?
C3 C4 1.379(19) . ?
C3 H3A 0.9300 . ?
C4 C5 1.35(2) . ?
C4 H4 0.9300 . ?
C5 C6 1.423(17) . ?
C5 H5 0.9300 . ?
C10 C11 1.495(19) . ?
C10 C9 1.533(19) . ?
C10 H10 0.9800 . ?
C11 O4 1.38(2) . ?
C11 H11A 0.9300 . ?
O4 H4A 0.8200 . ?
C9 H9A 0.9700 . ?
C9 H9B 0.9700 . ?
C18 C21 1.544(16) . ?
C21 C22 1.348(19) . ?
C21 C20 1.426(18) . ?
C22 C23 1.409(18) . ?
C22 H22 0.9300 . ?
C23 H23A 0.9300 . ?
C19 C20 1.363(19) . ?
C19 H19 0.9300 . ?
C20 H20 0.9300 . ?
C50 C49 1.43(2) . ?
C50 C51 1.52(2) . ?
C50 H50 0.9800 . ?
C51 H51 0.9300 . ?
C49 H49A 0.9700 . ?
C49 H49B 0.9700 . ?
C48 C46 1.434(18) . ?
C48 H48 0.9300 . ?
C46 C45 1.394(17) . ?
C46 C47 1.463(16) . ?
C41 H41A 0.9600 . ?
C41 H41B 0.9600 . ?
C41 H41C 0.9600 . ?
C40 C39 1.383(18) . ?
C40 H40 0.9300 . ?
C39 C38 1.373(19) . ?
C39 H39 0.9300 . ?
C38 C37 1.381(18) . ?
C38 C35 1.525(17) . ?
C37 C36 1.374(18) . ?
C37 H37 0.9300 . ?
C36 H36 0.9300 . ?
C32 C33 1.484(18) . ?
C32 H32A 0.9700 . ?
C32 H32B 0.9700 . ?
C33 C34 1.51(2) . ?
C33 H33 0.9800 . ?
C34 O16 1.35(2) . ?
C34 H34A 0.9700 . ?
C34 H34B 0.9700 . ?
O16 H16 0.8200 . ?
C30 C29 1.421(16) . ?
C30 C25 1.438(16) . ?
C29 C28 1.319(19) . ?
C29 H29 0.9300 . ?
C28 C27 1.413(18) . ?
C28 H28 0.9300 . ?
C27 H27 0.9300 . ?
C24 H24A 0.9600 . ?
C24 H24B 0.9600 . ?
C24 H24C 0.9600 . ?
C52 C55 1.531(16) . ?
C55 C54 1.359(19) . ?
C55 C56 1.38(2) . ?
C54 C53 1.389(19) . ?
C54 H54 0.9300 . ?
C53 H53 0.9300 . ?
C64 C63 1.428(17) . ?
C63 C62 1.430(17) . ?
C63 C65 1.446(17) . ?
C65 H65 0.9300 . ?
C67 C68 1.505(19) . ?
C67 C66 1.530(18) . ?
C67 H67 0.9800 . ?
C68 O24 1.403(19) . ?
C68 H68 0.9300 . ?
O24 H24 0.8200 . ?
C66 H66A 0.9700 . ?
C66 H66B 0.9700 . ?
C62 C61 1.34(2) . ?
C62 H62 0.9300 . ?
C61 C60 1.376(19) . ?
C61 H61 0.9300 . ?
C60 H60 0.9300 . ?
C57 C56 1.401(17) . ?
C57 H57 0.9300 . ?
C56 H56 0.9300 . ?
C43 C44 1.403(19) . ?
C43 H43 0.9300 . ?
C44 C45 1.34(2) . ?
C44 H44 0.9300 . ?
C45 H45 0.9300 . ?
C16 C15 1.395(17) . ?
C16 H16A 0.9300 . ?
C15 C14 1.369(19) . ?
C15 H15A 0.9300 . ?
C14 C13 1.368(19) . ?
C14 C17 1.531(16) . ?
C13 C12 1.425(17) . ?
C13 H13 0.9300 . ?
C12 H12A 0.9300 . ?
loop_
_geom_hbond_atom_site_label_D
_geom_hbond_atom_site_label_H
_geom_hbond_atom_site_label_A
_geom_hbond_distance_DH
_geom_hbond_distance_HA
_geom_hbond_distance_DA
_geom_hbond_angle_DHA
_geom_hbond_site_symmetry_A
O23 H23 O18 0.83(3) 1.95(10) 2.653(12) 142(15) 4_646
O3 H3 O7 0.83(3) 2.28(12) 2.748(12) 116(11) 2_756
C12 H12A O2 0.93 2.65 3.225(16) 121.0 2_756
C16 H16A O3 0.93 2.41 3.129(14) 133.6 2_756
C56 H56 O12 0.93 2.54 3.36(2) 147.5 1_556
C57 H57 O23 0.93 2.41 3.127(14) 133.5 2_656
C53 H53 O22 0.93 2.66 3.223(15) 120.0 2_656
C24 H24C O24 0.96 2.49 3.37(2) 152.0 3
C36 H36 O15 0.93 2.66 3.334(16) 130.4 .
C23 H23A O11 0.93 2.47 3.190(16) 134.0 .
C22 H22 O4 0.93 2.56 3.428(18) 155.8 1_554
C58 H58C O12 0.96 2.38 3.33(2) 173.1 2_656
C1 H1C O16 0.96 2.65 3.43(2) 139.7 4_646
C1 H1A O3 0.96 2.62 3.156(19) 115.9 2_756
loop_
_geom_torsion_atom_site_label_1
_geom_torsion_atom_site_label_2
_geom_torsion_atom_site_label_3
_geom_torsion_atom_site_label_4
_geom_torsion
_geom_torsion_site_symmetry_1
_geom_torsion_site_symmetry_2
_geom_torsion_site_symmetry_3
_geom_torsion_site_symmetry_4
_geom_torsion_publ_flag
C9 N1 C8 C6 175.8(12) . . . . ?
Cd1 N1 C8 C6 -5.5(19) 2_756 . . . ?
Cd1 O2 C7 C2 36.3(13) . . . . ?
Cd1 O2 C7 C2 -175.1(7) 2_756 . . . ?
Cd1 O2 C7 C6 -143.5(9) . . . . ?
Cd1 O2 C7 C6 5.1(16) 2_756 . . . ?
C3 C2 C7 O2 -179.0(11) . . . . ?
O1 C2 C7 O2 -3.3(15) . . . . ?
C3 C2 C7 C6 0.8(16) . . . . ?
O1 C2 C7 C6 176.5(9) . . . . ?
C41 O9 C42 C43 5.3(18) . . . . ?
C41 O9 C42 C47 -179.9(12) . . . . ?
C32 N6 C31 C30 168.7(14) . . . . ?
Cd3 N6 C31 C30 -5(2) . . . . ?
C24 O13 C26 C27 6.4(18) . . . . ?
C24 O13 C26 C25 -178.1(12) . . . . ?
C7 C2 O1 C1 -177.4(12) . . . . ?
C3 C2 O1 C1 -1.6(17) . . . . ?
C7 C2 C3 C4 -2.5(18) . . . . ?
O1 C2 C3 C4 -177.8(11) . . . . ?
C2 C3 C4 C5 2.5(19) . . . . ?
C3 C4 C5 C6 -1(2) . . . . ?
C4 C5 C6 C8 173.1(12) . . . . ?
C4 C5 C6 C7 -0.9(18) . . . . ?
N1 C8 C6 C5 179.4(13) . . . . ?
N1 C8 C6 C7 -7(2) . . . . ?
O2 C7 C6 C5 -179.3(11) . . . . ?
C2 C7 C6 C5 0.9(15) . . . . ?
O2 C7 C6 C8 7.4(18) . . . . ?
C2 C7 C6 C8 -172.4(11) . . . . ?
Cd1 O3 C10 C11 -162.8(9) 2_756 . . . ?
Cd1 O3 C10 C9 -37.3(11) 2_756 . . . ?
O3 C10 C11 O4 59.3(17) . . . . ?
C9 C10 C11 O4 -64.7(17) . . . . ?
C8 N1 C9 C10 130.1(12) . . . . ?
Cd1 N1 C9 C10 -48.8(12) 2_756 . . . ?
O3 C10 C9 N1 57.3(14) . . . . ?
C11 C10 C9 N1 -177.8(11) . . . . ?
Cd1 O8 C18 O7 -40.5(17) . . . . ?
Cd1 O8 C18 C21 137.8(9) . . . . ?
O7 C18 C21 C22 14.2(17) . . . . ?
O8 C18 C21 C22 -164.3(12) . . . . ?
O7 C18 C21 C20 -171.4(11) . . . . ?
O8 C18 C21 C20 10.1(16) . . . . ?
C20 C21 C22 C23 3(2) . . . . ?
C18 C21 C22 C23 177.6(12) . . . . ?
C19 N3 C23 C22 -1(2) . . . . ?
Cd2 N3 C23 C22 -170.4(11) . . . . ?
C21 C22 C23 N3 -1(2) . . . . ?
C23 N3 C19 C20 2(2) . . . . ?
Cd2 N3 C19 C20 169.9(10) . . . . ?
N3 C19 C20 C21 1(2) . . . . ?
C22 C21 C20 C19 -3.0(19) . . . . ?
C18 C21 C20 C19 -177.7(12) . . . . ?
Cd2 O11 C50 C49 -42.8(15) . . . . ?
Cd2 O11 C50 C51 -167.0(11) . . . . ?
O11 C50 C51 O12 -179.3(17) . . . . ?
C49 C50 C51 O12 59(2) . . . . ?
O11 C50 C49 N4 52.1(19) . . . . ?
C51 C50 C49 N4 171.4(15) . . . . ?
C48 N4 C49 C50 152.1(15) . . . . ?
Cd2 N4 C49 C50 -34.7(18) . . . . ?
C49 N4 C48 C46 170.1(14) . . . . ?
Cd2 N4 C48 C46 -2(2) . . . . ?
N4 C48 C46 C45 -178.1(15) . . . . ?
N4 C48 C46 C47 0(2) . . . . ?
Cd2 O10 C47 C42 -179.4(7) . . . . ?
Cd3 O10 C47 C42 -37.7(13) . . . . ?
Cd2 O10 C47 C46 3.5(18) . . . . ?
Cd3 O10 C47 C46 145.2(9) . . . . ?
O9 C42 C47 O10 5.4(15) . . . . ?
C43 C42 C47 O10 -179.6(11) . . . . ?
O9 C42 C47 C46 -177.3(10) . . . . ?
C43 C42 C47 C46 -2.3(17) . . . . ?
C45 C46 C47 O10 177.4(11) . . . . ?
C48 C46 C47 O10 -1.0(19) . . . . ?
C45 C46 C47 C42 0.2(17) . . . . ?
C48 C46 C47 C42 -178.2(11) . . . . ?
C36 N5 C40 C39 1(2) . . . . ?
Cd3 N5 C40 C39 169.2(11) . . . . ?
N5 C40 C39 C38 0(2) . . . . ?
C40 C39 C38 C37 1(2) . . . . ?
C40 C39 C38 C35 -177.2(12) . . . . ?
Cd4 O17 C35 O18 -37.0(17) 3 . . . ?
Cd4 O17 C35 C38 141.5(8) 3 . . . ?
C39 C38 C35 O17 13.6(17) . . . . ?
C37 C38 C35 O17 -164.7(11) . . . . ?
C39 C38 C35 O18 -167.7(12) . . . . ?
C37 C38 C35 O18 14.0(17) . . . . ?
C39 C38 C37 C36 -2.6(19) . . . . ?
C35 C38 C37 C36 175.8(12) . . . . ?
C40 N5 C36 C37 -3(2) . . . . ?
Cd3 N5 C36 C37 -170.9(10) . . . . ?
C38 C37 C36 N5 4(2) . . . . ?
C31 N6 C32 C33 147.5(14) . . . . ?
Cd3 N6 C32 C33 -38.2(17) . . . . ?
Cd3 O15 C33 C32 -42.2(12) . . . . ?
Cd3 O15 C33 C34 -166.2(11) . . . . ?
N6 C32 C33 O15 54.1(17) . . . . ?
N6 C32 C33 C34 174.0(14) . . . . ?
O15 C33 C34 O16 176.1(17) . . . . ?
C32 C33 C34 O16 56(2) . . . . ?
N6 C31 C30 C29 -177.9(14) . . . . ?
N6 C31 C30 C25 1(2) . . . . ?
C25 C30 C29 C28 -1.7(19) . . . . ?
C31 C30 C29 C28 177.2(13) . . . . ?
C30 C29 C28 C27 1(2) . . . . ?
O13 C26 C27 C28 178.7(12) . . . . ?
C25 C26 C27 C28 3.6(18) . . . . ?
C29 C28 C27 C26 -2(2) . . . . ?
Cd3 O14 C25 C26 178.4(7) . . . . ?
Cd2 O14 C25 C26 -37.2(13) . . . . ?
Cd3 O14 C25 C30 1.6(17) . . . . ?
Cd2 O14 C25 C30 146.1(9) . . . . ?
O13 C26 C25 O14 3.6(15) . . . . ?
C27 C26 C25 O14 179.2(11) . . . . ?
O13 C26 C25 C30 -179.4(10) . . . . ?
C27 C26 C25 C30 -3.9(16) . . . . ?
C29 C30 C25 O14 179.6(11) . . . . ?
C31 C30 C25 O14 0.8(18) . . . . ?
C29 C30 C25 C26 2.8(16) . . . . ?
C31 C30 C25 C26 -176.0(11) . . . . ?
Cd3 O19 C52 O20 40.9(17) . . . . ?
Cd3 O19 C52 C55 -135.6(9) . . . . ?
O20 C52 C55 C54 171.2(13) . . . . ?
O19 C52 C55 C54 -12.0(18) . . . . ?
O20 C52 C55 C56 -10.9(18) . . . . ?
O19 C52 C55 C56 165.9(12) . . . . ?
C56 C55 C54 C53 -1(2) . . . . ?
C52 C55 C54 C53 177.1(12) . . . . ?
C57 N7 C53 C54 -2(2) . . . . ?
Cd4 N7 C53 C54 -174.3(10) . . . . ?
C55 C54 C53 N7 1(2) . . . . ?
C60 C59 O21 C58 -1.7(16) . . . . ?
C64 C59 O21 C58 -178.5(12) . . . . ?
Cd4 O22 C64 C59 38.9(13) . . . . ?
Cd4 O22 C64 C59 -179.0(7) 2_656 . . . ?
Cd4 O22 C64 C63 -141.7(10) . . . . ?
Cd4 O22 C64 C63 0.4(17) 2_656 . . . ?
O21 C59 C64 O22 -4.2(14) . . . . ?
C60 C59 C64 O22 178.9(10) . . . . ?
O21 C59 C64 C63 176.3(10) . . . . ?
C60 C59 C64 C63 -0.6(16) . . . . ?
O22 C64 C63 C62 -177.2(11) . . . . ?
C59 C64 C63 C62 2.2(16) . . . . ?
O22 C64 C63 C65 9.4(19) . . . . ?
C59 C64 C63 C65 -171.2(11) . . . . ?
C66 N8 C65 C63 174.0(12) . . . . ?
Cd4 N8 C65 C63 -5.4(19) 2_656 . . . ?
C64 C63 C65 N8 -7(2) . . . . ?
C62 C63 C65 N8 179.7(12) . . . . ?
Cd4 O23 C67 C68 -158.2(9) 2_656 . . . ?
Cd4 O23 C67 C66 -33.7(11) 2_656 . . . ?
O23 C67 C68 O24 -175.0(12) . . . . ?
C66 C67 C68 O24 63.5(17) . . . . ?
C65 N8 C66 C67 132.9(12) . . . . ?
Cd4 N8 C66 C67 -47.6(12) 2_656 . . . ?
O23 C67 C66 N8 53.9(14) . . . . ?
C68 C67 C66 N8 175.9(11) . . . . ?
C64 C63 C62 C61 -2.2(19) . . . . ?
C65 C63 C62 C61 171.7(12) . . . . ?
C63 C62 C61 C60 0(2) . . . . ?
C62 C61 C60 C59 1.3(19) . . . . ?
O21 C59 C60 C61 -177.7(11) . . . . ?
C64 C59 C60 C61 -1.2(17) . . . . ?
C53 N7 C57 C56 2(2) . . . . ?
Cd4 N7 C57 C56 174.7(11) . . . . ?
C54 C55 C56 C57 1(2) . . . . ?
C52 C55 C56 C57 -177.0(12) . . . . ?
N7 C57 C56 C55 -2(2) . . . . ?
O9 C42 C43 C44 177.5(12) . . . . ?
C47 C42 C43 C44 3.2(19) . . . . ?
C42 C43 C44 C45 -2(2) . . . . ?
C43 C44 C45 C46 0(2) . . . . ?
C48 C46 C45 C44 179.6(13) . . . . ?
C47 C46 C45 C44 1(2) . . . . ?
C12 N2 C16 C15 1(2) . . . . ?
Cd1 N2 C16 C15 174.6(11) . . . . ?
N2 C16 C15 C14 -1(2) . . . . ?
C16 C15 C14 C13 2(2) . . . . ?
C16 C15 C14 C17 -177.7(12) . . . . ?
C15 C14 C13 C12 -2(2) . . . . ?
C17 C14 C13 C12 177.5(12) . . . . ?
C16 N2 C12 C13 -1(2) . . . . ?
Cd1 N2 C12 C13 -174.5(10) . . . . ?
C14 C13 C12 N2 2(2) . . . . ?
Cd2 O6 C17 O5 36.9(16) 3_545 . . . ?
Cd2 O6 C17 C14 -137.2(8) 3_545 . . . ?
C13 C14 C17 O5 173.7(12) . . . . ?
C15 C14 C17 O5 -7.1(17) . . . . ?
C13 C14 C17 O6 -11.6(17) . . . . ?
C15 C14 C17 O6 167.6(12) . . . . ?
