#------------------------------------------------------------------------------
#$Date: 2020-11-06 14:16:49 +0200 (Fri, 06 Nov 2020) $
#$Revision: 258843 $
#$URL: file:///home/coder/svn-repositories/cod/cif/7/70/54/7705437.cif $
#------------------------------------------------------------------------------
#
# This file is available in the Crystallography Open Database (COD),
# http://www.crystallography.net/
#
# All data on this site have been placed in the public domain by the
# contributors.
#
data_7705437
loop_
_publ_author_name
'Zhang, Chengcheng'
'Ma, Xiufang'
'Cen, Peipei'
'Jin, Xiaoyong'
'Yang, Jinhui'
'Zhang, Yi-Quan'
'Ferrando-Soria, Jes\'us'
'Pardo, Emilio'
'Liu, Xiangyu'
_publ_section_title
;
 A series of lanthanide(III) metal-organic frameworks derived from a
 pyridyl-dicarboxylate ligand: single-molecule magnet behaviour and
 luminescence properties.
;
_journal_issue                   40
_journal_name_full
'Dalton transactions (Cambridge, England : 2003)'
_journal_page_first              14123
_journal_page_last               14132
_journal_paper_doi               10.1039/d0dt02736g
_journal_volume                  49
_journal_year                    2020
_chemical_formula_moiety         '0.5(C130 H78 Eu6 N10 O42), 1.25(H4 O2)'
_chemical_formula_sum            'C65 H44 Eu3 N5 O23.5'
_chemical_formula_weight         1726.93
_space_group_crystal_system      monoclinic
_space_group_IT_number           11
_space_group_name_Hall           '-P 2yb'
_space_group_name_H-M_alt        'P 1 21/m 1'
_atom_sites_solution_hydrogens   mixed
_atom_sites_solution_primary     dual
_audit_creation_date             2020-06-16
_audit_creation_method
;
Olex2 1.2
(compiled 2018.05.29 svn.r3508 for OlexSys, GUI svn.r5506)
;
_audit_update_record
;
2020-07-29 deposited with the CCDC.	2020-09-15 downloaded from the CCDC.
;
_cell_angle_alpha                90
_cell_angle_beta                 102.121(6)
_cell_angle_gamma                90
_cell_formula_units_Z            2
_cell_length_a                   11.520(2)
_cell_length_b                   27.700(5)
_cell_length_c                   11.600(2)
_cell_measurement_reflns_used    9031
_cell_measurement_temperature    298.0
_cell_measurement_theta_max      27.50
_cell_measurement_theta_min      2.27
_cell_volume                     3619.1(11)
_computing_molecular_graphics    'Olex2 (Dolomanov et al., 2009)'
_computing_publication_material  'Olex2 (Dolomanov et al., 2009)'
_computing_structure_refinement  'ShelXL (Sheldrick, 2015)'
_computing_structure_solution    'ShelXT (Sheldrick, 2015)'
_diffrn_ambient_temperature      298.0
_diffrn_measured_fraction_theta_full 0.999
_diffrn_measured_fraction_theta_max 0.998
_diffrn_measurement_device_type  'Bruker APEX-II CCD'
_diffrn_measurement_method       '\f and \w scans'
_diffrn_radiation_type           MoK\a
_diffrn_radiation_wavelength     0.71073
_diffrn_reflns_av_R_equivalents  0.0386
_diffrn_reflns_av_unetI/netI     0.0199
_diffrn_reflns_Laue_measured_fraction_full 0.999
_diffrn_reflns_Laue_measured_fraction_max 0.998
_diffrn_reflns_limit_h_max       14
_diffrn_reflns_limit_h_min       -14
_diffrn_reflns_limit_k_max       35
_diffrn_reflns_limit_k_min       -35
_diffrn_reflns_limit_l_max       15
_diffrn_reflns_limit_l_min       -15
_diffrn_reflns_number            78404
_diffrn_reflns_point_group_measured_fraction_full 0.999
_diffrn_reflns_point_group_measured_fraction_max 0.998
_diffrn_reflns_theta_full        25.242
_diffrn_reflns_theta_max         27.507
_diffrn_reflns_theta_min         2.265
_diffrn_standards_number         0
_exptl_absorpt_coefficient_mu    2.643
_exptl_absorpt_correction_type   none
_exptl_crystal_colour            colourless
_exptl_crystal_colour_primary    colourless
_exptl_crystal_density_diffrn    1.585
_exptl_crystal_description       block
_exptl_crystal_F_000             1692
_exptl_crystal_size_max          0.12
_exptl_crystal_size_mid          0.11
_exptl_crystal_size_min          0.1
_refine_diff_density_max         1.407
_refine_diff_density_min         -1.484
_refine_diff_density_rms         0.108
_refine_ls_extinction_method     none
_refine_ls_goodness_of_fit_ref   1.137
_refine_ls_hydrogen_treatment    constr
_refine_ls_matrix_type           full
_refine_ls_number_parameters     696
_refine_ls_number_reflns         8452
_refine_ls_number_restraints     829
_refine_ls_restrained_S_all      1.116
_refine_ls_R_factor_all          0.0316
_refine_ls_R_factor_gt           0.0292
_refine_ls_shift/su_max          0.001
_refine_ls_shift/su_mean         0.000
_refine_ls_structure_factor_coef Fsqd
_refine_ls_weighting_details
'w=1/[\s^2^(Fo^2^)+(0.0322P)^2^+9.8181P] where P=(Fo^2^+2Fc^2^)/3'
_refine_ls_weighting_scheme      calc
_refine_ls_wR_factor_gt          0.0757
_refine_ls_wR_factor_ref         0.0769
_reflns_Friedel_coverage         0.000
_reflns_number_gt                7966
_reflns_number_total             8452
_reflns_threshold_expression     'I > 2\s(I)'
_cod_data_source_file            d0dt02736g16.cif
_cod_data_source_block           an1eu_sq
_cod_depositor_comments
'Adding full bibliography for 7705434--7705437.cif.'
_cod_original_cell_volume        3619.2(12)
_cod_original_formula_sum        'C65 H44 Eu3 N5 O23.50'
_cod_database_code               7705437
_shelx_shelxl_version_number     2018/3
_shelx_space_group_comment
;
The symmetry employed for this shelxl refinement is uniquely defined
by the following loop, which should always be used as a source of
symmetry information in preference to the above space-group names.
They are only intended as comments.
;
_shelx_estimated_absorpt_t_max   0.778
_shelx_estimated_absorpt_t_min   0.742
_olex2_refinement_description
;
1. Fixed Uiso
 At 1.2 times of:
  All C(H) groups, All C(H,H) groups, All N(H) groups
 At 1.5 times of:
  All O(H) groups, All O(H,H) groups
2. Restrained distances
 O9A-C27 \\sim O9-C27
 with sigma of 0.02
3. Uiso/Uaniso restraints and constraints
C34A \\sim C35A \\sim C36A \\sim N3A \\sim C37A \\sim C38A \\sim C34 \\sim C38
\\sim C37 \\sim N3 \\sim C36 \\sim C35 \\sim C8 \\sim C9 \\sim C10 \\sim N1
\\sim C11 \\sim C12: within 3.8A with sigma of 0.01 and sigma for terminal
atoms of 0.02
Uanis(O9) \\sim Ueq, Uanis(O14) \\sim Ueq: with sigma of 0.01 and sigma for
terminal atoms of 0.02
Uanis(O2) \\sim Ueq: with sigma of 0.01 and sigma for terminal atoms of 0.02
4. Rigid body (RIGU) restrains
 N3, C28, C29, C30, C31, C32, C33, C34, C35, C36, C37, C38
 with sigma for 1-2 distances of 0.001 and sigma for 1-3 distances of 0.002
 N3A, C28, C29A, C30A, C31, C32A, C33A, C34A, C35A, C36A, C37A, C38A
 with sigma for 1-2 distances of 0.001 and sigma for 1-3 distances of 0.002
 N1, C2, C3, C4, C5, C6, C7, C8, C9, C10, C11, C12
 with sigma for 1-2 distances of 0.001 and sigma for 1-3 distances of 0.002
 O5, O4A, C14A, C15A, C20A, C19A, C18A, C26A, O6A, O7A, C17, C16
 with sigma for 1-2 distances of 0.001 and sigma for 1-3 distances of 0.002
 O5, C14, O4, C15, C20, C19, C18, C26, O6, O7, C17, C16
 with sigma for 1-2 distances of 0.001 and sigma for 1-3 distances of 0.002
5. Others
 Sof(N3A)=Sof(H3A)=Sof(C29A)=Sof(H29A)=Sof(C30A)=Sof(C32A)=Sof(H32A)=Sof(C33A)=
 Sof(H33A)=Sof(C34A)=Sof(C35A)=Sof(H35A)=Sof(C36A)=Sof(H36A)=Sof(C37A)=
 Sof(H37A)=Sof(C38A)=Sof(H38A)=Sof(O9A)=1-FVAR(1)
 Sof(O9)=Sof(N3)=Sof(H3)=Sof(C29)=Sof(H29)=Sof(C30)=Sof(C32)=Sof(H32)=Sof(C33)=
 Sof(H33)=Sof(C34)=Sof(C35)=Sof(H35)=Sof(C36)=Sof(H36)=Sof(C37)=Sof(H37)=
 Sof(C38)=Sof(H38)=FVAR(1)
 Sof(H16A)=Sof(O4A)=Sof(O6A)=Sof(O7A)=Sof(C14A)=Sof(C15A)=Sof(C18A)=Sof(C19A)=
 Sof(H19A)=Sof(C20A)=Sof(H20A)=Sof(C26A)=1-FVAR(2)
 Sof(O4)=Sof(O6)=Sof(O7)=Sof(C14)=Sof(C15)=Sof(H16)=Sof(C18)=Sof(C19)=Sof(H19)=
 Sof(C20)=Sof(H20)=Sof(C26)=FVAR(2)
 Fixed Sof: O13(0.25) H13A(0.25) H13B(0.25) N1(0.5) C3(0.5) H3B(0.5) C4(0.5)
 C6(0.5) H6(0.5) C7(0.5) H7(0.5) C8(0.5) C9(0.5) H9(0.5) C10(0.5) H10(0.5)
 C11(0.5) H11(0.5) C12(0.5) H12A(0.5) O14(0.5) H14A(0.5) H14B(0.5) O15(0.25)
 H15A(0.25) H15B(0.25) O16(0.25) H16B(0.25) H16C(0.25)
6.a Riding coordinates:
 O12(H12), O13(H13A,H13B), O14(H14A,H14B), O15(H15A,H15B), O16(H16B,H16C)
6.b Aromatic/amide H refined with riding coordinates:
 N3(H3), N3A(H3A), C3(H3B), C6(H6), C7(H7), C9(H9), C10(H10), C11(H11),
 C12(H12A), C16(H16), C16(H16A), C19(H19), C20(H20), C22(H22), C23(H23),
 C24(H24), C25(H25), C29(H29), C29A(H29A), C32(H32), C32A(H32A), C33(H33),
 C33A(H33A), C35(H35), C35A(H35A), C36(H36), C36A(H36A), C37(H37), C37A(H37A),
 C38(H38), C38A(H38A), C19A(H19A), C20A(H20A)
;
_shelx_res_file
;
TITL an1eu_a.res in P2(1)/m
    an1eu_sq.res
    created by SHELXL-2018/3 at 18:40:42 on 16-Jun-2020
REM Old TITL An1Eu in P2(1)/m
REM SHELXT solution in P2(1)/m: R1 0.102, Rweak 0.010, Alpha 0.031
REM <I/s> 3.562 for 16 systematic absences, Orientation as input
REM Formula found by SHELXT: C59 N11 O24 Eu3
CELL 0.71073 11.5203 27.7004 11.5999 90 102.121 90
ZERR 2 0.0022 0.0051 0.0021 0 0.006 0
LATT 1
SYMM -X,0.5+Y,-Z
SFAC C H Eu N O
UNIT 130 88 6 10 47
EQIV $1 +X,0.5-Y,+Z
EQIV $2 -1+X,0.5-Y,+Z
EQIV $3 -1+X,+Y,+Z
EQIV $4 +X,+Y,1+Z
EQIV $5 +X,+Y,-1+Z
SADI O9A C27 O9 C27
SIMU 0.01 0.02 3.8 C34A C35A C36A N3A C37A C38A C34 C38 C37 N3 C36 C35 C8 =
 C9 C10 N1 C11 C12
RIGU 0.001 0.002 N3 C28 C29 C30 C31 C32 C33 C34 C35 C36 C37 C38
RIGU 0.001 0.002 N3A C28 C29A C30A C31 C32A C33A C34A C35A C36A C37A C38A
RIGU 0.001 0.002 N1 C2 > C12
RIGU 0.001 0.002 O5 O4A C14A C15A C20A C19A C18A C26A O6A O7A C17 C16
RIGU 0.001 0.002 O5 C14 O4 C15 C20 C19 C18 C26 O6 O7 C17 C16
ISOR 0.01 0.02 O9 O14
ISOR 0.01 0.02 O2

L.S. 5 0 9
PLAN  2
SIZE 0.1 0.11 0.12
TEMP 24.85
HTAB O12 O6_$5
HTAB O12 O6A_$5
HTAB O13 O2
HTAB O13 O16_$1
HTAB C22 O9A_$4
HTAB O14 O9
HTAB O15 O7
HTAB O15 O7A
FREE C13 Eu1_$2
FREE C13 Eu1_$3
FREE C26 Eu2_$4
FREE Eu1 C1
FREE Eu1 C1_$1
FREE Eu1 H12_$1
FREE Eu1 H12
FREE Eu2 C27
FREE Eu2 C39_$3
FREE Eu2 C26A_$5
BOND $H
CONF
MORE -1
ABIN
fmap 2 53
acta
OMIT 1 0 0
OMIT 0 0 1
OMIT 1 1 0
OMIT 1 0 1
OMIT 1 2 0
OMIT -2 2 4
OMIT 0 6 0
REM <olex2.extras>
REM <HklSrc "%.\\An1Eu_sq.hkl">
REM </olex2.extras>

WGHT    0.032200    9.818101
FVAR       0.21764   0.47707   0.44264
EU1   3    0.227832    0.250000    0.175357    10.50000    0.01156    0.02136 =
         0.01303    0.00000    0.00424    0.00000
EU2   3    0.408993    0.374237    0.125152    11.00000    0.01513    0.02066 =
         0.01374   -0.00226    0.00599   -0.00277
O1    5    0.019773    0.250000    0.074801    10.50000    0.01630    0.07608 =
         0.03391    0.00000    0.00701    0.00000
O2    5    0.058521    0.250000    0.263444    10.50000    0.01948    0.15132 =
         0.03696    0.00000    0.00995    0.00000
O3    5   -0.569213    0.210806    0.166322    11.00000    0.01675    0.02564 =
         0.03194   -0.00297    0.00727   -0.00330
PART 1
O4    5    0.272840    0.304766    0.333684    31.00000    0.03350    0.02488 =
         0.01408   -0.00215   -0.00007   -0.00519
PART 0
O5    5    0.386688    0.368450    0.321945    11.00000    0.04049    0.03287 =
         0.01480   -0.00310    0.01139   -0.01119
PART 1
O6    5    0.334644    0.340171    0.930234    31.00000    0.04833    0.02075 =
         0.01668   -0.00107    0.00887   -0.01168
O7    5    0.362400    0.418357    0.926480    31.00000    0.03849    0.02004 =
         0.01898   -0.00216    0.00759   -0.00626
PART 0
O8    5    0.625448    0.370481    0.227572    11.00000    0.02170    0.08271 =
         0.05518   -0.03130    0.01418   -0.00974
PART 1
O9    5    0.581072    0.365703    0.031420    21.00000    0.02546    0.07258 =
         0.04899    0.03096    0.01926    0.02062
PART 0
O10   5    1.203126    0.334101    0.106168    11.00000    0.01858    0.02844 =
         0.03480    0.00709    0.00484    0.00381
O11   5    1.212074    0.412991    0.114771    11.00000    0.02050    0.03147 =
         0.05258   -0.00359    0.01195    0.00033
O12   5    0.243637    0.250000   -0.032786    10.50000    0.03051    0.02770 =
         0.02096    0.00000    0.00790    0.00000
AFIX   3
H12   2    0.284497    0.275980   -0.040966    11.00000   -1.50000
AFIX   0

O13   5    0.046789    0.250000    0.504817    10.25000    0.06654    0.15771 =
         0.03795    0.00000    0.01098    0.00000
AFIX   3
H13A  2    0.020969    0.277350    0.521257    10.25000   -1.50000
H13B  2    0.034229    0.250000    0.430657    10.25000   -1.50000
AFIX   0

PART -1
N1    4   -0.388452    0.301327    0.603240    10.50000    0.05813    0.11354 =
         0.04481   -0.00779    0.01396    0.00202
PART 0
N2    4    0.539694    0.540777    0.800203    11.00000    0.04108    0.02530 =
         0.02833   -0.00636    0.00731   -0.00729
PART -1
N3    4    1.011277    0.320954   -0.330148    21.00000    0.06298    0.10323 =
         0.05187   -0.00124    0.02366    0.00076
AFIX  43
H3    2    1.018918    0.315048   -0.400960    21.00000   -1.20000
AFIX   0
PART 0
PART -2
N3A   4    1.002046    0.469096   -0.283843   -21.00000    0.06427    0.09822 =
         0.05328    0.01799    0.01855    0.00918
AFIX  43
H3A   2    1.016806    0.483396   -0.344992   -21.00000   -1.20000
AFIX   0
PART 0
C1    1   -0.014386    0.250000    0.168389    10.50000    0.01427    0.03104 =
         0.03980    0.00000    0.00973    0.00000
C2    1   -0.144711    0.250000    0.167659    10.50000    0.01655    0.03389 =
         0.03902    0.00000    0.00779    0.00000
PART -1
C3    1   -0.182050    0.267285    0.268933    10.50000    0.01571    0.04343 =
         0.03632   -0.00342    0.00348    0.00035
AFIX  43
H3B   2   -0.126154    0.278968    0.332586    10.50000   -1.20000
AFIX   0
C4    1   -0.301742    0.266929    0.273971    10.50000    0.01548    0.03984 =
         0.02935    0.00146    0.00309   -0.00020
PART 0
C5    1   -0.383836    0.250000    0.173108    10.50000    0.01210    0.02433 =
         0.03043    0.00000    0.00672    0.00000
PART -1
C6    1   -0.347090    0.237295    0.073223    10.50000    0.01573    0.02890 =
         0.03283   -0.00353    0.00829   -0.00056
AFIX  43
H6    2   -0.402453    0.227932    0.006561    10.50000   -1.20000
AFIX   0
C7    1   -0.226833    0.238271    0.070516    10.50000    0.01606    0.04158 =
         0.03563   -0.00425    0.01102    0.00000
AFIX  43
H7    2   -0.202804    0.230752    0.000955    10.50000   -1.20000
AFIX   0
C8    1   -0.336104    0.279866    0.386887    10.50000    0.03412    0.09716 =
         0.03148   -0.00601    0.00901    0.00700
C9    1   -0.405235    0.255526    0.437348    10.50000    0.04754    0.10770 =
         0.03750   -0.00277    0.01680    0.00295
AFIX  43
H9    2   -0.443254    0.229010    0.396931    10.50000   -1.20000
AFIX   0
C10   1   -0.427990    0.265266    0.546117    10.50000    0.05564    0.11069 =
         0.03909   -0.00408    0.01953   -0.00051
AFIX  43
H10   2   -0.474981    0.243899    0.578060    10.50000   -1.20000
AFIX   0
C11   1   -0.322058    0.332242    0.554357    10.50000    0.05940    0.10580 =
         0.04199   -0.01144    0.01628    0.00519
AFIX  43
H11   2   -0.294319    0.360474    0.594157    10.50000   -1.20000
AFIX   0
C12   1   -0.294636    0.322732    0.446569    10.50000    0.05331    0.10001 =
         0.03803   -0.01086    0.01165    0.00448
AFIX  43
H12A  2   -0.249200    0.344421    0.413630    10.50000   -1.20000
AFIX   0
PART 0
C13   1   -0.514480    0.250000    0.168988    10.50000    0.01602    0.02523 =
         0.01394    0.00000    0.00442    0.00000
PART 1
C14   1    0.325119    0.341657    0.375403    31.00000    0.01298    0.01803 =
         0.01039    0.00085    0.00098    0.00616
C15   1    0.328316    0.353350    0.503810    31.00000    0.02042    0.02588 =
         0.01161   -0.00163    0.00622   -0.00483
PART 0
C16   1    0.394464    0.391912    0.558755    11.00000    0.03647    0.03124 =
         0.01544   -0.00194    0.00868   -0.01442
PART 1
AFIX  43
H16   2    0.436164    0.411211    0.515834    31.00000   -1.20000
AFIX  43
PART 0
PART 2
H16A  2    0.416889    0.415560    0.510851   -31.00000   -1.20000
AFIX   0
PART 0
C17   1    0.399409    0.402222    0.677837    11.00000    0.03376    0.03034 =
         0.01505   -0.00269    0.00655   -0.01239
PART 1
C18   1    0.340118    0.373085    0.744062    31.00000    0.02349    0.02243 =
         0.01602   -0.00174    0.00583   -0.00257
C19   1    0.279638    0.332793    0.688625    31.00000    0.03305    0.02633 =
         0.01634   -0.00472    0.01434   -0.00950
AFIX  43
H19   2    0.243002    0.311708    0.732241    31.00000   -1.20000
AFIX   0
C20   1    0.273242    0.323686    0.570152    31.00000    0.03036    0.02368 =
         0.01638   -0.00529    0.01208   -0.00910
AFIX  43
H20   2    0.230927    0.297033    0.535087    31.00000   -1.20000
AFIX   0
PART 0
C21   1    0.451325    0.449446    0.722354    11.00000    0.03368    0.02755 =
         0.01754   -0.00383    0.00913   -0.00898
C22   1    0.536484    0.454965    0.826047    11.00000    0.03337    0.02792 =
         0.02608   -0.00043    0.00296   -0.00328
AFIX  43
H22   2    0.566090    0.428190    0.871123    11.00000   -1.20000
AFIX   0
C23   1    0.576339    0.500688    0.861003    11.00000    0.03194    0.03344 =
         0.02665   -0.00519   -0.00145   -0.00441
AFIX  43
H23   2    0.632173    0.503804    0.931239    11.00000   -1.20000
AFIX   0
C24   1    0.461454    0.535010    0.697490    11.00000    0.05265    0.02833 =
         0.02699    0.00066   -0.00227   -0.00540
AFIX  43
H24   2    0.437155    0.562170    0.651625    11.00000   -1.20000
AFIX   0
C25   1    0.415539    0.490773    0.656921    11.00000    0.05552    0.03081 =
         0.02130   -0.00135   -0.00367   -0.00959
AFIX  43
H25   2    0.360653    0.488617    0.585801    11.00000   -1.20000
AFIX   0
PART 1
C26   1    0.347425    0.379431    0.875642    31.00000    0.03318    0.01938 =
         0.01693   -0.00080    0.00906   -0.00660
PART 0
C27   1    0.658026    0.375696    0.133740    11.00000    0.02126    0.03645 =
         0.07036    0.02178    0.01740    0.00314
C28   1    0.787231    0.378562    0.129780    11.00000    0.02203    0.04345 =
         0.05245    0.01860    0.01173    0.00424
PART -1
C29   1    0.817544    0.360806    0.010526    21.00000    0.01880    0.05007 =
         0.04486    0.01396    0.00554   -0.00277
AFIX  43
H29   2    0.757966    0.351355   -0.052610    21.00000   -1.20000
AFIX   0
PART 0
PART -2
C29A  1    0.822671    0.401454    0.045404   -21.00000    0.01673    0.04077 =
         0.03961    0.01044    0.00629    0.00421
AFIX  43
H29A  2    0.766331    0.418410   -0.008716   -21.00000   -1.20000
AFIX   0
PART 0
PART -1
C30   1    0.936115    0.359727    0.002770    21.00000    0.02084    0.04785 =
         0.03608    0.01321    0.00849    0.00002
PART 0
PART -2
C30A  1    0.939288    0.402125    0.031201   -21.00000    0.01705    0.03889 =
         0.03393    0.00438    0.00595    0.00244
PART 0
C31   1    1.024161    0.377381    0.112263    11.00000    0.01638    0.03441 =
         0.04076    0.00990    0.01083    0.00452
PART -1
C32   1    0.986603    0.389043    0.202925    21.00000    0.02094    0.05024 =
         0.04377   -0.00402    0.01108   -0.00133
AFIX  43
H32   2    1.041714    0.397879    0.270265    21.00000   -1.20000
AFIX   0
PART 0
PART -2
C32A  1    0.994334    0.362194    0.220836   -21.00000    0.01958    0.03427 =
         0.03474    0.00728    0.00763    0.00321
AFIX  43
H32A  2    1.053496    0.351401    0.282805   -21.00000   -1.20000
AFIX   0
PART 0
PART -1
C33   1    0.865314    0.389365    0.207384    21.00000    0.02271    0.05538 =
         0.05211   -0.00080    0.01748    0.00600
AFIX  43
H33   2    0.845729    0.398946    0.277748    21.00000   -1.20000
AFIX   0
PART 0
PART -2
C33A  1    0.877553    0.363637    0.233137   -21.00000    0.02162    0.03648 =
         0.03570    0.00521    0.01182    0.00332
AFIX  43
H33A  2    0.856878    0.355493    0.303968   -21.00000   -1.20000
AFIX   0
PART 0
PART -1
C34   1    0.968397    0.344831   -0.109281    21.00000    0.04367    0.08656 =
         0.03942    0.00447    0.01501    0.00200
PART 0
PART -2
C34A  1    0.965763    0.425321   -0.077007   -21.00000    0.04239    0.08007 =
         0.03924    0.01562    0.01616    0.00138
PART 0
PART -1
C35   1    0.921931    0.303839   -0.165858    21.00000    0.05658    0.09062 =
         0.04363   -0.00007    0.01792   -0.00438
AFIX  43
H35   2    0.873487    0.283808   -0.132064    21.00000   -1.20000
AFIX   0
PART 0
PART -2
C35A  1    0.912617    0.472466   -0.111332   -21.00000    0.05237    0.08204 =
         0.04769    0.02105    0.01243    0.00275
AFIX  43
H35A  2    0.870975    0.489793   -0.064511   -21.00000   -1.20000
AFIX   0
PART 0
PART -1
C36   1    0.947490    0.292214   -0.274373    21.00000    0.06613    0.10151 =
         0.04720   -0.00525    0.02009   -0.00499
AFIX  43
H36   2    0.919054    0.263214   -0.309789    21.00000   -1.20000
AFIX   0
PART 0
PART -2
C36A  1    0.928975    0.489016   -0.217512   -21.00000    0.06212    0.08659 =
         0.05057    0.02267    0.01776    0.00710
AFIX  43
H36A  2    0.886546    0.516393   -0.247725   -21.00000   -1.20000
AFIX   0
PART 0
PART -1
C37   1    1.062591    0.359364   -0.270126    21.00000    0.05734    0.09863 =
         0.04613    0.00541    0.02062    0.00208
AFIX  43
H37   2    1.114694    0.378106   -0.302448    21.00000   -1.20000
AFIX   0
PART 0
PART -2
C37A  1    1.050218    0.425101   -0.247142   -21.00000    0.05994    0.09626 =
         0.04780    0.01442    0.02235    0.00854
AFIX  43
H37A  2    1.094870    0.409399   -0.293884   -21.00000   -1.20000
AFIX   0
PART 0
PART -1
C38   1    1.040536    0.371831   -0.162526    21.00000    0.05270    0.09217 =
         0.04463    0.00770    0.01983   -0.00023
AFIX  43
H38   2    1.075765    0.399436   -0.124978    21.00000   -1.20000
AFIX   0
PART 0
PART -2
C38A  1    1.036200    0.402898   -0.145102   -21.00000    0.05214    0.09151 =
         0.04407    0.01117    0.01951    0.00676
AFIX  43
H38A  2    1.072949    0.373536   -0.122008   -21.00000   -1.20000
AFIX   0
PART 0
C39   1    1.153758    0.374844    0.109881    11.00000    0.01581    0.03281 =
         0.02547    0.00621    0.00830    0.00195

O14   5    0.593585    0.295233   -0.178005    10.50000    0.17003    0.16432 =
         0.05043   -0.01283   -0.00068    0.07613
AFIX   3
H14A  2    0.585195    0.313213   -0.238645    10.50000   -1.50000
H14B  2    0.595685    0.314773   -0.121075    10.50000   -1.50000
AFIX   0

PART 2
O4A   5    0.299005    0.297896    0.344966   -31.00000    0.03805    0.03248 =
         0.01247   -0.00100    0.00287   -0.01242
O6A   5    0.381690    0.329625    0.939129   -31.00000    0.05893    0.02456 =
         0.01749   -0.00029    0.01283   -0.00344
O7A   5    0.345318    0.407509    0.922207   -31.00000    0.03169    0.02340 =
         0.01686   -0.00468    0.00634   -0.00482
C14A  1    0.350209    0.336536    0.382252   -31.00000    0.01104    0.02684 =
         0.01387    0.00052    0.00131    0.00062
C15A  1    0.356637    0.346927    0.509909   -31.00000    0.02631    0.02986 =
         0.01499   -0.00255    0.00521   -0.00893
C18A  1    0.368010    0.363338    0.749006   -31.00000    0.03201    0.02826 =
         0.01441   -0.00345    0.00891   -0.00984
C19A  1    0.328007    0.319268    0.695818   -31.00000    0.06030    0.03247 =
         0.02155   -0.00643    0.01780   -0.02263
AFIX  43
H19A  2    0.307302    0.294763    0.742483   -31.00000   -1.20000
AFIX   0
C20A  1    0.318278    0.310929    0.578640   -31.00000    0.06363    0.03182 =
         0.02184   -0.00825    0.01683   -0.02364
AFIX  43
H20A  2    0.286941    0.282051    0.544783   -31.00000   -1.20000
AFIX   0
C26A  1    0.362286    0.368006    0.876278   -31.00000    0.03147    0.02164 =
         0.01487   -0.00358    0.00849   -0.00840
O9A   5    0.583412    0.389103    0.050034   -21.00000    0.01784    0.06736 =
         0.05669    0.03628    0.01775    0.01670

PART 0
O15   5    0.214845    0.492292    0.843147    10.25000    0.12943    0.08011 =
         0.12056    0.04758    0.05108    0.07100
AFIX   3
H15A  2    0.146715    0.482782    0.807067    10.25000   -1.50000
H15B  2    0.256585    0.466742    0.854047    10.25000   -1.50000
AFIX   0

O16   5    0.044364    0.168069    0.452072    10.25000    0.08260    0.20964 =
         0.05151    0.03097   -0.00699    0.00068
AFIX   3
H16B  2   -0.014286    0.170289    0.394032    10.25000   -1.50000
H16C  2    0.016474    0.176159    0.511542    10.25000   -1.50000
AFIX   0
HKLF 4




REM  an1eu_a.res in P2(1)/m
REM wR2 = 0.0769, GooF = S = 1.137, Restrained GooF = 1.116 for all data
REM R1 = 0.0292 for 7966 Fo > 4sig(Fo) and 0.0316 for all 8452 data
REM 696 parameters refined using 829 restraints

END

WGHT      0.0321      9.8661

REM Highest difference peak  1.407,  deepest hole -1.484,  1-sigma level  0.108
Q1    1  -0.3178  0.3781  0.7240  11.00000  0.05    0.95
Q2    1  -0.2462  0.3749  0.4712  11.00000  0.05    0.78
;
_shelx_res_checksum              9146
_shelx_fab_file
;
    2    0    0     -6.09      0.00
    3    0    0     -3.45      0.00
    4    0    0      0.45      0.00
    5    0    0     -4.27      0.00
    6    0    0     -6.32      0.00
    7    0    0     -1.90      0.00
    8    0    0      0.76      0.00
    9    0    0      1.90      0.00
   10    0    0      1.83      0.00
   11    0    0     -0.66      0.00
   12    0    0     -0.25      0.00
   13    0    0      2.03      0.00
   14    0    0      1.14      0.00
    2    1    0      0.12      0.00
    3    1    0     -2.88      0.00
    4    1    0     -1.44      0.00
    5    1    0      0.57      0.00
    6    1    0      0.51      0.00
    7    1    0      0.23      0.00
    8    1    0      0.38      0.00
    9    1    0      0.26      0.00
   10    1    0      0.43      0.00
   11    1    0      0.47      0.00
   12    1    0     -0.34      0.00
   13    1    0     -0.33      0.00
   14    1    0      0.28      0.00
    2    2    0     -3.60      0.00
    3    2    0     -1.81      0.00
    4    2    0     -0.26      0.00
    5    2    0     -4.12      0.00
    6    2    0     -4.92      0.00
    7    2    0     -1.16      0.00
    8    2    0      0.60      0.00
    9    2    0      1.38      0.00
   10    2    0      1.41      0.00
   11    2    0     -0.37      0.00
   12    2    0      0.19      0.00
   13    2    0      1.69      0.00
   14    2    0      0.69      0.00
    1    3    0      7.38      0.00
    2    3    0      0.11      0.00
    3    3    0     -5.06      0.00
    4    3    0     -2.44      0.00
    5    3    0      0.87      0.00
    6    3    0      0.69      0.00
    7    3    0      0.70      0.00
    8    3    0      1.03      0.00
    9    3    0      0.36      0.00
   10    3    0      0.76      0.00
   11    3    0      1.20      0.00
   12    3    0     -0.46      0.00
   13    3    0     -0.54      0.00
   14    3    0      0.69      0.00
    0    4    0      8.68      0.00
    1    4    0      4.40      0.00
    2    4    0      0.92      0.00
    3    4    0      0.95      0.00
    4    4    0     -1.52      0.00
    5    4    0     -3.26      0.00
    6    4    0     -1.92      0.00
    7    4    0      0.15      0.00
    8    4    0      0.31      0.00
    9    4    0      0.47      0.00
   10    4    0      0.51      0.00
   11    4    0      0.00      0.00
   12    4    0      1.00      0.00
   13    4    0      1.01      0.00
   14    4    0     -0.14      0.00
    1    5    0      3.41      0.00
    2    5    0      0.27      0.00
    3    5    0     -0.64      0.00
    4    5    0     -0.26      0.00
    5    5    0     -0.34      0.00
    6    5    0     -0.39      0.00
    7    5    0      1.10      0.00
    8    5    0      1.30      0.00
    9    5    0     -0.21      0.00
   10    5    0      0.22      0.00
   11    5    0      1.31      0.00
   12    5    0      0.15      0.00
   13    5    0     -0.13      0.00
   14    5    0      0.64      0.00
    1    6    0     -2.26      0.00
    2    6    0      2.57      0.00
    3    6    0      1.64      0.00
    4    6    0     -1.76      0.00
    5    6    0     -1.48      0.00
    6    6    0      0.22      0.00
    7    6    0      0.55      0.00
    8    6    0      0.29      0.00
    9    6    0      0.25      0.00
   10    6    0     -0.20      0.00
   11    6    0     -0.15      0.00
   12    6    0      1.41      0.00
   13    6    0      0.59      0.00
   14    6    0     -0.57      0.00
    1    7    0     -2.36      0.00
    2    7    0      1.88      0.00
    3    7    0      6.10      0.00
    4    7    0      2.29      0.00
    5    7    0     -2.00      0.00
    6    7    0     -1.27      0.00
    7    7    0      1.29      0.00
    8    7    0      0.83      0.00
    9    7    0     -0.95      0.00
   10    7    0     -0.36      0.00
   11    7    0      0.84      0.00
   12    7    0      0.48      0.00
   13    7    0      0.04      0.00
   14    7    0      0.05      0.00
    1    8    0     -2.95      0.00
    2    8    0      0.74      0.00
    3    8    0      0.51      0.00
    4    8    0     -0.68      0.00
    5    8    0      0.07      0.00
    6    8    0      0.26      0.00
    7    8    0     -0.05      0.00
    8    8    0      0.59      0.00
    9    8    0      0.74      0.00
   10    8    0     -0.25      0.00
   11    8    0     -0.57      0.00
   12    8    0      1.30      0.00
   13    8    0      0.68      0.00
   14    8    0     -0.52      0.00
    1    9    0     -3.75      0.00
    2    9    0      4.22      0.00
    3    9    0      8.84      0.00
    4    9    0      2.52      0.00
    5    9    0     -2.49      0.00
    6    9    0     -0.84      0.00
    7    9    0      1.00      0.00
    8    9    0     -0.19      0.00
    9    9    0     -1.18      0.00
   10    9    0     -0.14      0.00
   11    9    0      0.32      0.00
   12    9    0     -0.01      0.00
   13    9    0     -0.38      0.00
   14    9    0     -0.62      0.00
    0   10    0     -0.29      0.00
    1   10    0     -0.70      0.00
    2   10    0     -0.84      0.00
    3   10    0      0.08      0.00
    4   10    0      0.25      0.00
    5   10    0      0.02      0.00
    6   10    0     -0.80      0.00
    7   10    0     -0.55      0.00
    8   10    0      0.70      0.00
    9   10    0      0.90      0.00
   10   10    0      0.11      0.00
   11   10    0     -0.57      0.00
   12   10    0      1.06      0.00
   13   10    0      1.03      0.00
   14   10    0     -0.36      0.00
    1   11    0     -1.33      0.00
    2   11    0      4.77      0.00
    3   11    0      6.41      0.00
    4   11    0      1.24      0.00
    5   11    0     -1.51      0.00
    6   11    0      0.12      0.00
    7   11    0      0.28      0.00
    8   11    0     -0.90      0.00
    9   11    0     -0.79      0.00
   10   11    0      0.57      0.00
   11   11    0      0.25      0.00
   12   11    0     -0.53      0.00
   13   11    0     -0.66      0.00
    0   12    0      2.40      0.00
    1   12    0      0.82      0.00
    2   12    0      0.21      0.00
    3   12    0      0.88      0.00
    4   12    0     -0.29      0.00
    5   12    0     -1.10      0.00
    6   12    0     -1.13      0.00
    7   12    0     -0.36      0.00
    8   12    0      0.18      0.00
    9   12    0      0.22      0.00
   10   12    0      0.33      0.00
   11   12    0     -0.17      0.00
   12   12    0      0.80      0.00
   13   12    0      1.22      0.00
    1   13    0      0.50      0.00
    2   13    0      2.78      0.00
    3   13    0      2.81      0.00
    4   13    0      0.70      0.00
    5   13    0     -0.37      0.00
    6   13    0      0.27      0.00
    7   13    0     -0.24      0.00
    8   13    0     -0.60      0.00
    9   13    0     -0.25      0.00
   10   13    0      0.86      0.00
   11   13    0      0.63      0.00
   12   13    0     -0.27      0.00
   13   13    0     -0.26      0.00
    0   14    0      0.84      0.00
    1   14    0      0.87      0.00
    2   14    0      2.10      0.00
    3   14    0      1.07      0.00
    4   14    0     -1.52      0.00
    5   14    0     -1.33      0.00
    6   14    0     -0.27      0.00
    7   14    0     -0.10      0.00
    8   14    0     -0.62      0.00
    9   14    0     -0.42      0.00
   10   14    0      0.30      0.00
   11   14    0      0.00      0.00
   12   14    0      0.31      0.00
   13   14    0      1.04      0.00
    1   15    0      0.10      0.00
    2   15    0      0.37      0.00
    3   15    0      1.26      0.00
    4   15    0      1.03      0.00
    5   15    0     -0.18      0.00
    6   15    0     -0.23      0.00
    7   15    0     -0.04      0.00
    8   15    0      0.29      0.00
    9   15    0      0.05      0.00
   10   15    0      0.54      0.00
   11   15    0      1.04      0.00
   12   15    0      0.45      0.00
   13   15    0      0.26      0.00
    0   16    0     -0.94      0.00
    1   16    0      0.40      0.00
    2   16    0      2.15      0.00
    3   16    0     -0.08      0.00
    4   16    0     -1.63      0.00
    5   16    0      0.02      0.00
    6   16    0      0.61      0.00
    7   16    0     -0.43      0.00
    8   16    0     -0.94      0.00
    9   16    0     -0.09      0.00
   10   16    0      0.29      0.00
   11   16    0     -0.28      0.00
   12   16    0     -0.30      0.00
   13   16    0      0.62      0.00
    1   17    0     -0.61      0.00
    2   17    0     -0.49      0.00
    3   17    0      0.95      0.00
    4   17    0      0.66      0.00
    5   17    0     -0.47      0.00
    6   17    0     -0.22      0.00
    7   17    0      0.45      0.00
    8   17    0      0.68      0.00
    9   17    0      0.13      0.00
   10   17    0      0.21      0.00
   11   17    0      1.11      0.00
   12   17    0      0.75      0.00
    0   18    0     -1.05      0.00
    1   18    0     -0.01      0.00
    2   18    0      0.65      0.00
    3   18    0     -1.02      0.00
    4   18    0     -0.41      0.00
    5   18    0      1.34      0.00
    6   18    0      0.57      0.00
    7   18    0     -0.92      0.00
    8   18    0     -0.64      0.00
    9   18    0      0.73      0.00
   10   18    0      0.44      0.00
   11   18    0     -0.55      0.00
   12   18    0     -0.59      0.00
    1   19    0     -0.12      0.00
    2   19    0     -0.21      0.00
    3   19    0     -0.07      0.00
    4   19    0     -0.54      0.00
    5   19    0     -0.10      0.00
    6   19    0      0.49      0.00
    7   19    0      0.46      0.00
    8   19    0      0.20      0.00
    9   19    0      0.15      0.00
   10   19    0      0.10      0.00
   11   19    0      0.66      0.00
   12   19    0      0.43      0.00
    0   20    0     -0.61      0.00
    1   20    0     -0.31      0.00
    2   20    0     -0.28      0.00
    3   20    0     -0.54      0.00
    4   20    0      0.48      0.00
    5   20    0      1.09      0.00
    6   20    0      0.13      0.00
    7   20    0     -0.75      0.00
    8   20    0     -0.30      0.00
    9   20    0      0.85      0.00
   10   20    0      0.51      0.00
   11   20    0     -0.47      0.00
   12   20    0     -0.42      0.00
    1   21    0      0.86      0.00
    2   21    0     -0.05      0.00
    3   21    0     -1.40      0.00
    4   21    0     -1.03      0.00
    5   21    0      0.86      0.00
    6   21    0      0.90      0.00
    7   21    0      0.02      0.00
    8   21    0     -0.27      0.00
    9   21    0      0.10      0.00
   10   21    0     -0.17      0.00
   11   21    0     -0.09      0.00
    0   22    0     -0.59      0.00
    1   22    0     -0.39      0.00
    2   22    0      0.08      0.00
    3   22    0      0.44      0.00
    4   22    0      0.00      0.00
    5   22    0     -0.10      0.00
    6   22    0      0.23      0.00
    7   22    0      0.02      0.00
    8   22    0     -0.30      0.00
    9   22    0      0.17      0.00
   10   22    0      0.35      0.00
   11   22    0     -0.27      0.00
    1   23    0      1.27      0.00
    2   23    0     -0.14      0.00
    3   23    0     -1.47      0.00
    4   23    0     -0.18      0.00
    5   23    0      1.23      0.00
    6   23    0      0.41      0.00
    7   23    0     -0.14      0.00
    8   23    0      0.01      0.00
    9   23    0     -0.06      0.00
   10   23    0     -0.69      0.00
   11   23    0     -0.62      0.00
    0   24    0     -0.60      0.00
    1   24    0     -0.26      0.00
    2   24    0      0.56      0.00
    3   24    0      0.61      0.00
    4   24    0     -0.91      0.00
    5   24    0     -0.63      0.00
    6   24    0      0.66      0.00
    7   24    0      0.47      0.00
    8   24    0     -0.31      0.00
    9   24    0     -0.33      0.00
   10   24    0      0.07      0.00
    1   25    0      1.14      0.00
    2   25    0      0.11      0.00
    3   25    0     -0.34      0.00
    4   25    0      0.74      0.00
    5   25    0      0.55      0.00
    6   25    0     -0.25      0.00
    7   25    0      0.18      0.00
    8   25    0      0.55      0.00
    9   25    0     -0.20      0.00
   10   25    0     -0.88      0.00
    0   26    0     -0.27      0.00
    1   26    0     -0.10      0.00
    2   26    0      0.33      0.00
    3   26    0      0.15      0.00
    4   26    0     -0.90      0.00
    5   26    0     -0.25      0.00
    6   26    0      0.55      0.00
    7   26    0      0.25      0.00
    8   26    0      0.01      0.00
    9   26    0     -0.23      0.00
   10   26    0     -0.22      0.00
    1   27    0      0.99      0.00
    2   27    0      0.58      0.00
    3   27    0      0.47      0.00
    4   27    0      0.69      0.00
    5   27    0     -0.19      0.00
    6   27    0     -0.24      0.00
    7   27    0      0.31      0.00
    8   27    0      0.43      0.00
    9   27    0     -0.12      0.00
    0   28    0      0.07      0.00
    1   28    0     -0.14      0.00
    2   28    0     -0.17      0.00
    3   28    0     -0.05      0.00
    4   28    0     -0.14      0.00
    5   28    0      0.07      0.00
    6   28    0     -0.09      0.00
    7   28    0     -0.03      0.00
    8   28    0      0.40      0.00
    9   28    0     -0.11      0.00
    1   29    0      0.82      0.00
    2   29    0      0.70      0.00
    3   29    0      0.32      0.00
    4   29    0      0.14      0.00
    5   29    0     -0.13      0.00
    6   29    0      0.22      0.00
    7   29    0     -0.11      0.00
    8   29    0     -0.20      0.00
    0   30    0      0.12      0.00
    1   30    0     -0.30      0.00
    2   30    0     -0.37      0.00
    3   30    0      0.12      0.00
    4   30    0      0.31      0.00
    5   30    0     -0.13      0.00
    6   30    0     -0.43      0.00
    7   30    0      0.16      0.00
    8   30    0      0.40      0.00
    1   31    0      0.47      0.00
    2   31    0      0.38      0.00
    3   31    0     -0.03      0.00
    4   31    0     -0.01      0.00
    5   31    0      0.32      0.00
    6   31    0      0.37      0.00
    7   31    0     -0.50      0.00
    0   32    0      0.09      0.00
    1   32    0     -0.36      0.00
    2   32    0     -0.37      0.00
    3   32    0      0.12      0.00
    4   32    0      0.18      0.00
    5   32    0     -0.33      0.00
    6   32    0     -0.20      0.00
    1   33    0      0.11      0.00
    2   33    0      0.10      0.00
    3   33    0      0.04      0.00
    4   33    0      0.20      0.00
    5   33    0      0.38      0.00
    0   34    0      0.22      0.00
    1   34    0     -0.21      0.00
    2   34    0     -0.39      0.00
    3   34    0     -0.13      0.00
    4   34    0      0.04      0.00
    1   35    0      0.02      0.00
    2   35    0      0.12      0.00
    3   35    0      0.27      0.00
  -14    0    1     -0.79      0.00
  -13    0    1     -1.34      0.00
  -12    0    1     -0.20      0.00
  -11    0    1      0.26      0.00
  -10    0    1     -1.52      0.00
   -9    0    1     -1.65      0.00
   -8    0    1     -0.37      0.00
   -7    0    1      1.15      0.00
   -6    0    1      5.83      0.00
   -5    0    1      6.47      0.00
   -4    0    1      0.23      0.00
   -3    0    1     -2.94      0.00
   -2    0    1     -0.28      0.00
   -1    0    1    -13.00      0.00
    2    0    1      6.39      0.00
    3    0    1      9.09      0.00
    4    0    1      1.56      0.00
    5    0    1      1.59      0.00
    6    0    1      4.22      0.00
    7    0    1      2.14      0.00
    8    0    1     -0.42      0.00
    9    0    1     -1.48      0.00
   10    0    1     -1.98      0.00
   11    0    1      0.18      0.00
   12    0    1      0.73      0.00
   13    0    1     -1.87      0.00
   14    0    1     -1.20      0.00
  -14    1    1      0.10      0.00
  -13    1    1     -0.30      0.00
  -12    1    1     -0.34      0.00
  -11    1    1      0.38      0.00
  -10    1    1      0.50      0.00
   -9    1    1      0.36      0.00
   -8    1    1      0.46      0.00
   -7    1    1      0.43      0.00
   -6    1    1      0.53      0.00
   -5    1    1      0.35      0.00
   -4    1    1     -1.28      0.00
   -3    1    1     -2.28      0.00
   -2    1    1     -0.43      0.00
   -1    1    1      2.46      0.00
    1    1    1     -3.99      0.00
    2    1    1     -0.71      0.00
    3    1    1      2.72      0.00
    4    1    1      1.70      0.00
    5    1    1     -0.38      0.00
    6    1    1     -0.48      0.00
    7    1    1     -0.16      0.00
    8    1    1     -0.34      0.00
    9    1    1     -0.18      0.00
   10    1    1     -0.24      0.00
   11    1    1     -0.48      0.00
   12    1    1      0.20      0.00
   13    1    1      0.33      0.00
   14    1    1     -0.32      0.00
  -14    2    1     -0.47      0.00
  -13    2    1     -1.12      0.00
  -12    2    1     -0.53      0.00
  -11    2    1      0.09      0.00
  -10    2    1     -1.06      0.00
   -9    2    1     -1.07      0.00
   -8    2    1     -0.21      0.00
   -7    2    1      0.50      0.00
   -6    2    1      4.61      0.00
   -5    2    1      6.06      0.00
   -4    2    1      0.47      0.00
   -3    2    1     -3.97      0.00
   -2    2    1     -1.87      0.00
   -1    2    1     -9.35      0.00
    0    2    1    -25.96      0.00
    1    2    1    -16.71      0.00
    2    2    1      4.35      0.00
    3    2    1      6.94      0.00
    4    2    1      2.05      0.00
    5    2    1      1.74      0.00
    6    2    1      2.99      0.00
    7    2    1      1.39      0.00
    8    2    1     -0.31      0.00
    9    2    1     -1.10      0.00
   10    2    1     -1.63      0.00
   11    2    1     -0.06      0.00
   12    2    1      0.26      0.00
   13    2    1     -1.57      0.00
   14    2    1     -0.74      0.00
  -14    3    1      0.31      0.00
  -13    3    1     -0.39      0.00
  -12    3    1     -0.50      0.00
  -11    3    1      0.89      0.00
  -10    3    1      0.94      0.00
   -9    3    1      0.72      0.00
   -8    3    1      1.26      0.00
   -7    3    1      1.04      0.00
   -6    3    1      0.73      0.00
   -5    3    1      0.59      0.00
   -4    3    1     -1.95      0.00
   -3    3    1     -3.90      0.00
   -2    3    1     -1.27      0.00
   -1    3    1      4.09      0.00
    0    3    1     -0.83      0.00
    1    3    1     -7.78      0.00
    2    3    1     -1.41      0.00
    3    3    1      4.73      0.00
    4    3    1      3.04      0.00
    5    3    1     -0.30      0.00
    6    3    1     -0.54      0.00
    7    3    1     -0.54      0.00
    8    3    1     -0.98      0.00
    9    3    1     -0.17      0.00
   10    3    1     -0.27      0.00
   11    3    1     -1.22      0.00
   12    3    1      0.08      0.00
   13    3    1      0.54      0.00
   14    3    1     -0.72      0.00
  -14    4    1      0.11      0.00
  -13    4    1     -0.66      0.00
  -12    4    1     -1.12      0.00
  -11    4    1     -0.09      0.00
  -10    4    1     -0.08      0.00
   -9    4    1     -0.07      0.00
   -8    4    1      0.12      0.00
   -7    4    1     -0.54      0.00
   -6    4    1      1.94      0.00
   -5    4    1      4.46      0.00
   -4    4    1      0.85      0.00
   -3    4    1     -5.03      0.00
   -2    4    1     -4.35      0.00
   -1    4    1     -2.28      0.00
    0    4    1     -6.38      0.00
    1    4    1     -5.33      0.00
    2    4    1      0.81      0.00
    3    4    1      2.71      0.00
    4    4    1      2.63      0.00
    5    4    1      1.66      0.00
    6    4    1      0.51      0.00
    7    4    1      0.02      0.00
    8    4    1     -0.18      0.00
    9    4    1     -0.46      0.00
   10    4    1     -0.83      0.00
   11    4    1     -0.29      0.00
   12    4    1     -0.63      0.00
   13    4    1     -1.00      0.00
   14    4    1      0.09      0.00
  -14    5    1      0.43      0.00
  -13    5    1      0.10      0.00
  -12    5    1     -0.01      0.00
  -11    5    1      0.90      0.00
  -10    5    1      0.50      0.00
   -9    5    1      0.31      0.00
   -8    5    1      1.44      0.00
   -7    5    1      1.17      0.00
   -6    5    1     -0.26      0.00
   -5    5    1      0.02      0.00
   -4    5    1      0.28      0.00
   -3    5    1     -0.15      0.00
   -2    5    1     -0.99      0.00
   -1    5    1      0.48      0.00
    0    5    1     -1.55      0.00
    1    5    1     -4.40      0.00
    2    5    1     -1.13      0.00
    3    5    1      0.55      0.00
    4    5    1      0.74      0.00
    5    5    1      1.12      0.00
    6    5    1      0.77      0.00
    7    5    1     -0.99      0.00
    8    5    1     -1.35      0.00
    9    5    1      0.40      0.00
   10    5    1      0.36      0.00
   11    5    1     -1.31      0.00
   12    5    1     -0.61      0.00
   13    5    1      0.10      0.00
   14    5    1     -0.57      0.00
  -14    6    1      0.38      0.00
  -13    6    1     -0.35      0.00
  -12    6    1     -1.37      0.00
  -11    6    1      0.11      0.00
  -10    6    1      0.56      0.00
   -9    6    1      0.11      0.00
   -8    6    1      0.28      0.00
   -7    6    1     -0.52      0.00
   -6    6    1     -0.13      0.00
   -5    6    1      1.65      0.00
   -4    6    1      0.75      0.00
   -3    6    1     -3.37      0.00
   -2    6    1     -4.13      0.00
   -1    6    1      1.62      0.00
    0    6    1      6.01      0.00
    1    6    1      3.31      0.00
    2    6    1     -0.06      0.00
    3    6    1      0.02      0.00
    4    6    1      1.82      0.00
    5    6    1      0.79      0.00
    6    6    1     -0.88      0.00
    7    6    1     -0.52      0.00
    8    6    1     -0.42      0.00
    9    6    1     -0.41      0.00
   10    6    1     -0.11      0.00
   11    6    1      0.07      0.00
   12    6    1     -1.04      0.00
   13    6    1     -0.71      0.00
   14    6    1      0.46      0.00
  -14    7    1      0.16      0.00
  -13    7    1      0.24      0.00
  -12    7    1      0.20      0.00
  -11    7    1      0.53      0.00
  -10    7    1      0.09      0.00
   -9    7    1     -0.43      0.00
   -8    7    1      0.59      0.00
   -7    7    1      0.86      0.00
   -6    7    1     -0.88      0.00
   -5    7    1     -0.82      0.00
   -4    7    1      2.36      0.00
   -3    7    1      5.32      0.00
   -2    7    1      1.82      0.00
   -1    7    1     -3.42      0.00
    0    7    1     -2.64      0.00
    1    7    1      0.69      0.00
    2    7    1     -1.16      0.00
    3    7    1     -5.47      0.00
    4    7    1     -2.49      0.00
    5    7    1      2.58      0.00
    6    7    1      1.97      0.00
    7    7    1     -1.27      0.00
    8    7    1     -1.20      0.00
    9    7    1      0.99      0.00
   10    7    1      0.92      0.00
   11    7    1     -0.76      0.00
   12    7    1     -0.88      0.00
   13    7    1     -0.13      0.00
   14    7    1      0.09      0.00
  -14    8    1      0.38      0.00
  -13    8    1     -0.35      0.00
  -12    8    1     -1.33      0.00
  -11    8    1      0.36      0.00
  -10    8    1      0.45      0.00
   -9    8    1     -0.50      0.00
   -8    8    1      0.15      0.00
   -7    8    1      0.45      0.00
   -6    8    1     -0.44      0.00
   -5    8    1     -0.81      0.00
   -4    8    1      0.14      0.00
   -3    8    1     -0.16      0.00
   -2    8    1     -1.42      0.00
   -1    8    1      0.75      0.00
    0    8    1      5.46      0.00
    1    8    1      5.08      0.00
    2    8    1      1.75      0.00
    3    8    1     -0.50      0.00
    4    8    1     -0.17      0.00
    5    8    1     -0.09      0.00
    6    8    1     -0.24      0.00
    7    8    1     -0.02      0.00
    8    8    1     -0.94      0.00
    9    8    1     -0.90      0.00
   10    8    1      0.05      0.00
   11    8    1      0.68      0.00
   12    8    1     -0.75      0.00
   13    8    1     -0.85      0.00
   14    8    1      0.26      0.00
  -14    9    1     -0.34      0.00
  -13    9    1     -0.32      0.00
  -12    9    1     -0.30      0.00
  -11    9    1      0.19      0.00
  -10    9    1      0.48      0.00
   -9    9    1     -0.79      0.00
   -8    9    1     -0.92      0.00
   -7    9    1      0.26      0.00
   -6    9    1     -0.05      0.00
   -5    9    1     -1.01      0.00
   -4    9    1      1.71      0.00
   -3    9    1      7.35      0.00
   -2    9    1      5.79      0.00
   -1    9    1     -3.14      0.00
    0    9    1     -3.75      0.00
    1    9    1      1.68      0.00
    2    9    1     -1.73      0.00
    3    9    1     -7.40      0.00
    4    9    1     -3.62      0.00
    5    9    1      2.46      0.00
    6    9    1      1.81      0.00
    7    9    1     -0.96      0.00
    8    9    1     -0.56      0.00
    9    9    1      0.99      0.00
   10    9    1      0.70      0.00
   11    9    1     -0.15      0.00
   12    9    1     -0.26      0.00
   13    9    1      0.23      0.00
  -14   10    1      0.42      0.00
  -13   10    1     -0.59      0.00
  -12   10    1     -1.36      0.00
  -11   10    1      0.16      0.00
  -10   10    1      0.03      0.00
   -9   10    1     -0.77      0.00
   -8   10    1     -0.01      0.00
   -7   10    1      1.00      0.00
   -6   10    1      0.34      0.00
   -5   10    1     -1.09      0.00
   -4   10    1     -0.14      0.00
   -3   10    1      1.19      0.00
   -2   10    1      0.31      0.00
   -1   10    1     -1.28      0.00
    0   10    1     -0.13      0.00
    1   10    1      2.47      0.00
    2   10    1      2.54      0.00
    3   10    1     -0.71      0.00
    4   10    1     -1.32      0.00
    5   10    1      0.16      0.00
    6   10    1      1.06      0.00
    7   10    1      0.52      0.00
    8   10    1     -1.06      0.00
    9   10    1     -0.98      0.00
   10   10    1     -0.23      0.00
   11   10    1      0.74      0.00
   12   10    1     -0.30      0.00
   13   10    1     -1.07      0.00
  -14   11    1     -0.57      0.00
  -13   11    1     -0.72      0.00
  -12   11    1     -0.74      0.00
  -11   11    1      0.17      0.00
  -10   11    1      1.23      0.00
   -9   11    1     -0.54      0.00
   -8   11    1     -1.89      0.00
   -7   11    1     -0.38      0.00
   -6   11    1      1.24      0.00
   -5   11    1     -0.39      0.00
   -4   11    1     -0.32      0.00
   -3   11    1      5.16      0.00
   -2   11    1      7.28      0.00
   -1   11    1     -0.27      0.00
    0   11    1     -4.06      0.00
    1   11    1     -0.62      0.00
    2   11    1     -1.61      0.00
    3   11    1     -4.61      0.00
    4   11    1     -2.81      0.00
    5   11    1      0.92      0.00
    6   11    1      0.92      0.00
    7   11    1     -0.10      0.00
    8   11    1      0.02      0.00
    9   11    1      0.46      0.00
   10   11    1     -0.03      0.00
   11   11    1     -0.10      0.00
   12   11    1      0.37      0.00
   13   11    1      0.52      0.00
  -13   12    1     -0.87      0.00
  -12   12    1     -1.33      0.00
  -11   12    1     -0.19      0.00
  -10   12    1     -0.11      0.00
   -9   12    1     -0.16      0.00
   -8   12    1      0.13      0.00
   -7   12    1      0.50      0.00
   -6   12    1      0.79      0.00
   -5   12    1      0.41      0.00
   -4   12    1      0.51      0.00
   -3   12    1      0.12      0.00
   -2   12    1     -0.60      0.00
   -1   12    1     -1.51      0.00
    0   12    1     -2.22      0.00
    1   12    1     -0.25      0.00
    2   12    1      0.44      0.00
    3   12    1     -1.31      0.00
    4   12    1     -0.27      0.00
    5   12    1      1.17      0.00
    6   12    1      1.13      0.00
    7   12    1      0.42      0.00
    8   12    1     -0.27      0.00
    9   12    1     -0.16      0.00
   10   12    1     -0.45      0.00
   11   12    1      0.16      0.00
   12   12    1     -0.04      0.00
   13   12    1     -1.00      0.00
  -13   13    1     -0.32      0.00
  -12   13    1     -0.40      0.00
  -11   13    1      0.43      0.00
  -10   13    1      1.33      0.00
   -9   13    1     -0.07      0.00
   -8   13    1     -1.43      0.00
   -7   13    1     -0.63      0.00
   -6   13    1      1.34      0.00
   -5   13    1      0.20      0.00
   -4   13    1     -0.87      0.00
   -3   13    1      2.24      0.00
   -2   13    1      4.89      0.00
   -1   13    1      0.99      0.00
    0   13    1     -3.05      0.00
    1   13    1     -1.87      0.00
    2   13    1     -0.47      0.00
    3   13    1     -1.33      0.00
    4   13    1     -1.95      0.00
    5   13    1     -0.31      0.00
    6   13    1      0.49      0.00
    7   13    1      0.48      0.00
    8   13    1     -0.04      0.00
    9   13    1     -0.05      0.00
   10   13    1     -0.45      0.00
   11   13    1     -0.61      0.00
   12   13    1      0.15      0.00
   13   13    1      0.21      0.00
  -13   14    1     -0.97      0.00
  -12   14    1     -0.82      0.00
  -11   14    1      0.02      0.00
  -10   14    1      0.08      0.00
   -9   14    1      0.37      0.00
   -8   14    1      0.43      0.00
   -7   14    1     -0.10      0.00
   -6   14    1      0.38      0.00
   -5   14    1      1.28      0.00
   -4   14    1      1.30      0.00
   -3   14    1     -0.76      0.00
   -2   14    1     -2.03      0.00
   -1   14    1     -0.57      0.00
    0   14    1     -0.53      0.00
    1   14    1     -1.10      0.00
    2   14    1     -2.18      0.00
    3   14    1     -1.27      0.00
    4   14    1      1.70      0.00
    5   14    1      1.37      0.00
    6   14    1     -0.20      0.00
    7   14    1      0.08      0.00
    8   14    1      0.87      0.00
    9   14    1      0.73      0.00
   10   14    1     -0.41      0.00
   11   14    1     -0.40      0.00
   12   14    1      0.10      0.00
   13   14    1     -0.60      0.00
  -13   15    1      0.30      0.00
  -12   15    1      0.32      0.00
  -11   15    1      0.75      0.00
  -10   15    1      0.75      0.00
   -9   15    1      0.14      0.00
   -8   15    1     -0.12      0.00
   -7   15    1     -0.24      0.00
   -6   15    1      0.35      0.00
   -5   15    1      0.08      0.00
   -4   15    1      0.18      0.00
   -3   15    1      1.16      0.00
   -2   15    1      1.15      0.00
   -1   15    1     -0.11      0.00
    0   15    1     -1.27      0.00
    1   15    1     -0.75      0.00
    2   15    1      0.36      0.00
    3   15    1     -0.54      0.00
    4   15    1     -1.48      0.00
    5   15    1     -0.09      0.00
    6   15    1      0.55      0.00
    7   15    1      0.15      0.00
    8   15    1     -0.56      0.00
    9   15    1     -0.23      0.00
   10   15    1     -0.30      0.00
   11   15    1     -1.06      0.00
   12   15    1     -0.58      0.00
   13   15    1     -0.25      0.00
  -13   16    1     -0.81      0.00
  -12   16    1      0.03      0.00
  -11   16    1      0.75      0.00
  -10   16    1      0.16      0.00
   -9   16    1     -0.13      0.00
   -8   16    1      0.46      0.00
   -7   16    1      0.18      0.00
   -6   16    1     -0.12      0.00
   -5   16    1      0.25      0.00
   -4   16    1      0.89      0.00
   -3   16    1      0.11      0.00
   -2   16    1     -1.54      0.00
   -1   16    1     -0.13      0.00
    0   16    1      0.94      0.00
    1   16    1     -0.45      0.00
    2   16    1     -2.43      0.00
    3   16    1     -0.37      0.00
    4   16    1      2.21      0.00
    5   16    1      0.31      0.00
    6   16    1     -1.32      0.00
    7   16    1      0.07      0.00
    8   16    1      1.31      0.00
    9   16    1      0.67      0.00
   10   16    1     -0.34      0.00
   11   16    1     -0.47      0.00
   12   16    1      0.22      0.00
  -13   17    1      0.28      0.00
  -12   17    1      0.54      0.00
  -11   17    1      0.96      0.00
  -10   17    1      0.27      0.00
   -9   17    1      0.05      0.00
   -8   17    1      0.61      0.00
   -7   17    1      0.34      0.00
   -6   17    1     -0.25      0.00
   -5   17    1     -0.27      0.00
   -4   17    1      0.70      0.00
   -3   17    1      0.89      0.00
   -2   17    1     -0.92      0.00
   -1   17    1     -1.13      0.00
    0   17    1      0.11      0.00
    1   17    1      0.48      0.00
    2   17    1      0.11      0.00
    3   17    1     -0.96      0.00
    4   17    1     -0.51      0.00
    5   17    1      0.71      0.00
    6   17    1      0.23      0.00
    7   17    1     -0.56      0.00
    8   17    1     -0.72      0.00
    9   17    1     -0.26      0.00
   10   17    1     -0.06      0.00
   11   17    1     -0.94      0.00
   12   17    1     -0.90      0.00
  -12   18    1      0.49      0.00
  -11   18    1      1.18      0.00
  -10   18    1      0.00      0.00
   -9   18    1     -1.08      0.00
   -8   18    1      0.15      0.00
   -7   18    1      0.95      0.00
   -6   18    1      0.00      0.00
   -5   18    1     -1.27      0.00
   -4   18    1     -0.51      0.00
   -3   18    1      1.26      0.00
   -2   18    1      0.20      0.00
   -1   18    1     -0.35      0.00
    0   18    1      0.70      0.00
    1   18    1      0.64      0.00
    2   18    1     -0.73      0.00
    3   18    1      0.14      0.00
    4   18    1      0.91      0.00
    5   18    1     -0.64      0.00
    6   18    1     -1.13      0.00
    7   18    1      0.22      0.00
    8   18    1      0.85      0.00
    9   18    1     -0.02      0.00
   10   18    1     -0.42      0.00
   11   18    1     -0.26      0.00
   12   18    1      0.24      0.00
  -12   19    1      0.15      0.00
  -11   19    1      0.84      0.00
  -10   19    1      0.19      0.00
   -9   19    1     -0.13      0.00
   -8   19    1      0.24      0.00
   -7   19    1      0.45      0.00
   -6   19    1      0.13      0.00
   -5   19    1      0.04      0.00
   -4   19    1     -0.06      0.00
   -3   19    1     -0.26      0.00
   -2   19    1     -1.09      0.00
   -1   19    1     -0.58      0.00
    0   19    1      0.52      0.00
    1   19    1      0.21      0.00
    2   19    1     -0.40      0.00
    3   19    1     -0.37      0.00
    4   19    1      0.75      0.00
    5   19    1      0.57      0.00
    6   19    1     -0.51      0.00
    7   19    1     -0.63      0.00
    8   19    1     -0.24      0.00
    9   19    1     -0.32      0.00
   10   19    1      0.03      0.00
   11   19    1     -0.22      0.00
   12   19    1     -0.54      0.00
  -12   20    1      0.31      0.00
  -11   20    1      0.88      0.00
  -10   20    1     -0.13      0.00
   -9   20    1     -1.23      0.00
   -8   20    1     -0.06      0.00
   -7   20    1      1.06      0.00
   -6   20    1      0.30      0.00
   -5   20    1     -1.40      0.00
   -4   20    1     -1.20      0.00
   -3   20    1      1.03      0.00
   -2   20    1      0.92      0.00
   -1   20    1     -0.46      0.00
    0   20    1      0.19      0.00
    1   20    1      1.26      0.00
    2   20    1      0.50      0.00
    3   20    1     -0.35      0.00
    4   20    1     -0.32      0.00
    5   20    1     -0.33      0.00
    6   20    1     -0.35      0.00
    7   20    1      0.01      0.00
    8   20    1      0.29      0.00
    9   20    1     -0.27      0.00
   10   20    1     -0.48      0.00
   11   20    1     -0.07      0.00
  -12   21    1     -0.20      0.00
  -11   21    1      0.33      0.00
  -10   21    1     -0.02      0.00
   -9   21    1     -0.24      0.00
   -8   21    1     -0.26      0.00
   -7   21    1      0.15      0.00
   -6   21    1      0.55      0.00
   -5   21    1      0.82      0.00
   -4   21    1     -0.54      0.00
   -3   21    1     -1.60      0.00
   -2   21    1     -0.83      0.00
   -1   21    1      0.51      0.00
    0   21    1      0.35      0.00
    1   21    1     -0.75      0.00
    2   21    1     -0.36      0.00
    3   21    1      0.90      0.00
    4   21    1      1.10      0.00
    5   21    1     -0.52      0.00
    6   21    1     -0.89      0.00
    7   21    1     -0.07      0.00
    8   21    1      0.24      0.00
    9   21    1     -0.29      0.00
   10   21    1      0.24      0.00
   11   21    1      0.63      0.00
  -11   22    1      0.36      0.00
  -10   22    1     -0.05      0.00
   -9   22    1     -0.45      0.00
   -8   22    1      0.05      0.00
   -7   22    1      0.33      0.00
   -6   22    1      0.01      0.00
   -5   22    1     -0.40      0.00
   -4   22    1     -0.42      0.00
   -3   22    1     -0.04      0.00
   -2   22    1      0.10      0.00
   -1   22    1     -0.23      0.00
    0   22    1      0.33      0.00
    1   22    1      1.09      0.00
    2   22    1      0.38      0.00
    3   22    1     -0.85      0.00
    4   22    1     -0.14      0.00
    5   22    1      0.57      0.00
    6   22    1     -0.18      0.00
    7   22    1     -0.45      0.00
    8   22    1      0.19      0.00
    9   22    1      0.12      0.00
   10   22    1     -0.36      0.00
   11   22    1      0.08      0.00
  -11   23    1     -0.19      0.00
  -10   23    1     -0.60      0.00
   -9   23    1     -0.30      0.00
   -8   23    1      0.04      0.00
   -7   23    1      0.06      0.00
   -6   23    1      0.18      0.00
   -5   23    1      1.03      0.00
   -4   23    1      0.21      0.00
   -3   23    1     -1.47      0.00
   -2   23    1     -0.79      0.00
   -1   23    1      0.88      0.00
    0   23    1      0.26      0.00
    1   23    1     -1.18      0.00
    2   23    1     -0.26      0.00
    3   23    1      1.15      0.00
    4   23    1      0.36      0.00
    5   23    1     -1.12      0.00
    6   23    1     -0.52      0.00
    7   23    1      0.23      0.00
    8   23    1      0.10      0.00
    9   23    1     -0.06      0.00
   10   23    1      0.59      0.00
  -11   24    1      0.18      0.00
  -10   24    1      0.10      0.00
   -9   24    1      0.21      0.00
   -8   24    1      0.19      0.00
   -7   24    1     -0.28      0.00
   -6   24    1     -0.57      0.00
   -5   24    1      0.15      0.00
   -4   24    1      0.66      0.00
   -3   24    1     -0.51      0.00
   -2   24    1     -0.76      0.00
   -1   24    1     -0.02      0.00
    0   24    1      0.53      0.00
    1   24    1      0.54      0.00
    2   24    1     -0.02      0.00
    3   24    1     -0.52      0.00
    4   24    1      0.69      0.00
    5   24    1      0.84      0.00
    6   24    1     -0.51      0.00
    7   24    1     -0.58      0.00
    8   24    1      0.19      0.00
    9   24    1      0.37      0.00
   10   24    1     -0.08      0.00
  -10   25    1     -0.95      0.00
   -9   25    1     -0.29      0.00
   -8   25    1      0.71      0.00
   -7   25    1      0.38      0.00
   -6   25    1     -0.43      0.00
   -5   25    1      0.33      0.00
   -4   25    1      1.14      0.00
   -3   25    1     -0.14      0.00
   -2   25    1     -0.61      0.00
   -1   25    1      0.64      0.00
    0   25    1      0.39      0.00
    1   25    1     -1.06      0.00
    2   25    1     -0.71      0.00
    3   25    1      0.26      0.00
    4   25    1     -0.25      0.00
    5   25    1     -0.58      0.00
    6   25    1     -0.04      0.00
    7   25    1     -0.04      0.00
    8   25    1     -0.23      0.00
    9   25    1      0.19      0.00
   10   25    1      0.58      0.00
  -10   26    1      0.21      0.00
   -9   26    1      0.22      0.00
   -8   26    1      0.07      0.00
   -7   26    1     -0.17      0.00
   -6   26    1     -0.56      0.00
   -5   26    1     -0.15      0.00
   -4   26    1      0.70      0.00
   -3   26    1     -0.22      0.00
   -2   26    1     -0.63      0.00
   -1   26    1      0.03      0.00
    0   26    1      0.30      0.00
    1   26    1      0.19      0.00
    2   26    1      0.11      0.00
    3   26    1      0.07      0.00
    4   26    1      0.82      0.00
    5   26    1      0.46      0.00
    6   26    1     -0.46      0.00
    7   26    1     -0.30      0.00
    8   26    1     -0.15      0.00
    9   26    1      0.16      0.00
   -9   27    1     -0.17      0.00
   -8   27    1      0.73      0.00
   -7   27    1      0.49      0.00
   -6   27    1     -0.38      0.00
   -5   27    1     -0.31      0.00
   -4   27    1      1.06      0.00
   -3   27    1      0.69      0.00
   -2   27    1     -0.20      0.00
   -1   27    1      0.46      0.00
    0   27    1      0.44      0.00
    1   27    1     -0.90      0.00
    2   27    1     -1.25      0.00
    3   27    1     -0.44      0.00
    4   27    1     -0.08      0.00
    5   27    1      0.20      0.00
    6   27    1     -0.04      0.00
    7   27    1     -0.19      0.00
    8   27    1     -0.03      0.00
    9   27    1      0.18      0.00
   -9   28    1      0.09      0.00
   -8   28    1     -0.15      0.00
   -7   28    1      0.14      0.00
   -6   28    1      0.07      0.00
   -5   28    1     -0.36      0.00
   -4   28    1     -0.06      0.00
   -3   28    1     -0.03      0.00
   -2   28    1     -0.03      0.00
   -1   28    1      0.13      0.00
    0   28    1     -0.02      0.00
    1   28    1      0.16      0.00
    2   28    1      0.38      0.00
    3   28    1      0.16      0.00
    4   28    1      0.26      0.00
    5   28    1      0.18      0.00
    6   28    1      0.01      0.00
    7   28    1     -0.15      0.00
    8   28    1     -0.57      0.00
   -8   29    1      0.14      0.00
   -7   29    1      0.06      0.00
   -6   29    1      0.18      0.00
   -5   29    1     -0.11      0.00
   -4   29    1      0.37      0.00
   -3   29    1      0.38      0.00
   -2   29    1      0.04      0.00
   -1   29    1      0.41      0.00
    0   29    1      0.27      0.00
    1   29    1     -0.74      0.00
    2   29    1     -1.16      0.00
    3   29    1     -0.36      0.00
    4   29    1      0.27      0.00
    5   29    1      0.29      0.00
    6   29    1     -0.27      0.00
    7   29    1      0.14      0.00
    8   29    1      0.49      0.00
   -8   30    1     -0.14      0.00
   -7   30    1      0.00      0.00
   -6   30    1      0.45      0.00
   -5   30    1      0.02      0.00
   -4   30    1     -0.47      0.00
   -3   30    1     -0.23      0.00
   -2   30    1      0.29      0.00
   -1   30    1      0.43      0.00
    0   30    1     -0.06      0.00
    1   30    1      0.16      0.00
    2   30    1      0.37      0.00
    3   30    1     -0.01      0.00
    4   30    1     -0.09      0.00
    5   30    1      0.24      0.00
    6   30    1      0.19      0.00
    7   30    1     -0.37      0.00
   -7   31    1     -0.37      0.00
   -6   31    1      0.44      0.00
   -5   31    1      0.45      0.00
   -4   31    1      0.08      0.00
   -3   31    1     -0.15      0.00
   -2   31    1     -0.06      0.00
   -1   31    1      0.21      0.00
    0   31    1      0.03      0.00
    1   31    1     -0.43      0.00
    2   31    1     -0.61      0.00
    3   31    1     -0.12      0.00
    4   31    1      0.19      0.00
    5   31    1      0.00      0.00
    6   31    1     -0.20      0.00
    7   31    1      0.43      0.00
   -6   32    1      0.24      0.00
   -5   32    1      0.43      0.00
   -4   32    1     -0.26      0.00
   -3   32    1     -0.32      0.00
   -2   32    1      0.32      0.00
   -1   32    1      0.68      0.00
    0   32    1     -0.02      0.00
    1   32    1     -0.01      0.00
    2   32    1      0.25      0.00
    3   32    1      0.12      0.00
    4   32    1      0.03      0.00
    5   32    1      0.18      0.00
    6   32    1     -0.05      0.00
   -5   33    1      0.56      0.00
   -4   33    1      0.28      0.00
   -3   33    1     -0.11      0.00
   -2   33    1     -0.19      0.00
   -1   33    1     -0.07      0.00
    0   33    1     -0.07      0.00
    1   33    1     -0.13      0.00
    2   33    1     -0.25      0.00
    3   33    1     -0.21      0.00
    4   33    1     -0.03      0.00
    5   33    1      0.00      0.00
   -4   34    1     -0.07      0.00
   -3   34    1     -0.10      0.00
   -2   34    1      0.37      0.00
   -1   34    1      0.59      0.00
    0   34    1     -0.16      0.00
    1   34    1     -0.24      0.00
    2   34    1      0.24      0.00
    3   34    1      0.40      0.00
    4   34    1      0.11      0.00
   -3   35    1      0.20      0.00
   -2   35    1     -0.09      0.00
   -1   35    1     -0.14      0.00
    0   35    1     -0.07      0.00
    1   35    1     -0.07      0.00
    2   35    1     -0.28      0.00
    3   35    1     -0.37      0.00
  -14    0    2      0.46      0.00
  -13    0    2      0.31      0.00
  -12    0    2     -0.10      0.00
  -11    0    2      0.31      0.00
  -10    0    2      1.70      0.00
   -9    0    2      1.42      0.00
   -8    0    2     -0.61      0.00
   -7    0    2     -1.02      0.00
   -6    0    2     -3.27      0.00
   -5    0    2     -5.87      0.00
   -4    0    2     -2.37      0.00
   -3    0    2      5.23      0.00
   -2    0    2      8.03      0.00
   -1    0    2     10.25      0.00
    0    0    2     22.40      0.00
    1    0    2     18.65      0.00
    2    0    2     -2.17      0.00
    3    0    2     -9.44      0.00
    4    0    2     -4.19      0.00
    5    0    2     -0.73      0.00
    6    0    2     -1.37      0.00
    7    0    2     -1.38      0.00
    8    0    2     -0.05      0.00
    9    0    2      0.66      0.00
   10    0    2      1.41      0.00
   11    0    2      0.66      0.00
   12    0    2     -0.58      0.00
   13    0    2      1.20      0.00
   14    0    2      0.81      0.00
  -14    1    2      0.18      0.00
  -13    1    2      0.30      0.00
  -12    1    2      0.22      0.00
  -11    1    2     -0.33      0.00
  -10    1    2     -0.45      0.00
   -9    1    2     -0.36      0.00
   -8    1    2     -0.48      0.00
   -7    1    2     -0.68      0.00
   -6    1    2     -0.70      0.00
   -5    1    2      0.05      0.00
   -4    1    2      1.56      0.00
   -3    1    2      1.49      0.00
   -2    1    2      0.26      0.00
   -1    1    2     -0.63      0.00
    0    1    2      1.24      0.00
    1    1    2      3.24      0.00
    2    1    2      0.49      0.00
    3    1    2     -2.19      0.00
    4    1    2     -1.52      0.00
    5    1    2      0.09      0.00
    6    1    2      0.28      0.00
    7    1    2      0.05      0.00
    8    1    2      0.37      0.00
    9    1    2      0.33      0.00
   10    1    2      0.09      0.00
   11    1    2      0.28      0.00
   12    1    2     -0.08      0.00
   13    1    2     -0.24      0.00
   14    1    2      0.30      0.00
  -14    2    2      0.26      0.00
  -13    2    2      0.33      0.00
  -12    2    2      0.23      0.00
  -11    2    2      0.33      0.00
  -10    2    2      1.08      0.00
   -9    2    2      0.77      0.00
   -8    2    2     -0.65      0.00
   -7    2    2     -0.35      0.00
   -6    2    2     -2.47      0.00
   -5    2    2     -5.61      0.00
   -4    2    2     -1.86      0.00
   -3    2    2      6.36      0.00
   -2    2    2      8.19      0.00
   -1    2    2      6.85      0.00
    0    2    2     15.17      0.00
    1    2    2     14.01      0.00
    2    2    2     -1.33      0.00
    3    2    2     -7.67      0.00
    4    2    2     -4.18      0.00
    5    2    2     -0.83      0.00
    6    2    2     -0.45      0.00
    7    2    2     -0.78      0.00
    8    2    2     -0.18      0.00
    9    2    2      0.44      0.00
   10    2    2      1.22      0.00
   11    2    2      0.77      0.00
   12    2    2     -0.20      0.00
   13    2    2      1.00      0.00
   14    2    2      0.46      0.00
  -14    3    2      0.31      0.00
  -13    3    2      0.36      0.00
  -12    3    2      0.22      0.00
  -11    3    2     -0.73      0.00
  -10    3    2     -0.81      0.00
   -9    3    2     -0.75      0.00
   -8    3    2     -1.31      0.00
   -7    3    2     -1.56      0.00
   -6    3    2     -1.12      0.00
   -5    3    2      0.11      0.00
   -4    3    2      2.50      0.00
   -3    3    2      2.44      0.00
   -2    3    2      1.07      0.00
   -1    3    2     -0.11      0.00
    0    3    2      3.06      0.00
    1    3    2      6.41      0.00
    2    3    2      0.87      0.00
    3    3    2     -3.80      0.00
    4    3    2     -2.65      0.00
    5    3    2     -0.29      0.00
    6    3    2      0.02      0.00
    7    3    2      0.18      0.00
    8    3    2      1.02      0.00
    9    3    2      0.58      0.00
   10    3    2     -0.03      0.00
   11    3    2      0.70      0.00
   12    3    2      0.16      0.00
   13    3    2     -0.29      0.00
   14    3    2      0.70      0.00
  -14    4    2     -0.04      0.00
  -13    4    2      0.34      0.00
  -12    4    2      0.78      0.00
  -11    4    2      0.21      0.00
  -10    4    2     -0.19      0.00
   -9    4    2     -0.34      0.00
   -8    4    2     -0.75      0.00
   -7    4    2      0.67      0.00
   -6    4    2     -0.72      0.00
   -5    4    2     -4.26      0.00
   -4    4    2     -0.68      0.00
   -3    4    2      7.39      0.00
   -2    4    2      7.44      0.00
   -1    4    2      0.51      0.00
    0    4    2      1.15      0.00
    1    4    2      4.04      0.00
    2    4    2     -0.45      0.00
    3    4    2     -4.09      0.00
    4    4    2     -3.51      0.00
    5    4    2     -0.68      0.00
    6    4    2      1.27      0.00
    7    4    2      0.28      0.00
    8    4    2     -0.35      0.00
    9    4    2      0.10      0.00
   10    4    2      0.74      0.00
   11    4    2      0.75      0.00
   12    4    2      0.47      0.00
   13    4    2      0.64      0.00
  -14    5    2      0.05      0.00
  -13    5    2     -0.25      0.00
  -12    5    2     -0.22      0.00
  -11    5    2     -0.62      0.00
  -10    5    2     -0.40      0.00
   -9    5    2     -0.51      0.00
   -8    5    2     -1.49      0.00
   -7    5    2     -1.39      0.00
   -6    5    2     -0.06      0.00
   -5    5    2      0.00      0.00
   -4    5    2     -0.04      0.00
   -3    5    2     -0.17      0.00
   -2    5    2      1.36      0.00
   -1    5    2      2.55      0.00
    0    5    2      3.76      0.00
    1    5    2      4.20      0.00
    2    5    2      0.52      0.00
    3    5    2     -0.65      0.00
    4    5    2     -0.51      0.00
    5    5    2     -1.40      0.00
    6    5    2     -1.37      0.00
    7    5    2      0.41      0.00
    8    5    2      1.36      0.00
    9    5    2      0.14      0.00
   10    5    2     -0.56      0.00
   11    5    2      0.72      0.00
   12    5    2      0.78      0.00
   13    5    2      0.18      0.00
  -14    6    2     -0.10      0.00
  -13    6    2      0.30      0.00
  -12    6    2      0.98      0.00
  -11    6    2     -0.12      0.00
  -10    6    2     -0.94      0.00
   -9    6    2     -0.55      0.00
   -8    6    2     -0.76      0.00
   -7    6    2      0.49      0.00
   -6    6    2      0.59      0.00
   -5    6    2     -1.39      0.00
   -4    6    2      0.53      0.00
   -3    6    2      5.03      0.00
   -2    6    2      4.35      0.00
   -1    6    2     -2.30      0.00
    0    6    2     -6.40      0.00
    1    6    2     -3.68      0.00
    2    6    2     -1.75      0.00
    3    6    2     -1.52      0.00
    4    6    2     -1.38      0.00
    5    6    2      0.16      0.00
    6    6    2      1.86      0.00
    7    6    2      0.53      0.00
    8    6    2     -0.12      0.00
    9    6    2      0.22      0.00
   10    6    2      0.27      0.00
   11    6    2      0.19      0.00
   12    6    2      0.62      0.00
   13    6    2      0.45      0.00
  -14    7    2     -0.13      0.00
  -13    7    2     -0.51      0.00
  -12    7    2     -0.29      0.00
  -11    7    2     -0.21      0.00
  -10    7    2     -0.11      0.00
   -9    7    2      0.01      0.00
   -8    7    2     -0.53      0.00
   -7    7    2     -0.41      0.00
   -6    7    2      0.80      0.00
   -5    7    2     -0.31      0.00
   -4    7    2     -2.65      0.00
   -3    7    2     -3.61      0.00
   -2    7    2     -0.80      0.00
   -1    7    2      3.55      0.00
    0    7    2      4.11      0.00
    1    7    2      1.20      0.00
    2    7    2      0.39      0.00
    3    7    2      3.48      0.00
    4    7    2      2.46      0.00
    5    7    2     -2.06      0.00
    6    7    2     -2.43      0.00
    7    7    2      0.60      0.00
    8    7    2      1.27      0.00
    9    7    2     -0.42      0.00
   10    7    2     -0.97      0.00
   11    7    2      0.28      0.00
   12    7    2      0.89      0.00
   13    7    2      0.38      0.00
  -14    8    2     -0.07      0.00
  -13    8    2      0.20      0.00
  -12    8    2      0.96      0.00
  -11    8    2     -0.21      0.00
  -10    8    2     -0.74      0.00
   -9    8    2      0.16      0.00
   -8    8    2     -0.59      0.00
   -7    8    2     -0.74      0.00
   -6    8    2      0.66      0.00
   -5    8    2      1.50      0.00
   -4    8    2      1.21      0.00
   -3    8    2      0.50      0.00
   -2    8    2      0.45      0.00
   -1    8    2     -0.40      0.00
    0    8    2     -4.03      0.00
    1    8    2     -5.39      0.00
    2    8    2     -4.01      0.00
    3    8    2     -0.44      0.00
    4    8    2      1.32      0.00
    5    8    2      0.89      0.00
    6    8    2      0.70      0.00
    7    8    2     -0.13      0.00
    8    8    2      0.47      0.00
    9    8    2      0.72      0.00
   10    8    2      0.13      0.00
   11    8    2     -0.47      0.00
   12    8    2      0.15      0.00
   13    8    2      0.48      0.00
  -14    9    2      0.04      0.00
  -13    9    2      0.05      0.00
  -12    9    2      0.30      0.00
  -11    9    2      0.08      0.00
  -10    9    2     -0.65      0.00
   -9    9    2      0.20      0.00
   -8    9    2      1.17      0.00
   -7    9    2      0.76      0.00
   -6    9    2      0.06      0.00
   -5    9    2     -0.89      0.00
   -4    9    2     -2.13      0.00
   -3    9    2     -4.29      0.00
   -2    9    2     -4.72      0.00
   -1    9    2      0.88      0.00
    0    9    2      4.73      0.00
    1    9    2      1.61      0.00
    2    9    2      0.65      0.00
    3    9    2      4.05      0.00
    4    9    2      3.52      0.00
    5    9    2     -1.20      0.00
    6    9    2     -2.07      0.00
    7    9    2      0.36      0.00
    8    9    2      0.79      0.00
    9    9    2     -0.45      0.00
   10    9    2     -0.74      0.00
   11    9    2     -0.16      0.00
   12    9    2      0.22      0.00
   13    9    2     -0.03      0.00
  -14   10    2     -0.26      0.00
  -13   10    2      0.17      0.00
  -12   10    2      1.14      0.00
  -11   10    2      0.23      0.00
  -10   10    2     -0.19      0.00
   -9   10    2      0.55      0.00
   -8   10    2     -0.35      0.00
   -7   10    2     -1.38      0.00
   -6   10    2     -0.05      0.00
   -5   10    2      2.13      0.00
   -4   10    2      0.92      0.00
   -3   10    2     -2.05      0.00
   -2   10    2     -1.15      0.00
   -1   10    2      2.07      0.00
    0   10    2      0.90      0.00
    1   10    2     -2.99      0.00
    2   10    2     -3.88      0.00
    3   10    2      0.45      0.00
    4   10    2      2.38      0.00
    5   10    2      0.40      0.00
    6   10    2     -0.80      0.00
    7   10    2     -0.71      0.00
    8   10    2      0.69      0.00
    9   10    2      0.76      0.00
   10   10    2      0.28      0.00
   11   10    2     -0.48      0.00
   12   10    2     -0.35      0.00
   13   10    2      0.48      0.00
  -14   11    2      0.26      0.00
  -13   11    2      0.57      0.00
  -12   11    2      0.76      0.00
  -11   11    2      0.11      0.00
  -10   11    2     -1.42      0.00
   -9   11    2     -0.14      0.00
   -8   11    2      2.23      0.00
   -7   11    2      1.53      0.00
   -6   11    2     -1.38      0.00
   -5   11    2     -1.51      0.00
   -4   11    2      0.30      0.00
   -3   11    2     -2.16      0.00
   -2   11    2     -6.78      0.00
   -1   11    2     -2.42      0.00
    0   11    2      4.96      0.00
    1   11    2      3.75      0.00
    2   11    2      0.44      0.00
    3   11    2      1.34      0.00
    4   11    2      2.78      0.00
    5   11    2      0.52      0.00
    6   11    2     -0.98      0.00
    7   11    2     -0.32      0.00
    8   11    2      0.28      0.00
    9   11    2     -0.01      0.00
   10   11    2     -0.10      0.00
   11   11    2     -0.06      0.00
   12   11    2     -0.32      0.00
   13   11    2     -0.41      0.00
  -14   12    2     -0.46      0.00
  -13   12    2      0.31      0.00
  -12   12    2      1.33      0.00
  -11   12    2      0.64      0.00
  -10   12    2     -0.06      0.00
   -9   12    2      0.01      0.00
   -8   12    2     -0.26      0.00
   -7   12    2     -0.65      0.00
   -6   12    2     -0.47      0.00
   -5   12    2      0.43      0.00
   -4   12    2     -0.24      0.00
   -3   12    2     -1.31      0.00
   -2   12    2      0.14      0.00
   -1   12    2      2.06      0.00
    0   12    2      1.94      0.00
    1   12    2     -0.21      0.00
    2   12    2     -0.75      0.00
    3   12    2      1.49      0.00
    4   12    2      0.92      0.00
    5   12    2     -0.91      0.00
    6   12    2     -0.87      0.00
    7   12    2     -0.51      0.00
    8   12    2      0.02      0.00
    9   12    2     -0.11      0.00
   10   12    2      0.31      0.00
   11   12    2      0.18      0.00
   12   12    2     -0.40      0.00
   13   12    2      0.30      0.00
  -13   13    2      0.26      0.00
  -12   13    2      0.43      0.00
  -11   13    2     -0.02      0.00
  -10   13    2     -1.42      0.00
   -9   13    2     -0.54      0.00
   -8   13    2      1.71      0.00
   -7   13    2      1.54      0.00
   -6   13    2     -1.65      0.00
   -5   13    2     -1.60      0.00
   -4   13    2      1.33      0.00
   -3   13    2     -0.24      0.00
   -2   13    2     -4.98      0.00
   -1   13    2     -2.61      0.00
    0   13    2      3.85      0.00
    1   13    2      3.72      0.00
    2   13    2     -0.28      0.00
    3   13    2     -0.73      0.00
    4   13    2      1.87      0.00
    5   13    2      1.29      0.00
    6   13    2     -0.40      0.00
    7   13    2     -0.69      0.00
    8   13    2      0.20      0.00
    9   13    2      0.34      0.00
   10   13    2      0.24      0.00
   11   13    2      0.51      0.00
   12   13    2     -0.01      0.00
   13   13    2     -0.20      0.00
  -13   14    2      0.52      0.00
  -12   14    2      0.96      0.00
  -11   14    2      0.22      0.00
  -10   14    2     -0.37      0.00
   -9   14    2     -0.50      0.00
   -8   14    2     -0.28      0.00
   -7   14    2      0.37      0.00
   -6   14    2     -0.16      0.00
   -5   14    2     -1.16      0.00
   -4   14    2     -1.15      0.00
   -3   14    2      0.08      0.00
   -2   14    2      1.54      0.00
   -1   14    2      0.60      0.00
    0   14    2      0.13      0.00
    1   14    2      0.88      0.00
    2   14    2      2.12      0.00
    3   14    2      1.74      0.00
    4   14    2     -1.25      0.00
    5   14    2     -1.52      0.00
    6   14    2      0.40      0.00
    7   14    2      0.13      0.00
    8   14    2     -0.99      0.00
    9   14    2     -1.11      0.00
   10   14    2      0.09      0.00
   11   14    2      0.82      0.00
   12   14    2     -0.09      0.00
  -13   15    2     -0.40      0.00
  -12   15    2     -0.22      0.00
  -11   15    2     -0.27      0.00
  -10   15    2     -0.70      0.00
   -9   15    2     -0.51      0.00
   -8   15    2      0.27      0.00
   -7   15    2      0.80      0.00
   -6   15    2     -0.57      0.00
   -5   15    2     -0.87      0.00
   -4   15    2      0.30      0.00
   -3   15    2     -0.22      0.00
   -2   15    2     -1.32      0.00
   -1   15    2     -0.21      0.00
    0   15    2      1.67      0.00
    1   15    2      1.24      0.00
    2   15    2     -0.49      0.00
    3   15    2     -0.20      0.00
    4   15    2      1.25      0.00
    5   15    2      0.39      0.00
    6   15    2     -0.41      0.00
    7   15    2     -0.16      0.00
    8   15    2      0.54      0.00
    9   15    2      0.39      0.00
   10   15    2      0.12      0.00
   11   15    2      0.91      0.00
   12   15    2      0.70      0.00
  -13   16    2      0.57      0.00
  -12   16    2      0.16      0.00
  -11   16    2     -0.77      0.00
  -10   16    2     -0.60      0.00
   -9   16    2     -0.03      0.00
   -8   16    2     -0.12      0.00
   -7   16    2      0.37      0.00
   -6   16    2      0.21      0.00
   -5   16    2     -0.77      0.00
   -4   16    2     -0.67      0.00
   -3   16    2     -0.09      0.00
   -2   16    2      0.77      0.00
   -1   16    2     -0.12      0.00
    0   16    2     -0.68      0.00
    1   16    2      0.27      0.00
    2   16    2      1.99      0.00
    3   16    2      1.13      0.00
    4   16    2     -1.69      0.00
    5   16    2     -0.93      0.00
    6   16    2      1.34      0.00
    7   16    2      0.55      0.00
    8   16    2     -1.22      0.00
    9   16    2     -1.19      0.00
   10   16    2     -0.09      0.00
   11   16    2      0.95      0.00
   12   16    2      0.22      0.00
  -13   17    2     -0.49      0.00
  -12   17    2     -0.35      0.00
  -11   17    2     -0.60      0.00
  -10   17    2     -0.19      0.00
   -9   17    2     -0.04      0.00
   -8   17    2     -0.55      0.00
   -7   17    2     -0.17      0.00
   -6   17    2      0.35      0.00
   -5   17    2      0.07      0.00
   -4   17    2     -0.61      0.00
   -3   17    2     -0.66      0.00
   -2   17    2      1.09      0.00
   -1   17    2      1.55      0.00
    0   17    2     -0.15      0.00
    1   17    2     -0.72      0.00
    2   17    2      0.07      0.00
    3   17    2      0.95      0.00
    4   17    2      0.36      0.00
    5   17    2     -0.85      0.00
    6   17    2     -0.25      0.00
    7   17    2      0.65      0.00
    8   17    2      0.67      0.00
    9   17    2      0.33      0.00
   10   17    2     -0.05      0.00
   11   17    2      0.65      0.00
   12   17    2      0.90      0.00
  -12   18    2     -0.28      0.00
  -11   18    2     -1.27      0.00
  -10   18    2     -0.52      0.00
   -9   18    2      0.92      0.00
   -8   18    2      0.26      0.00
   -7   18    2     -0.46      0.00
   -6   18    2     -0.02      0.00
   -5   18    2      0.65      0.00
   -4   18    2      0.83      0.00
   -3   18    2     -0.96      0.00
   -2   18    2     -1.15      0.00
   -1   18    2      0.17      0.00
    0   18    2      0.12      0.00
    1   18    2     -0.94      0.00
    2   18    2     -0.09      0.00
    3   18    2      0.72      0.00
    4   18    2     -0.27      0.00
    5   18    2     -0.20      0.00
    6   18    2      0.95      0.00
    7   18    2      0.62      0.00
    8   18    2     -0.55      0.00
    9   18    2     -0.50      0.00
   10   18    2     -0.01      0.00
   11   18    2      0.68      0.00
   12   18    2      0.35      0.00
  -12   19    2      0.12      0.00
  -11   19    2     -0.75      0.00
  -10   19    2     -0.22      0.00
   -9   19    2      0.45      0.00
   -8   19    2     -0.19      0.00
   -7   19    2     -0.64      0.00
   -6   19    2      0.21      0.00
   -5   19    2      0.28      0.00
   -4   19    2     -0.24      0.00
   -3   19    2      0.09      0.00
   -2   19    2      1.57      0.00
   -1   19    2      1.21      0.00
    0   19    2     -0.71      0.00
    1   19    2     -0.58      0.00
    2   19    2      0.47      0.00
    3   19    2      0.58      0.00
    4   19    2     -0.60      0.00
    5   19    2     -0.80      0.00
    6   19    2      0.27      0.00
    7   19    2      0.70      0.00
    8   19    2      0.26      0.00
    9   19    2      0.33      0.00
   10   19    2     -0.07      0.00
   11   19    2     -0.14      0.00
  -12   20    2     -0.05      0.00
  -11   20    2     -0.82      0.00
  -10   20    2     -0.38      0.00
   -9   20    2      1.12      0.00
   -8   20    2      0.54      0.00
   -7   20    2     -0.84      0.00
   -6   20    2     -0.46      0.00
   -5   20    2      1.14      0.00
   -4   20    2      1.64      0.00
   -3   20    2     -0.87      0.00
   -2   20    2     -1.76      0.00
   -1   20    2      0.44      0.00
    0   20    2      0.65      0.00
    1   20    2     -1.56      0.00
    2   20    2     -1.35      0.00
    3   20    2      0.89      0.00
    4   20    2      0.94      0.00
    5   20    2     -0.23      0.00
    6   20    2      0.08      0.00
    7   20    2      0.61      0.00
    8   20    2      0.08      0.00
    9   20    2     -0.07      0.00
   10   20    2      0.17      0.00
   11   20    2      0.32      0.00
  -12   21    2      0.49      0.00
  -11   21    2     -0.48      0.00
  -10   21    2     -0.16      0.00
   -9   21    2      0.63      0.00
   -8   21    2      0.36      0.00
   -7   21    2     -0.50      0.00
   -6   21    2     -0.23      0.00
   -5   21    2     -0.19      0.00
   -4   21    2      0.19      0.00
   -3   21    2      1.19      0.00
   -2   21    2      1.34      0.00
   -1   21    2      0.14      0.00
    0   21    2     -0.47      0.00
    1   21    2      0.42      0.00
    2   21    2      0.29      0.00
    3   21    2     -0.62      0.00
    4   21    2     -0.77      0.00
    5   21    2      0.37      0.00
    6   21    2      0.62      0.00
    7   21    2      0.05      0.00
    8   21    2     -0.24      0.00
    9   21    2      0.25      0.00
   10   21    2     -0.17      0.00
   11   21    2     -0.88      0.00
  -11   22    2     -0.12      0.00
  -10   22    2     -0.34      0.00
   -9   22    2      0.44      0.00
   -8   22    2      0.47      0.00
   -7   22    2     -0.31      0.00
   -6   22    2     -0.32      0.00
   -5   22    2      0.57      0.00
   -4   22    2      0.96      0.00
   -3   22    2      0.00      0.00
   -2   22    2     -0.65      0.00
   -1   22    2      0.27      0.00
    0   22    2      0.13      0.00
    1   22    2     -1.23      0.00
    2   22    2     -1.03      0.00
    3   22    2      0.81      0.00
    4   22    2      0.63      0.00
    5   22    2     -0.61      0.00
    6   22    2     -0.08      0.00
    7   22    2      0.60      0.00
    8   22    2      0.08      0.00
    9   22    2     -0.20      0.00
   10   22    2      0.23      0.00
  -11   23    2     -0.04      0.00
  -10   23    2      0.33      0.00
   -9   23    2      0.50      0.00
   -8   23    2      0.10      0.00
   -7   23    2     -0.34      0.00
   -6   23    2     -0.06      0.00
   -5   23    2     -0.42      0.00
   -4   23    2     -0.38      0.00
   -3   23    2      0.99      0.00
   -2   23    2      1.18      0.00
   -1   23    2     -0.17      0.00
    0   23    2     -0.32      0.00
    1   23    2      0.76      0.00
    2   23    2      0.26      0.00
    3   23    2     -0.82      0.00
    4   23    2     -0.25      0.00
    5   23    2      1.03      0.00
    6   23    2      0.54      0.00
    7   23    2     -0.28      0.00
    8   23    2     -0.29      0.00
    9   23    2     -0.06      0.00
   10   23    2     -0.38      0.00
  -11   24    2      0.02      0.00
  -10   24    2     -0.30      0.00
   -9   24    2     -0.15      0.00
   -8   24    2      0.20      0.00
   -7   24    2      0.27      0.00
   -6   24    2      0.30      0.00
   -5   24    2      0.22      0.00
   -4   24    2     -0.12      0.00
   -3   24    2      0.42      0.00
   -2   24    2      0.55      0.00
   -1   24    2      0.04      0.00
    0   24    2     -0.46      0.00
    1   24    2     -0.53      0.00
    2   24    2     -0.42      0.00
    3   24    2      0.11      0.00
    4   24    2     -0.35      0.00
    5   24    2     -0.62      0.00
    6   24    2      0.31      0.00
    7   24    2      0.44      0.00
    8   24    2     -0.08      0.00
    9   24    2     -0.27      0.00
   10   24    2      0.07      0.00
  -10   25    2      0.70      0.00
   -9   25    2      0.32      0.00
   -8   25    2     -0.61      0.00
   -7   25    2     -0.48      0.00
   -6   25    2      0.39      0.00
   -5   25    2      0.02      0.00
   -4   25    2     -1.14      0.00
   -3   25    2     -0.25      0.00
   -2   25    2      0.97      0.00
   -1   25    2      0.15      0.00
    0   25    2     -0.47      0.00
    1   25    2      0.50      0.00
    2   25    2      0.86      0.00
    3   25    2      0.05      0.00
    4   25    2     -0.05      0.00
    5   25    2      0.47      0.00
    6   25    2      0.35      0.00
    7   25    2     -0.01      0.00
    8   25    2     -0.12      0.00
    9   25    2     -0.36      0.00
  -10   26    2     -0.23      0.00
   -9   26    2     -0.14      0.00
   -8   26    2      0.01      0.00
   -7   26    2      0.19      0.00
   -6   26    2      0.52      0.00
   -5   26    2      0.51      0.00
   -4   26    2     -0.32      0.00
   -3   26    2      0.17      0.00
   -2   26    2      0.68      0.00
   -1   26    2      0.00      0.00
    0   26    2     -0.40      0.00
    1   26    2     -0.16      0.00
    2   26    2     -0.38      0.00
    3   26    2     -0.43      0.00
    4   26    2     -0.62      0.00
    5   26    2     -0.36      0.00
    6   26    2      0.38      0.00
    7   26    2      0.22      0.00
    8   26    2      0.16      0.00
    9   26    2     -0.04      0.00
   -9   27    2      0.20      0.00
   -8   27    2     -0.76      0.00
   -7   27    2     -0.57      0.00
   -6   27    2      0.31      0.00
   -5   27    2      0.45      0.00
   -4   27    2     -0.97      0.00
   -3   27    2     -0.88      0.00
   -2   27    2      0.60      0.00
   -1   27    2      0.31      0.00
    0   27    2     -0.54      0.00
    1   27    2      0.28      0.00
    2   27    2      1.37      0.00
    3   27    2      0.65      0.00
    4   27    2     -0.36      0.00
    5   27    2     -0.36      0.00
    6   27    2      0.30      0.00
    7   27    2      0.18      0.00
    8   27    2     -0.24      0.00
    9   27    2     -0.34      0.00
   -9   28    2      0.01      0.00
   -8   28    2     -0.04      0.00
   -7   28    2     -0.16      0.00
   -6   28    2      0.11      0.00
   -5   28    2      0.63      0.00
   -4   28    2      0.17      0.00
   -3   28    2      0.00      0.00
   -2   28    2      0.20      0.00
   -1   28    2     -0.10      0.00
    0   28    2     -0.11      0.00
    1   28    2     -0.12      0.00
    2   28    2     -0.49      0.00
    3   28    2     -0.30      0.00
    4   28    2     -0.23      0.00
    5   28    2     -0.28      0.00
    6   28    2      0.11      0.00
    7   28    2      0.29      0.00
    8   28    2      0.54      0.00
   -8   29    2     -0.27      0.00
   -7   29    2     -0.25      0.00
   -6   29    2     -0.21      0.00
   -5   29    2      0.20      0.00
   -4   29    2     -0.24      0.00
   -3   29    2     -0.39      0.00
   -2   29    2      0.37      0.00
   -1   29    2      0.18      0.00
    0   29    2     -0.34      0.00
    1   29    2      0.23      0.00
    2   29    2      1.11      0.00
    3   29    2      0.49      0.00
    4   29    2     -0.50      0.00
    5   29    2     -0.54      0.00
    6   29    2      0.20      0.00
    7   29    2     -0.10      0.00
    8   29    2     -0.51      0.00
   -8   30    2     -0.09      0.00
   -7   30    2     -0.10      0.00
   -6   30    2     -0.24      0.00
   -5   30    2      0.12      0.00
   -4   30    2      0.40      0.00
   -3   30    2      0.20      0.00
   -2   30    2     -0.07      0.00
   -1   30    2     -0.43      0.00
    0   30    2     -0.08      0.00
    1   30    2     -0.02      0.00
    2   30    2     -0.30      0.00
    3   30    2     -0.08      0.00
    4   30    2     -0.04      0.00
    5   30    2     -0.27      0.00
    6   30    2      0.13      0.00
    7   30    2      0.55      0.00
   -7   31    2      0.14      0.00
   -6   31    2     -0.45      0.00
   -5   31    2     -0.37      0.00
   -4   31    2      0.06      0.00
   -3   31    2      0.23      0.00
   -2   31    2      0.41      0.00
   -1   31    2      0.14      0.00
    0   31    2     -0.07      0.00
    1   31    2      0.10      0.00
    2   31    2      0.45      0.00
    3   31    2      0.23      0.00
    4   31    2     -0.22      0.00
    5   31    2     -0.35      0.00
    6   31    2     -0.09      0.00
   -6   32    2     -0.10      0.00
   -5   32    2     -0.38      0.00
   -4   32    2      0.15      0.00
   -3   32    2      0.34      0.00
   -2   32    2     -0.10      0.00
   -1   32    2     -0.72      0.00
    0   32    2     -0.14      0.00
    1   32    2      0.27      0.00
    2   32    2     -0.06      0.00
    3   32    2     -0.29      0.00
    4   32    2     -0.23      0.00
    5   32    2     -0.01      0.00
   -5   33    2     -0.54      0.00
   -4   33    2     -0.19      0.00
   -3   33    2      0.19      0.00
   -2   33    2      0.45      0.00
   -1   33    2      0.26      0.00
    0   33    2      0.03      0.00
    1   33    2     -0.03      0.00
    2   33    2      0.17      0.00
    3   33    2      0.34      0.00
    4   33    2     -0.03      0.00
    5   33    2     -0.39      0.00
   -4   34    2     -0.02      0.00
   -3   34    2      0.15      0.00
   -2   34    2     -0.22      0.00
   -1   34    2     -0.61      0.00
    0   34    2      0.04      0.00
    1   34    2      0.49      0.00
    2   34    2     -0.03      0.00
    3   34    2     -0.56      0.00
   -3   35    2     -0.13      0.00
   -2   35    2      0.26      0.00
   -1   35    2      0.26      0.00
    0   35    2      0.04      0.00
    1   35    2      0.00      0.00
    2   35    2      0.27      0.00
  -14    0    3     -0.04      0.00
  -13    0    3      0.28      0.00
  -12    0    3      0.67      0.00
  -11    0    3     -0.08      0.00
  -10    0    3     -1.95      0.00
   -9    0    3     -1.90      0.00
   -8    0    3      1.15      0.00
   -7    0    3      1.91      0.00
   -6    0    3      0.82      0.00
   -5    0    3      2.74      0.00
   -4    0    3      3.45      0.00
   -3    0    3     -3.00      0.00
   -2    0    3    -11.23      0.00
   -1    0    3    -10.79      0.00
    0    0    3    -10.91      0.00
    1    0    3    -10.23      0.00
    2    0    3     -1.37      0.00
    3    0    3      5.05      0.00
    4    0    3      4.44      0.00
    5    0    3      1.49      0.00
    6    0    3      0.01      0.00
    7    0    3      0.38      0.00
    8    0    3      0.26      0.00
    9    0    3     -0.18      0.00
   10    0    3     -0.51      0.00
   11    0    3     -0.97      0.00
   12    0    3      0.05      0.00
   13    0    3     -0.61      0.00
  -14    1    3     -0.38      0.00
  -13    1    3     -0.34      0.00
  -12    1    3     -0.14      0.00
  -11    1    3      0.33      0.00
  -10    1    3      0.46      0.00
   -9    1    3      0.24      0.00
   -8    1    3      0.29      0.00
   -7    1    3      0.82      0.00
   -6    1    3      1.00      0.00
   -5    1    3     -0.22      0.00
   -4    1    3     -2.03      0.00
   -3    1    3     -1.24      0.00
   -2    1    3      0.34      0.00
   -1    1    3     -0.31      0.00
    0    1    3     -2.40      0.00
    1    1    3     -2.78      0.00
    2    1    3      0.23      0.00
    3    1    3      2.02      0.00
    4    1    3      1.07      0.00
    5    1    3     -0.15      0.00
    6    1    3     -0.11      0.00
    7    1    3      0.17      0.00
    8    1    3     -0.32      0.00
    9    1    3     -0.59      0.00
   10    1    3     -0.14      0.00
   11    1    3     -0.03      0.00
   12    1    3      0.09      0.00
   13    1    3      0.17      0.00
  -14    2    3      0.04      0.00
  -13    2    3      0.07      0.00
  -12    2    3      0.31      0.00
  -11    2    3     -0.06      0.00
  -10    2    3     -1.20      0.00
   -9    2    3     -1.09      0.00
   -8    2    3      1.10      0.00
   -7    2    3      1.09      0.00
   -6    2    3      0.34      0.00
   -5    2    3      2.91      0.00
   -4    2    3      2.57      0.00
   -3    2    3     -4.73      0.00
   -2    2    3    -10.62      0.00
   -1    2    3     -7.01      0.00
    0    2    3     -5.84      0.00
    1    2    3     -7.33      0.00
    2    2    3     -1.45      0.00
    3    2    3      4.36      0.00
    4    2    3      4.35      0.00
    5    2    3      1.32      0.00
    6    2    3     -0.79      0.00
    7    2    3     -0.06      0.00
    8    2    3      0.51      0.00
    9    2    3     -0.01      0.00
   10    2    3     -0.50      0.00
   11    2    3     -1.00      0.00
   12    2    3     -0.20      0.00
   13    2    3     -0.49      0.00
  -14    3    3     -0.73      0.00
  -13    3    3     -0.44      0.00
  -12    3    3     -0.07      0.00
  -11    3    3      0.72      0.00
  -10    3    3      0.83      0.00
   -9    3    3      0.49      0.00
   -8    3    3      0.84      0.00
   -7    3    3      1.84      0.00
   -6    3    3      1.85      0.00
   -5    3    3     -0.34      0.00
   -4    3    3     -3.54      0.00
   -3    3    3     -2.22      0.00
   -2    3    3      0.06      0.00
   -1    3    3     -1.75      0.00
    0    3    3     -5.53      0.00
    1    3    3     -5.71      0.00
    2    3    3      0.63      0.00
    3    3    3      3.81      0.00
    4    3    3      1.84      0.00
    5    3    3     -0.02      0.00
    6    3    3      0.28      0.00
    7    3    3      0.45      0.00
    8    3    3     -0.80      0.00
    9    3    3     -1.26      0.00
   10    3    3     -0.21      0.00
   11    3    3     -0.11      0.00
   12    3    3     -0.03      0.00
   13    3    3      0.16      0.00
  -14    4    3      0.09      0.00
  -13    4    3     -0.33      0.00
  -12    4    3     -0.29      0.00
  -11    4    3      0.07      0.00
  -10    4    3      0.28      0.00
   -9    4    3      0.37      0.00
   -8    4    3      1.02      0.00
   -7    4    3     -0.26      0.00
   -6    4    3     -0.67      0.00
   -5    4    3      2.54      0.00
   -4    4    3      0.60      0.00
   -3    4    3     -7.05      0.00
   -2    4    3     -8.19      0.00
   -1    4    3      0.12      0.00
    0    4    3      3.45      0.00
    1    4    3     -1.17      0.00
    2    4    3     -0.71      0.00
    3    4    3      3.09      0.00
    4    4    3      3.48      0.00
    5    4    3      0.56      0.00
    6    4    3     -2.27      0.00
    7    4    3     -0.77      0.00
    8    4    3      0.95      0.00
    9    4    3      0.28      0.00
   10    4    3     -0.41      0.00
   11    4    3     -0.85      0.00
   12    4    3     -0.57      0.00
   13    4    3     -0.26      0.00
  -14    5    3     -0.36      0.00
  -13    5    3      0.28      0.00
  -12    5    3      0.37      0.00
  -11    5    3      0.55      0.00
  -10    5    3      0.36      0.00
   -9    5    3      0.31      0.00
   -8    5    3      1.02      0.00
   -7    5    3      1.49      0.00
   -6    5    3      0.73      0.00
   -5    5    3      0.17      0.00
   -4    5    3     -0.71      0.00
   -3    5    3     -0.58      0.00
   -2    5    3     -1.18      0.00
   -1    5    3     -3.52      0.00
    0    5    3     -5.42      0.00
    1    5    3     -4.44      0.00
    2    5    3      0.48      0.00
    3    5    3      1.78      0.00
    4    5    3      0.37      0.00
    5    5    3      0.64      0.00
    6    5    3      1.41      0.00
    7    5    3      0.48      0.00
    8    5    3     -0.92      0.00
    9    5    3     -0.92      0.00
   10    5    3      0.05      0.00
   11    5    3     -0.13      0.00
   12    5    3     -0.44      0.00
   13    5    3     -0.26      0.00
  -14    6    3     -0.07      0.00
  -13    6    3     -0.49      0.00
  -12    6    3     -0.47      0.00
  -11    6    3      0.28      0.00
  -10    6    3      1.11      0.00
   -9    6    3      0.88      0.00
   -8    6    3      0.91      0.00
   -7    6    3     -0.39      0.00
   -6    6    3     -1.29      0.00
   -5    6    3      0.63      0.00
   -4    6    3     -1.18      0.00
   -3    6    3     -5.68      0.00
   -2    6    3     -3.75      0.00
   -1    6    3      3.46      0.00
    0    6    3      7.03      0.00
    1    6    3      3.44      0.00
    2    6    3      1.76      0.00
    3    6    3      2.23      0.00
    4    6    3      1.20      0.00
    5    6    3     -0.74      0.00
    6    6    3     -2.68      0.00
    7    6    3     -0.77      0.00
    8    6    3      1.00      0.00
    9    6    3      0.24      0.00
   10    6    3     -0.23      0.00
   11    6    3     -0.34      0.00
   12    6    3     -0.50      0.00
   13    6    3     -0.06      0.00
  -14    7    3      0.12      0.00
  -13    7    3      0.71      0.00
  -12    7    3      0.48      0.00
  -11    7    3      0.12      0.00
  -10    7    3     -0.08      0.00
   -9    7    3     -0.03      0.00
   -8    7    3      0.34      0.00
   -7    7    3      0.14      0.00
   -6    7    3     -0.66      0.00
   -5    7    3      1.05      0.00
   -4    7    3      2.86      0.00
   -3    7    3      1.64      0.00
   -2    7    3     -0.84      0.00
   -1    7    3     -2.83      0.00
    0    7    3     -3.73      0.00
    1    7    3     -2.73      0.00
    2    7    3     -0.51      0.00
    3    7    3     -1.01      0.00
    4    7    3     -1.49      0.00
    5    7    3      0.87      0.00
    6    7    3      2.01      0.00
    7    7    3      0.21      0.00
    8    7    3     -0.77      0.00
    9    7    3     -0.20      0.00
   10    7    3      0.35      0.00
   11    7    3      0.07      0.00
   12    7    3     -0.44      0.00
   13    7    3     -0.40      0.00
  -14    8    3     -0.16      0.00
  -13    8    3     -0.26      0.00
  -12    8    3     -0.37      0.00
  -11    8    3      0.15      0.00
  -10    8    3      0.80      0.00
   -9    8    3      0.27      0.00
   -8    8    3      0.69      0.00
   -7    8    3      0.69      0.00
   -6    8    3     -0.97      0.00
   -5    8    3     -1.80      0.00
   -4    8    3     -1.97      0.00
   -3    8    3     -1.18      0.00
   -2    8    3      0.65      0.00
   -1    8    3      1.44      0.00
    0    8    3      3.28      0.00
    1    8    3      4.24      0.00
    2    8    3      4.17      0.00
    3    8    3      1.41      0.00
    4    8    3     -1.51      0.00
    5    8    3     -1.50      0.00
    6    8    3     -1.42      0.00
    7    8    3     -0.01      0.00
    8    8    3      0.50      0.00
    9    8    3     -0.13      0.00
   10    8    3     -0.13      0.00
   11    8    3      0.15      0.00
   12    8    3      0.01      0.00
   13    8    3      0.11      0.00
  -14    9    3      0.16      0.00
  -13    9    3      0.24      0.00
  -12    9    3      0.01      0.00
  -11    9    3     -0.15      0.00
  -10    9    3      0.25      0.00
   -9    9    3     -0.01      0.00
   -8    9    3     -0.93      0.00
   -7    9    3     -1.31      0.00
   -6    9    3     -0.57      0.00
   -5    9    3      1.92      0.00
   -4    9    3      3.24      0.00
   -3    9    3      1.80      0.00
   -2    9    3      1.74      0.00
   -1    9    3      0.81      0.00
    0    9    3     -2.78      0.00
    1    9    3     -3.60      0.00
    2    9    3     -1.47      0.00
    3    9    3     -1.13      0.00
    4    9    3     -1.95      0.00
    5    9    3     -0.02      0.00
    6    9    3      1.37      0.00
    7    9    3      0.05      0.00
    8    9    3     -0.50      0.00
    9    9    3      0.09      0.00
   10    9    3      0.30      0.00
   11    9    3      0.29      0.00
   12    9    3      0.08      0.00
   13    9    3     -0.02      0.00
  -14   10    3      0.08      0.00
  -13   10    3      0.06      0.00
  -12   10    3     -0.54      0.00
  -11   10    3     -0.44      0.00
  -10   10    3      0.12      0.00
   -9   10    3     -0.26      0.00
   -8   10    3      0.38      0.00
   -7   10    3      1.33      0.00
   -6   10    3     -0.10      0.00
   -5   10    3     -2.43      0.00
   -4   10    3     -1.54      0.00
   -3   10    3      2.07      0.00
   -2   10    3      2.27      0.00
   -1   10    3     -1.61      0.00
    0   10    3     -1.31      0.00
    1   10    3      2.45      0.00
    2   10    3      3.72      0.00
    3   10    3     -0.11      0.00
    4   10    3     -2.64      0.00
    5   10    3     -0.79      0.00
    6   10    3      0.31      0.00
    7   10    3      0.64      0.00
    8   10    3      0.05      0.00
    9   10    3     -0.20      0.00
   10   10    3     -0.10      0.00
   11   10    3      0.09      0.00
   12   10    3      0.39      0.00
   13   10    3      0.26      0.00
  -14   11    3     -0.07      0.00
  -13   11    3     -0.32      0.00
  -12   11    3     -0.40      0.00
  -11   11    3     -0.23      0.00
  -10   11    3      0.86      0.00
   -9   11    3      0.47      0.00
   -8   11    3     -1.65      0.00
   -7   11    3     -2.14      0.00
   -6   11    3      0.50      0.00
   -5   11    3      2.50      0.00
   -4   11    3      1.05      0.00
   -3   11    3      0.02      0.00
   -2   11    3      3.83      0.00
   -1   11    3      3.94      0.00
    0   11    3     -2.83      0.00
    1   11    3     -5.13      0.00
    2   11    3     -1.30      0.00
    3   11    3      0.78      0.00
    4   11    3     -1.39      0.00
    5   11    3     -1.31      0.00
    6   11    3      0.34      0.00
    7   11    3      0.30      0.00
    8   11    3     -0.23      0.00
    9   11    3     -0.14      0.00
   10   11    3      0.01      0.00
   11   11    3      0.14      0.00
   12   11    3      0.34      0.00
  -14   12    3      0.33      0.00
  -13   12    3      0.11      0.00
  -12   12    3     -0.84      0.00
  -11   12    3     -0.82      0.00
  -10   12    3     -0.02      0.00
   -9   12    3      0.04      0.00
   -8   12    3      0.15      0.00
   -7   12    3      0.62      0.00
   -6   12    3      0.37      0.00
   -5   12    3     -0.74      0.00
   -4   12    3     -0.19      0.00
   -3   12    3      1.95      0.00
   -2   12    3      1.00      0.00
   -1   12    3     -2.05      0.00
    0   12    3     -1.97      0.00
    1   12    3      0.35      0.00
    2   12    3      0.67      0.00
    3   12    3     -1.71      0.00
    4   12    3     -1.58      0.00
    5   12    3      0.69      0.00
    6   12    3      0.87      0.00
    7   12    3      0.53      0.00
    8   12    3      0.28      0.00
    9   12    3      0.44      0.00
   10   12    3      0.09      0.00
   11   12    3     -0.45      0.00
   12   12    3      0.27      0.00
  -13   13    3     -0.10      0.00
  -12   13    3     -0.18      0.00
  -11   13    3     -0.27      0.00
  -10   13    3      0.84      0.00
   -9   13    3      0.92      0.00
   -8   13    3     -1.08      0.00
   -7   13    3     -2.06      0.00
   -6   13    3      0.83      0.00
   -5   13    3      2.40      0.00
   -4   13    3     -0.38      0.00
   -3   13    3     -1.23      0.00
   -2   13    3      3.10      0.00
   -1   13    3      3.47      0.00
    0   13    3     -2.45      0.00
    1   13    3     -4.12      0.00
    2   13    3     -0.29      0.00
    3   13    3      1.57      0.00
    4   13    3     -1.03      0.00
    5   13    3     -1.54      0.00
    6   13    3      0.00      0.00
    7   13    3      0.47      0.00
    8   13    3     -0.22      0.00
    9   13    3     -0.41      0.00
   10   13    3     -0.12      0.00
   11   13    3     -0.33      0.00
   12   13    3     -0.11      0.00
  -13   14    3     -0.09      0.00
  -12   14    3     -0.64      0.00
  -11   14    3     -0.31      0.00
  -10   14    3      0.37      0.00
   -9   14    3      0.47      0.00
   -8   14    3      0.06      0.00
   -7   14    3     -0.52      0.00
   -6   14    3      0.02      0.00
   -5   14    3      1.11      0.00
   -4   14    3      0.98      0.00
   -3   14    3      0.55      0.00
   -2   14    3     -0.39      0.00
   -1   14    3     -0.61      0.00
    0   14    3     -0.45      0.00
    1   14    3     -0.70      0.00
    2   14    3     -1.62      0.00
    3   14    3     -2.09      0.00
    4   14    3     -0.02      0.00
    5   14    3      1.41      0.00
    6   14    3      0.17      0.00
    7   14    3     -0.11      0.00
    8   14    3      0.82      0.00
    9   14    3      1.21      0.00
   10   14    3      0.44      0.00
   11   14    3     -0.86      0.00
   12   14    3     -0.20      0.00
  -13   15    3      0.54      0.00
  -12   15    3      0.26      0.00
  -11   15    3     -0.20      0.00
  -10   15    3      0.27      0.00
   -9   15    3      0.77      0.00
   -8   15    3      0.10      0.00
   -7   15    3     -1.16      0.00
   -6   15    3      0.04      0.00
   -5   15    3      1.42      0.00
   -4   15    3      0.08      0.00
   -3   15    3     -0.66      0.00
   -2   15    3      0.62      0.00
   -1   15    3      0.57      0.00
    0   15    3     -1.07      0.00
    1   15    3     -1.07      0.00
    2   15    3      0.21      0.00
    3   15    3      0.32      0.00
    4   15    3     -0.85      0.00
    5   15    3     -0.42      0.00
    6   15    3      0.22      0.00
    7   15    3      0.04      0.00
    8   15    3     -0.47      0.00
    9   15    3     -0.44      0.00
   10   15    3      0.01      0.00
   11   15    3     -0.63      0.00
   12   15    3     -0.75      0.00
  -13   16    3     -0.23      0.00
  -12   16    3      0.01      0.00
  -11   16    3      0.68      0.00
  -10   16    3      0.69      0.00
   -9   16    3      0.18      0.00
   -8   16    3     -0.09      0.00
   -7   16    3     -0.72      0.00
   -6   16    3     -0.48      0.00
   -5   16    3      1.13      0.00
   -4   16    3      0.85      0.00
   -3   16    3      0.23      0.00
   -2   16    3      0.15      0.00
   -1   16    3      0.39      0.00
    0   16    3     -0.08      0.00
    1   16    3     -0.44      0.00
    2   16    3     -0.95      0.00
    3   16    3     -1.36      0.00
    4   16    3      0.09      0.00
    5   16    3      0.93      0.00
    6   16    3     -0.45      0.00
    7   16    3     -0.68      0.00
    8   16    3      0.75      0.00
    9   16    3      1.18      0.00
   10   16    3      0.59      0.00
   11   16    3     -0.83      0.00
   12   16    3     -0.60      0.00
  -13   17    3      0.70      0.00
  -12   17    3      0.23      0.00
  -11   17    3      0.13      0.00
  -10   17    3      0.01      0.00
   -9   17    3      0.05      0.00
   -8   17    3      0.56      0.00
   -7   17    3      0.01      0.00
   -6   17    3     -0.62      0.00
   -5   17    3      0.08      0.00
   -4   17    3      0.68      0.00
   -3   17    3      0.33      0.00
   -2   17    3     -1.14      0.00
   -1   17    3     -1.48      0.00
    0   17    3      0.29      0.00
    1   17    3      0.96      0.00
    2   17    3     -0.12      0.00
    3   17    3     -0.86      0.00
    4   17    3     -0.25      0.00
    5   17    3      0.71      0.00
    6   17    3      0.25      0.00
    7   17    3     -0.55      0.00
    8   17    3     -0.53      0.00
    9   17    3     -0.33      0.00
   10   17    3      0.08      0.00
   11   17    3     -0.39      0.00
  -12   18    3      0.32      0.00
  -11   18    3      1.01      0.00
  -10   18    3      0.66      0.00
   -9   18    3     -0.49      0.00
   -8   18    3     -0.43      0.00
   -7   18    3     -0.06      0.00
   -6   18    3     -0.34      0.00
   -5   18    3     -0.07      0.00
   -4   18    3     -0.41      0.00
   -3   18    3      0.65      0.00
   -2   18    3      1.69      0.00
   -1   18    3      0.37      0.00
    0   18    3     -0.92      0.00
    1   18    3      0.47      0.00
    2   18    3      1.11      0.00
    3   18    3     -0.75      0.00
    4   18    3     -1.04      0.00
    5   18    3      0.27      0.00
    6   18    3     -0.15      0.00
    7   18    3     -0.86      0.00
    8   18    3      0.03      0.00
    9   18    3      0.47      0.00
   10   18    3      0.37      0.00
   11   18    3     -0.54      0.00
  -12   19    3     -0.30      0.00
  -11   19    3      0.44      0.00
  -10   19    3      0.24      0.00
   -9   19    3     -0.65      0.00
   -8   19    3     -0.02      0.00
   -7   19    3      0.73      0.00
   -6   19    3     -0.32      0.00
   -5   19    3     -0.65      0.00
   -4   19    3      0.22      0.00
   -3   19    3      0.16      0.00
   -2   19    3     -1.42      0.00
   -1   19    3     -1.43      0.00
    0   19    3      0.66      0.00
    1   19    3      0.76      0.00
    2   19    3     -0.35      0.00
    3   19    3     -0.38      0.00
    4   19    3      0.46      0.00
    5   19    3      0.52      0.00
    6   19    3     -0.12      0.00
    7   19    3     -0.48      0.00
    8   19    3     -0.11      0.00
    9   19    3     -0.22      0.00
   10   19    3      0.00      0.00
   11   19    3      0.21      0.00
  -12   20    3     -0.03      0.00
  -11   20    3      0.33      0.00
  -10   20    3      0.51      0.00
   -9   20    3     -0.61      0.00
   -8   20    3     -0.79      0.00
   -7   20    3      0.31      0.00
   -6   20    3      0.27      0.00
   -5   20    3     -0.66      0.00
   -4   20    3     -1.34      0.00
   -3   20    3      0.46      0.00
   -2   20    3      2.08      0.00
   -1   20    3      0.18      0.00
    0   20    3     -1.09      0.00
    1   20    3      1.04      0.00
    2   20    3      1.90      0.00
    3   20    3     -0.67      0.00
    4   20    3     -1.62      0.00
    5   20    3      0.16      0.00
    6   20    3      0.37      0.00
    7   20    3     -0.73      0.00
    8   20    3     -0.45      0.00
    9   20    3      0.01      0.00
   10   20    3      0.01      0.00
   11   20    3     -0.22      0.00
  -12   21    3     -0.69      0.00
  -11   21    3      0.34      0.00
  -10   21    3      0.32      0.00
   -9   21    3     -0.83      0.00
   -8   21    3     -0.62      0.00
   -7   21    3      0.72      0.00
   -6   21    3      0.23      0.00
   -5   21    3     -0.52      0.00
   -4   21    3     -0.30      0.00
   -3   21    3     -0.53      0.00
   -2   21    3     -1.13      0.00
   -1   21    3     -0.64      0.00
    0   21    3      0.33      0.00
    1   21    3     -0.14      0.00
    2   21    3     -0.09      0.00
    3   21    3      0.63      0.00
    4   21    3      0.47      0.00
    5   21    3     -0.55      0.00
    6   21    3     -0.48      0.00
    7   21    3      0.10      0.00
    8   21    3      0.41      0.00
    9   21    3      0.00      0.00
   10   21    3      0.02      0.00
  -11   22    3     -0.44      0.00
  -10   22    3      0.42      0.00
   -9   22    3     -0.10      0.00
   -8   22    3     -0.87      0.00
   -7   22    3     -0.11      0.00
   -6   22    3      0.43      0.00
   -5   22    3     -0.32      0.00
   -4   22    3     -1.05      0.00
   -3   22    3     -0.25      0.00
   -2   22    3      0.94      0.00
   -1   22    3      0.23      0.00
    0   22    3     -0.19      0.00
    1   22    3      0.83      0.00
    2   22    3      1.13      0.00
    3   22    3     -0.40      0.00
    4   22    3     -0.83      0.00
    5   22    3      0.31      0.00
    6   22    3      0.25      0.00
    7   22    3     -0.46      0.00
    8   22    3     -0.22      0.00
    9   22    3      0.08      0.00
   10   22    3     -0.18      0.00
  -11   23    3     -0.03      0.00
  -10   23    3     -0.05      0.00
   -9   23    3     -0.50      0.00
   -8   23    3     -0.35      0.00
   -7   23    3      0.41      0.00
   -6   23    3      0.16      0.00
   -5   23    3     -0.22      0.00
   -4   23    3      0.13      0.00
   -3   23    3     -0.32      0.00
   -2   23    3     -0.95      0.00
   -1   23    3     -0.47      0.00
    0   23    3      0.12      0.00
    1   23    3     -0.25      0.00
    2   23    3     -0.03      0.00
    3   23    3      0.51      0.00
    4   23    3      0.04      0.00
    5   23    3     -0.97      0.00
    6   23    3     -0.60      0.00
    7   23    3      0.29      0.00
    8   23    3      0.54      0.00
    9   23    3      0.36      0.00
   10   23    3      0.21      0.00
  -11   24    3     -0.42      0.00
  -10   24    3      0.35      0.00
   -9   24    3      0.25      0.00
   -8   24    3     -0.60      0.00
   -7   24    3     -0.58      0.00
   -6   24    3     -0.08      0.00
   -5   24    3     -0.18      0.00
   -4   24    3     -0.23      0.00
   -3   24    3     -0.49      0.00
   -2   24    3     -0.29      0.00
   -1   24    3      0.21      0.00
    0   24    3      0.58      0.00
    1   24    3      0.33      0.00
    2   24    3      0.33      0.00
    3   24    3      0.29      0.00
    4   24    3      0.27      0.00
    5   24    3      0.27      0.00
    6   24    3     -0.21      0.00
    7   24    3     -0.17      0.00
    8   24    3      0.12      0.00
    9   24    3      0.16      0.00
  -10   25    3     -0.34      0.00
   -9   25    3     -0.12      0.00
   -8   25    3      0.37      0.00
   -7   25    3      0.34      0.00
   -6   25    3     -0.23      0.00
   -5   25    3     -0.30      0.00
   -4   25    3      0.77      0.00
   -3   25    3      0.59      0.00
   -2   25    3     -0.77      0.00
   -1   25    3     -0.77      0.00
    0   25    3      0.23      0.00
    1   25    3      0.18      0.00
    2   25    3     -0.53      0.00
    3   25    3     -0.46      0.00
    4   25    3      0.00      0.00
    5   25    3     -0.28      0.00
    6   25    3     -0.55      0.00
    7   25    3     -0.05      0.00
    8   25    3      0.38      0.00
    9   25    3      0.59      0.00
  -10   26    3      0.24      0.00
   -9   26    3      0.09      0.00
   -8   26    3     -0.20      0.00
   -7   26    3     -0.41      0.00
   -6   26    3     -0.48      0.00
   -5   26    3     -0.58      0.00
   -4   26    3      0.07      0.00
   -3   26    3     -0.10      0.00
   -2   26    3     -0.60      0.00
   -1   26    3     -0.02      0.00
    0   26    3      0.56      0.00
    1   26    3      0.11      0.00
    2   26    3      0.27      0.00
    3   26    3      0.64      0.00
    4   26    3      0.50      0.00
    5   26    3      0.20      0.00
    6   26    3     -0.27      0.00
    7   26    3     -0.09      0.00
    8   26    3     -0.03      0.00
    9   26    3     -0.02      0.00
   -9   27    3     -0.03      0.00
   -8   27    3      0.54      0.00
   -7   27    3      0.41      0.00
   -6   27    3     -0.17      0.00
   -5   27    3     -0.48      0.00
   -4   27    3      0.58      0.00
   -3   27    3      0.90      0.00
   -2   27    3     -0.51      0.00
   -1   27    3     -0.81      0.00
    0   27    3      0.29      0.00
    1   27    3      0.39      0.00
    2   27    3     -0.89      0.00
    3   27    3     -0.90      0.00
    4   27    3      0.34      0.00
    5   27    3      0.54      0.00
    6   27    3     -0.37      0.00
    7   27    3     -0.20      0.00
    8   27    3      0.33      0.00
   -9   28    3     -0.10      0.00
   -8   28    3      0.06      0.00
   -7   28    3      0.04      0.00
   -6   28    3     -0.30      0.00
   -5   28    3     -0.74      0.00
   -4   28    3     -0.14      0.00
   -3   28    3      0.18      0.00
   -2   28    3     -0.35      0.00
   -1   28    3     -0.11      0.00
    0   28    3      0.26      0.00
    1   28    3      0.12      0.00
    2   28    3      0.37      0.00
    3   28    3      0.35      0.00
    4   28    3      0.12      0.00
    5   28    3      0.27      0.00
    6   28    3     -0.13      0.00
    7   28    3     -0.35      0.00
    8   28    3     -0.36      0.00
   -8   29    3      0.12      0.00
   -7   29    3      0.27      0.00
   -6   29    3      0.29      0.00
   -5   29    3     -0.25      0.00
   -4   29    3     -0.15      0.00
   -3   29    3      0.28      0.00
   -2   29    3     -0.35      0.00
   -1   29    3     -0.51      0.00
    0   29    3      0.18      0.00
    1   29    3      0.32      0.00
    2   29    3     -0.55      0.00
    3   29    3     -0.54      0.00
    4   29    3      0.37      0.00
    5   29    3      0.66      0.00
    6   29    3      0.01      0.00
    7   29    3      0.11      0.00
   -8   30    3      0.14      0.00
   -7   30    3      0.09      0.00
   -6   30    3      0.02      0.00
   -5   30    3     -0.25      0.00
   -4   30    3     -0.21      0.00
   -3   30    3      0.02      0.00
   -2   30    3     -0.19      0.00
   -1   30    3      0.14      0.00
    0   30    3      0.21      0.00
    1   30    3     -0.01      0.00
    2   30    3      0.14      0.00
    3   30    3      0.11      0.00
    4   30    3      0.03      0.00
    5   30    3      0.21      0.00
    6   30    3     -0.34      0.00
   -7   31    3     -0.01      0.00
   -6   31    3      0.46      0.00
   -5   31    3      0.24      0.00
   -4   31    3     -0.40      0.00
   -3   31    3     -0.33      0.00
   -2   31    3     -0.37      0.00
   -1   31    3     -0.26      0.00
    0   31    3      0.06      0.00
    1   31    3      0.25      0.00
    2   31    3     -0.02      0.00
    3   31    3     -0.21      0.00
    4   31    3      0.05      0.00
    5   31    3      0.49      0.00
    6   31    3      0.42      0.00
   -6   32    3     -0.03      0.00
   -5   32    3      0.27      0.00
   -4   32    3      0.01      0.00
   -3   32    3     -0.17      0.00
   -2   32    3     -0.13      0.00
   -1   32    3      0.43      0.00
    0   32    3      0.24      0.00
    1   32    3     -0.31      0.00
    2   32    3     -0.11      0.00
    3   32    3      0.35      0.00
    4   32    3      0.30      0.00
    5   32    3     -0.14      0.00
   -5   33    3      0.46      0.00
   -4   33    3     -0.07      0.00
   -3   33    3     -0.30      0.00
   -2   33    3     -0.39      0.00
   -1   33    3     -0.22      0.00
    0   33    3      0.07      0.00
    1   33    3      0.21      0.00
    2   33    3      0.03      0.00
    3   33    3     -0.32      0.00
    4   33    3     -0.04      0.00
   -4   34    3      0.14      0.00
   -3   34    3     -0.09      0.00
   -2   34    3      0.04      0.00
   -1   34    3      0.37      0.00
    0   34    3      0.01      0.00
    1   34    3     -0.46      0.00
    2   34    3     -0.08      0.00
    3   34    3      0.55      0.00
   -2   35    3     -0.22      0.00
   -1   35    3     -0.16      0.00
    0   35    3      0.08      0.00
    1   35    3      0.05      0.00
  -14    0    4     -0.67      0.00
  -13    0    4     -0.54      0.00
  -12    0    4     -0.54      0.00
  -11    0    4     -0.72      0.00
  -10    0    4      1.32      0.00
   -9    0    4      2.57      0.00
   -8    0    4     -0.46      0.00
   -7    0    4     -2.85      0.00
   -6    0    4     -0.10      0.00
   -5    0    4      0.45      0.00
   -4    0    4     -2.73      0.00
   -3    0    4     -0.52      0.00
   -2    0    4      8.80      0.00
   -1    0    4     11.20      0.00
    0    0    4      5.86      0.00
    1    0    4      2.70      0.00
    2    0    4      1.54      0.00
    3    0    4     -0.30      0.00
    4    0    4     -2.04      0.00
    5    0    4     -2.03      0.00
    6    0    4     -0.49      0.00
    7    0    4     -0.08      0.00
    8    0    4     -0.38      0.00
    9    0    4      0.18      0.00
   10    0    4      0.07      0.00
   11    0    4      0.60      0.00
   12    0    4      0.18      0.00
   13    0    4      0.24      0.00
  -14    1    4      0.43      0.00
  -13    1    4      0.26      0.00
  -12    1    4      0.14      0.00
  -11    1    4     -0.19      0.00
  -10    1    4     -0.49      0.00
   -9    1    4     -0.23      0.00
   -8    1    4     -0.03      0.00
   -7    1    4     -0.70      0.00
   -6    1    4     -1.15      0.00
   -5    1    4      0.10      0.00
   -4    1    4      2.09      0.00
   -3    1    4      1.42      0.00
   -2    1    4     -0.51      0.00
   -1    1    4      0.30      0.00
    0    1    4      2.74      0.00
    1    1    4      2.78      0.00
    2    1    4     -0.49      0.00
    3    1    4     -2.17      0.00
    4    1    4     -0.93      0.00
    5    1    4      0.42      0.00
    6    1    4      0.22      0.00
    7    1    4     -0.29      0.00
    8    1    4      0.20      0.00
    9    1    4      0.73      0.00
   10    1    4      0.26      0.00
   11    1    4     -0.08      0.00
   12    1    4     -0.12      0.00
   13    1    4     -0.21      0.00
  -14    2    4     -0.62      0.00
  -13    2    4     -0.18      0.00
  -12    2    4     -0.22      0.00
  -11    2    4     -0.69      0.00
  -10    2    4      0.67      0.00
   -9    2    4      1.66      0.00
   -8    2    4     -0.48      0.00
   -7    2    4     -1.95      0.00
   -6    2    4      0.27      0.00
   -5    2    4      0.02      0.00
   -4    2    4     -1.91      0.00
   -3    2    4      1.55      0.00
   -1    2    4      7.36      0.00
    0    2    4      1.96      0.00
    1    2    4      1.33      0.00
    2    2    4      1.67      0.00
    3    2    4     -0.51      0.00
    4    2    4     -2.36      0.00
    5    2    4     -1.75      0.00
    6    2    4      0.37      0.00
    7    2    4      0.33      0.00
    8    2    4     -0.69      0.00
    9    2    4     -0.02      0.00
   10    2    4      0.13      0.00
   11    2    4      0.57      0.00
   12    2    4      0.34      0.00
   13    2    4      0.21      0.00
  -14    3    4      0.79      0.00
  -13    3    4      0.25      0.00
  -12    3    4      0.11      0.00
  -11    3    4     -0.36      0.00
  -10    3    4     -0.94      0.00
   -9    3    4     -0.46      0.00
   -8    3    4     -0.16      0.00
   -7    3    4     -1.51      0.00
   -6    3    4     -2.28      0.00
   -5    3    4     -0.03      0.00
   -4    3    4      3.75      0.00
   -3    3    4      2.93      0.00
   -2    3    4     -0.24      0.00
   -1    3    4      1.46      0.00
    0    3    4      6.01      0.00
    1    3    4      5.91      0.00
    2    3    4     -0.97      0.00
    3    3    4     -4.46      0.00
    4    3    4     -1.84      0.00
    5    3    4      0.78      0.00
    6    3    4      0.17      0.00
    7    3    4     -0.80      0.00
    8    3    4      0.37      0.00
    9    3    4      1.56      0.00
   10    3    4      0.63      0.00
   11    3    4     -0.11      0.00
   12    3    4     -0.15      0.00
   13    3    4     -0.31      0.00
  -14    4    4     -0.35      0.00
  -13    4    4      0.50      0.00
  -12    4    4      0.21      0.00
  -11    4    4     -0.67      0.00
  -10    4    4     -0.53      0.00
   -9    4    4     -0.07      0.00
   -8    4    4     -0.59      0.00
   -7    4    4     -0.36      0.00
   -6    4    4      1.08      0.00
   -5    4    4     -0.38      0.00
   -4    4    4     -0.18      0.00
   -3    4    4      4.83      0.00
   -2    4    4      6.29      0.00
   -1    4    4     -0.01      0.00
    0    4    4     -4.92      0.00
    1    4    4     -1.46      0.00
    2    4    4      1.19      0.00
    3    4    4     -1.13      0.00
    4    4    4     -2.49      0.00
    5    4    4     -0.81      0.00
    6    4    4      2.04      0.00
    7    4    4      1.04      0.00
    8    4    4     -1.31      0.00
    9    4    4     -0.44      0.00
   10    4    4      0.18      0.00
   11    4    4      0.39      0.00
   12    4    4      0.58      0.00
   13    4    4      0.15      0.00
  -14    5    4      0.31      0.00
  -13    5    4     -0.52      0.00
  -12    5    4     -0.29      0.00
  -11    5    4     -0.17      0.00
  -10    5    4     -0.43      0.00
   -9    5    4     -0.24      0.00
   -8    5    4     -0.28      0.00
   -7    5    4     -1.09      0.00
   -6    5    4     -1.27      0.00
   -5    5    4     -0.70      0.00
   -4    5    4      0.95      0.00
   -3    5    4      1.88      0.00
   -2    5    4      1.70      0.00
   -1    5    4      2.76      0.00
    0    5    4      4.95      0.00
    1    5    4      4.94      0.00
    2    5    4     -0.15      0.00
    3    5    4     -3.05      0.00
    4    5    4     -1.23      0.00
    5    5    4      0.35      0.00
    6    5    4     -0.50      0.00
    7    5    4     -0.91      0.00
    8    5    4      0.21      0.00
    9    5    4      1.21      0.00
   10    5    4      0.63      0.00
   11    5    4      0.00      0.00
   12    5    4      0.05      0.00
   13    5    4     -0.03      0.00
  -14    6    4      0.09      0.00
  -13    6    4      0.79      0.00
  -12    6    4      0.14      0.00
  -11    6    4     -0.62      0.00
  -10    6    4     -0.97      0.00
   -9    6    4     -0.90      0.00
   -8    6    4     -0.77      0.00
   -7    6    4      0.16      0.00
   -6    6    4      1.56      0.00
   -5    6    4      0.46      0.00
   -4    6    4      1.22      0.00
   -3    6    4      4.73      0.00
   -2    6    4      2.66      0.00
   -1    6    4     -3.74      0.00
    0    6    4     -6.91      0.00
    1    6    4     -3.30      0.00
    2    6    4     -0.76      0.00
    3    6    4     -1.69      0.00
    4    6    4     -1.24      0.00
    5    6    4      0.48      0.00
    6    6    4      2.76      0.00
    7    6    4      1.16      0.00
    8    6    4     -1.55      0.00
    9    6    4     -0.69      0.00
   10    6    4      0.08      0.00
   11    6    4      0.02      0.00
   12    6    4      0.53      0.00
   13    6    4      0.00      0.00
  -14    7    4     -0.30      0.00
  -13    7    4     -0.95      0.00
  -12    7    4     -0.50      0.00
  -11    7    4      0.02      0.00
  -10    7    4      0.22      0.00
   -9    7    4      0.23      0.00
   -8    7    4      0.03      0.00
   -7    7    4      0.10      0.00
   -6    7    4      0.38      0.00
   -5    7    4     -1.43      0.00
   -4    7    4     -2.90      0.00
   -3    7    4     -0.19      0.00
   -2    7    4      2.58      0.00
   -1    7    4      2.05      0.00
    0    7    4      1.85      0.00
    1    7    4      3.10      0.00
    2    7    4      1.59      0.00
    3    7    4     -0.56      0.00
    4    7    4     -0.28      0.00
    5    7    4     -0.06      0.00
    6    7    4     -0.83      0.00
    7    7    4     -0.46      0.00
    8    7    4      0.08      0.00
    9    7    4      0.33      0.00
   10    7    4      0.37      0.00
   11    7    4     -0.01      0.00
   12    7    4     -0.02      0.00
  -14    8    4      0.29      0.00
  -13    8    4      0.43      0.00
  -12    8    4     -0.21      0.00
  -11    8    4     -0.28      0.00
  -10    8    4     -0.38      0.00
   -9    8    4     -0.46      0.00
   -8    8    4     -0.76      0.00
   -7    8    4     -0.55      0.00
   -6    8    4      1.18      0.00
   -5    8    4      1.91      0.00
   -4    8    4      1.71      0.00
   -3    8    4      1.25      0.00
   -2    8    4     -1.04      0.00
   -1    8    4     -2.08      0.00
    0    8    4     -2.99      0.00
    1    8    4     -3.17      0.00
    2    8    4     -2.74      0.00
    3    8    4     -1.24      0.00
    4    8    4      0.92      0.00
    5    8    4      1.11      0.00
    6    8    4      1.65      0.00
    7    8    4      0.50      0.00
    8    8    4     -1.11      0.00
    9    8    4     -0.54      0.00
   10    8    4     -0.09      0.00
   11    8    4     -0.22      0.00
   12    8    4      0.22      0.00
  -14    9    4     -0.36      0.00
  -13    9    4     -0.44      0.00
  -12    9    4     -0.27      0.00
  -11    9    4     -0.04      0.00
  -10    9    4      0.26      0.00
   -9    9    4      0.43      0.00
   -8    9    4      0.64      0.00
   -7    9    4      1.15      0.00
   -6    9    4      0.89      0.00
   -5    9    4     -1.83      0.00
   -4    9    4     -3.87      0.00
   -3    9    4     -0.91      0.00
   -2    9    4      0.99      0.00
   -1    9    4     -0.87      0.00
    0    9    4      0.08      0.00
    1    9    4      3.20      0.00
    2    9    4      2.73      0.00
    3    9    4      0.03      0.00
    4    9    4      0.04      0.00
    5    9    4      0.32      0.00
    6    9    4     -0.38      0.00
    7    9    4      0.06      0.00
    8    9    4      0.16      0.00
    9    9    4     -0.12      0.00
   10    9    4      0.15      0.00
   11    9    4     -0.17      0.00
   12    9    4     -0.39      0.00
  -14   10    4      0.05      0.00
  -13   10    4     -0.12      0.00
  -12   10    4     -0.15      0.00
  -11   10    4      0.35      0.00
  -10   10    4      0.33      0.00
   -9   10    4      0.17      0.00
   -8   10    4     -0.43      0.00
   -7   10    4     -1.06      0.00
   -6   10    4      0.21      0.00
   -5   10    4      2.04      0.00
   -4   10    4      1.31      0.00
   -3   10    4     -1.62      0.00
   -2   10    4     -2.61      0.00
   -1   10    4      0.80      0.00
    0   10    4      1.35      0.00
    1   10    4     -1.68      0.00
    2   10    4     -2.51      0.00
    3   10    4      0.37      0.00
    4   10    4      2.30      0.00
    5   10    4      0.48      0.00
    6   10    4     -0.28      0.00
    7   10    4     -0.33      0.00
    8   10    4     -0.48      0.00
    9   10    4     -0.35      0.00
   10   10    4     -0.25      0.00
   11   10    4     -0.05      0.00
   12   10    4      0.01      0.00
  -14   11    4      0.00      0.00
  -13   11    4      0.23      0.00
  -12   11    4     -0.03      0.00
  -11   11    4     -0.11      0.00
  -10   11    4     -0.04      0.00
   -9   11    4      0.07      0.00
   -8   11    4      0.80      0.00
   -7   11    4      1.58      0.00
   -6   11    4      0.38      0.00
   -5   11    4     -1.95      0.00
   -4   11    4     -2.17      0.00
   -3   11    4      0.09      0.00
   -2   11    4     -0.98      0.00
   -1   11    4     -3.23      0.00
    0   11    4      0.29      0.00
    1   11    4      3.93      0.00
    2   11    4      2.19      0.00
    3   11    4     -0.91      0.00
    4   11    4      0.16      0.00
    5   11    4      1.08      0.00
    6   11    4      0.13      0.00
    7   11    4      0.07      0.00
    8   11    4      0.29      0.00
    9   11    4      0.08      0.00
   10   11    4      0.08      0.00
   11   11    4     -0.17      0.00
   12   11    4     -0.44      0.00
  -14   12    4     -0.22      0.00
  -13   12    4     -0.30      0.00
  -12   12    4      0.24      0.00
  -11   12    4      0.64      0.00
  -10   12    4      0.32      0.00
   -9   12    4      0.14      0.00
   -8   12    4      0.03      0.00
   -7   12    4     -0.48      0.00
   -6   12    4     -0.47      0.00
   -5   12    4      0.33      0.00
   -4   12    4      0.26      0.00
   -3   12    4     -1.67      0.00
   -2   12    4     -1.87      0.00
   -1   12    4      1.31      0.00
    0   12    4      2.27      0.00
    1   12    4      0.11      0.00
    2   12    4     -0.36      0.00
    3   12    4      1.79      0.00
    4   12    4      2.08      0.00
    5   12    4     -0.52      0.00
    6   12    4     -1.36      0.00
    7   12    4     -0.69      0.00
    8   12    4     -0.35      0.00
    9   12    4     -0.56      0.00
   10   12    4     -0.51      0.00
   11   12    4      0.31      0.00
   12   12    4      0.12      0.00
  -13   13    4      0.11      0.00
  -12   13    4     -0.18      0.00
  -11   13    4      0.10      0.00
  -10   13    4     -0.01      0.00
   -9   13    4     -0.47      0.00
   -8   13    4      0.15      0.00
   -7   13    4      1.42      0.00
   -6   13    4      0.20      0.00
   -5   13    4     -1.78      0.00
   -4   13    4     -0.78      0.00
   -3   13    4      1.00      0.00
   -2   13    4     -1.04      0.00
   -1   13    4     -2.76      0.00
    0   13    4      0.69      0.00
    1   13    4      2.83      0.00
    2   13    4      0.75      0.00
    3   13    4     -1.06      0.00
    4   13    4      0.56      0.00
    5   13    4      1.18      0.00
    6   13    4      0.06      0.00
    7   13    4     -0.18      0.00
    8   13    4      0.38      0.00
    9   13    4      0.42      0.00
   10   13    4      0.03      0.00
   11   13    4      0.08      0.00
   12   13    4      0.06      0.00
  -13   14    4     -0.09      0.00
  -12   14    4      0.23      0.00
  -11   14    4      0.09      0.00
  -10   14    4     -0.22      0.00
   -9   14    4     -0.16      0.00
   -8   14    4      0.27      0.00
   -7   14    4      0.50      0.00
   -6   14    4     -0.26      0.00
   -5   14    4     -1.37      0.00
   -4   14    4     -0.82      0.00
   -3   14    4     -0.52      0.00
   -2   14    4     -0.78      0.00
   -1   14    4      0.02      0.00
    0   14    4      1.26      0.00
    1   14    4      1.29      0.00
    2   14    4      1.03      0.00
    3   14    4      1.71      0.00
    4   14    4      1.31      0.00
    5   14    4     -0.65      0.00
    6   14    4     -1.12      0.00
    7   14    4     -0.47      0.00
    8   14    4     -0.58      0.00
    9   14    4     -0.89      0.00
   10   14    4     -0.78      0.00
   11   14    4      0.48      0.00
   12   14    4      0.42      0.00
  -13   15    4     -0.52      0.00
  -12   15    4     -0.42      0.00
  -11   15    4      0.35      0.00
  -10   15    4      0.27      0.00
   -9   15    4     -0.54      0.00
   -8   15    4     -0.61      0.00
   -7   15    4      0.81      0.00
   -6   15    4      0.67      0.00
   -5   15    4     -1.13      0.00
   -4   15    4     -0.85      0.00
   -3   15    4      0.62      0.00
   -2   15    4      0.31      0.00
   -1   15    4     -0.50      0.00
    0   15    4      0.16      0.00
    1   15    4      0.39      0.00
    2   15    4      0.02      0.00
    3   15    4      0.07      0.00
    4   15    4      0.72      0.00
    5   15    4      0.36      0.00
    6   15    4     -0.23      0.00
    7   15    4     -0.09      0.00
    8   15    4      0.40      0.00
    9   15    4      0.50      0.00
   10   15    4     -0.04      0.00
   11   15    4      0.27      0.00
  -13   16    4      0.11      0.00
  -12   16    4     -0.27      0.00
  -11   16    4     -0.75      0.00
  -10   16    4     -0.55      0.00
   -9   16    4     -0.10      0.00
   -8   16    4      0.29      0.00
   -7   16    4      0.75      0.00
   -6   16    4      0.39      0.00
   -5   16    4     -1.35      0.00
   -4   16    4     -1.01      0.00
   -3   16    4     -0.22      0.00
   -2   16    4     -0.91      0.00
   -1   16    4     -0.90      0.00
    0   16    4      0.91      0.00
    1   16    4      1.33      0.00
    2   16    4      0.18      0.00
    3   16    4      0.62      0.00
    4   16    4      1.27      0.00
    5   16    4      0.04      0.00
    6   16    4     -0.53      0.00
    7   16    4      0.02      0.00
    8   16    4     -0.40      0.00
    9   16    4     -0.71      0.00
   10   16    4     -0.73      0.00
   11   16    4      0.38      0.00
  -13   17    4     -0.77      0.00
  -12   17    4     -0.23      0.00
  -11   17    4      0.25      0.00
  -10   17    4      0.21      0.00
   -9   17    4      0.01      0.00
   -8   17    4     -0.53      0.00
   -7   17    4     -0.01      0.00
   -6   17    4      0.86      0.00
   -5   17    4     -0.09      0.00
   -4   17    4     -0.94      0.00
   -3   17    4     -0.18      0.00
   -2   17    4      1.13      0.00
   -1   17    4      1.04      0.00
    0   17    4     -0.56      0.00
    1   17    4     -0.99      0.00
    2   17    4      0.25      0.00
    3   17    4      0.77      0.00
    4   17    4      0.10      0.00
    5   17    4     -0.38      0.00
    6   17    4     -0.14      0.00
    7   17    4      0.23      0.00
    8   17    4      0.23      0.00
    9   17    4      0.32      0.00
   10   17    4      0.01      0.00
   11   17    4      0.20      0.00
  -12   18    4     -0.53      0.00
  -11   18    4     -0.79      0.00
  -10   18    4     -0.38      0.00
   -9   18    4      0.17      0.00
   -8   18    4      0.36      0.00
   -7   18    4      0.33      0.00
   -6   18    4      0.54      0.00
   -5   18    4     -0.25      0.00
   -4   18    4     -0.23      0.00
   -3   18    4     -0.52      0.00
   -2   18    4     -1.69      0.00
   -1   18    4     -0.90      0.00
    0   18    4      1.19      0.00
    1   18    4      0.49      0.00
    2   18    4     -1.35      0.00
    3   18    4     -0.02      0.00
    4   18    4      1.74      0.00
    5   18    4      0.47      0.00
    6   18    4     -0.43      0.00
    7   18    4      0.43      0.00
    8   18    4      0.23      0.00
    9   18    4     -0.10      0.00
   10   18    4     -0.32      0.00
   11   18    4      0.19      0.00
  -12   19    4      0.32      0.00
  -11   19    4     -0.05      0.00
  -10   19    4     -0.23      0.00
   -9   19    4      0.65      0.00
   -8   19    4      0.30      0.00
   -7   19    4     -0.58      0.00
   -6   19    4      0.24      0.00
   -5   19    4      0.67      0.00
   -4   19    4     -0.09      0.00
   -3   19    4     -0.23      0.00
   -2   19    4      0.86      0.00
   -1   19    4      1.07      0.00
    0   19    4     -0.53      0.00
    1   19    4     -0.63      0.00
    2   19    4      0.40      0.00
    3   19    4      0.16      0.00
    4   19    4     -0.58      0.00
    5   19    4     -0.15      0.00
    6   19    4      0.26      0.00
    7   19    4      0.17      0.00
    8   19    4     -0.23      0.00
    9   19    4      0.03      0.00
   10   19    4      0.13      0.00
  -12   20    4     -0.16      0.00
  -11   20    4      0.14      0.00
  -10   20    4     -0.07      0.00
   -9   20    4      0.08      0.00
   -8   20    4      0.59      0.00
   -7   20    4      0.16      0.00
   -6   20    4      0.06      0.00
   -5   20    4      0.24      0.00
   -4   20    4      0.54      0.00
   -3   20    4     -0.25      0.00
   -2   20    4     -1.70      0.00
   -1   20    4     -0.74      0.00
    0   20    4      0.79      0.00
    1   20    4     -0.27      0.00
    2   20    4     -1.53      0.00
    3   20    4      0.11      0.00
    4   20    4      1.55      0.00
    5   20    4      0.24      0.00
    6   20    4     -0.47      0.00
    7   20    4      0.54      0.00
    8   20    4      0.55      0.00
    9   20    4      0.21      0.00
   10   20    4      0.11      0.00
  -12   21    4      0.70      0.00
  -11   21    4     -0.05      0.00
  -10   21    4     -0.38      0.00
   -9   21    4      0.77      0.00
   -8   21    4      0.84      0.00
   -7   21    4     -0.57      0.00
   -6   21    4     -0.41      0.00
   -5   21    4      0.74      0.00
   -4   21    4      0.67      0.00
   -3   21    4      0.12      0.00
   -2   21    4      0.36      0.00
   -1   21    4      0.64      0.00
    0   21    4     -0.01      0.00
    1   21    4      0.02      0.00
    2   21    4      0.00      0.00
    3   21    4     -0.52      0.00
    4   21    4     -0.40      0.00
    5   21    4      0.62      0.00
    6   21    4      0.56      0.00
    7   21    4     -0.16      0.00
    8   21    4     -0.66      0.00
    9   21    4     -0.35      0.00
   10   21    4      0.07      0.00
  -11   22    4      0.98      0.00
  -10   22    4      0.04      0.00
   -9   22    4     -0.29      0.00
   -8   22    4      0.79      0.00
   -7   22    4      0.58      0.00
   -6   22    4     -0.25      0.00
   -5   22    4     -0.10      0.00
   -4   22    4      0.53      0.00
   -3   22    4      0.43      0.00
   -2   22    4     -0.70      0.00
   -1   22    4     -0.72      0.00
    0   22    4     -0.24      0.00
    1   22    4     -0.40      0.00
    2   22    4     -0.54      0.00
    3   22    4      0.10      0.00
    4   22    4      0.48      0.00
    5   22    4     -0.09      0.00
    6   22    4     -0.18      0.00
    7   22    4      0.31      0.00
    8   22    4      0.21      0.00
    9   22    4      0.02      0.00
   10   22    4      0.28      0.00
  -11   23    4      0.23      0.00
  -10   23    4     -0.06      0.00
   -9   23    4      0.33      0.00
   -8   23    4      0.47      0.00
   -7   23    4     -0.23      0.00
   -6   23    4     -0.31      0.00
   -5   23    4      0.45      0.00
   -4   23    4      0.33      0.00
   -3   23    4     -0.12      0.00
   -2   23    4      0.20      0.00
   -1   23    4      0.65      0.00
    0   23    4      0.25      0.00
    1   23    4     -0.12      0.00
    2   23    4     -0.26      0.00
    3   23    4     -0.10      0.00
    4   23    4      0.22      0.00
    5   23    4      0.75      0.00
    6   23    4      0.62      0.00
    7   23    4     -0.14      0.00
    8   23    4     -0.70      0.00
    9   23    4     -0.68      0.00
  -11   24    4      0.84      0.00
  -10   24    4     -0.02      0.00
   -9   24    4     -0.37      0.00
   -8   24    4      0.68      0.00
   -7   24    4      0.92      0.00
   -6   24    4      0.08      0.00
   -5   24    4     -0.15      0.00
   -4   24    4      0.07      0.00
   -3   24    4      0.54      0.00
   -2   24    4      0.26      0.00
   -1   24    4     -0.43      0.00
    0   24    4     -0.83      0.00
    1   24    4     -0.22      0.00
    2   24    4      0.12      0.00
    3   24    4     -0.34      0.00
    4   24    4     -0.44      0.00
    5   24    4     -0.16      0.00
    6   24    4      0.13      0.00
    7   24    4     -0.02      0.00
    8   24    4     -0.18      0.00
    9   24    4     -0.13      0.00
  -10   25    4      0.14      0.00
   -9   25    4     -0.17      0.00
   -8   25    4     -0.23      0.00
   -7   25    4     -0.04      0.00
   -6   25    4      0.12      0.00
   -5   25    4      0.35      0.00
   -4   25    4     -0.33      0.00
   -3   25    4     -0.75      0.00
   -2   25    4      0.21      0.00
   -1   25    4      0.87      0.00
    0   25    4      0.14      0.00
    1   25    4     -0.58      0.00
    2   25    4      0.00      0.00
    3   25    4      0.77      0.00
    4   25    4      0.35      0.00
    5   25    4      0.05      0.00
    6   25    4      0.53      0.00
    7   25    4      0.18      0.00
    8   25    4     -0.47      0.00
  -10   26    4     -0.11      0.00
   -9   26    4     -0.06      0.00
   -8   26    4      0.31      0.00
   -7   26    4      0.64      0.00
   -6   26    4      0.49      0.00
   -5   26    4      0.39      0.00
   -4   26    4     -0.10      0.00
   -3   26    4     -0.02      0.00
   -2   26    4      0.52      0.00
   -1   26    4      0.16      0.00
    0   26    4     -0.60      0.00
    1   26    4     -0.19      0.00
    2   26    4      0.01      0.00
    3   26    4     -0.52      0.00
    4   26    4     -0.43      0.00
    5   26    4     -0.18      0.00
    6   26    4      0.05      0.00
    7   26    4     -0.06      0.00
    8   26    4     -0.08      0.00
   -9   27    4     -0.26      0.00
   -8   27    4     -0.32      0.00
   -7   27    4     -0.10      0.00
   -6   27    4      0.09      0.00
   -5   27    4      0.39      0.00
   -4   27    4     -0.20      0.00
   -3   27    4     -0.78      0.00
   -2   27    4      0.12      0.00
   -1   27    4      0.77      0.00
    0   27    4      0.03      0.00
    1   27    4     -0.68      0.00
    2   27    4      0.18      0.00
    3   27    4      0.91      0.00
    4   27    4      0.04      0.00
    5   27    4     -0.57      0.00
    6   27    4      0.25      0.00
    7   27    4      0.16      0.00
    8   27    4     -0.30      0.00
   -9   28    4      0.16      0.00
   -8   28    4      0.00      0.00
   -7   28    4      0.12      0.00
   -6   28    4      0.40      0.00
   -5   28    4      0.68      0.00
   -4   28    4      0.06      0.00
   -3   28    4     -0.44      0.00
   -2   28    4      0.37      0.00
   -1   28    4      0.55      0.00
    0   28    4     -0.20      0.00
    1   28    4     -0.26      0.00
    2   28    4     -0.15      0.00
    3   28    4     -0.19      0.00
    4   28    4      0.00      0.00
    5   28    4     -0.28      0.00
    6   28    4     -0.03      0.00
    7   28    4      0.31      0.00
   -8   29    4      0.13      0.00
   -7   29    4     -0.09      0.00
   -6   29    4     -0.30      0.00
   -5   29    4      0.21      0.00
   -4   29    4      0.48      0.00
   -3   29    4     -0.09      0.00
   -2   29    4      0.01      0.00
   -1   29    4      0.36      0.00
    0   29    4      0.04      0.00
    1   29    4     -0.50      0.00
    2   29    4     -0.12      0.00
    3   29    4      0.34      0.00
    4   29    4     -0.01      0.00
    5   29    4     -0.54      0.00
    6   29    4     -0.24      0.00
   -7   30    4      0.01      0.00
   -6   30    4      0.06      0.00
   -5   30    4      0.26      0.00
   -4   30    4      0.12      0.00
   -3   30    4     -0.31      0.00
   -2   30    4      0.27      0.00
   -1   30    4      0.41      0.00
    0   30    4     -0.12      0.00
    1   30    4     -0.13      0.00
    2   30    4      0.01      0.00
    3   30    4      0.01      0.00
    4   30    4      0.04      0.00
    5   30    4     -0.16      0.00
    6   30    4      0.35      0.00
   -7   31    4      0.06      0.00
   -6   31    4     -0.39      0.00
   -5   31    4     -0.21      0.00
   -4   31    4      0.69      0.00
   -3   31    4      0.49      0.00
   -2   31    4      0.01      0.00
   -1   31    4      0.00      0.00
    0   31    4      0.00      0.00
    1   31    4     -0.34      0.00
    2   31    4     -0.40      0.00
    3   31    4      0.00      0.00
    4   31    4      0.21      0.00
    5   31    4     -0.35      0.00
   -6   32    4      0.02      0.00
   -5   32    4     -0.21      0.00
   -4   32    4     -0.05      0.00
   -3   32    4     -0.02      0.00
   -2   32    4      0.21      0.00
   -1   32    4      0.03      0.00
    0   32    4     -0.14      0.00
    1   32    4      0.14      0.00
    2   32    4      0.15      0.00
    3   32    4     -0.26      0.00
    4   32    4     -0.26      0.00
   -5   33    4     -0.46      0.00
   -4   33    4      0.25      0.00
   -3   33    4      0.48      0.00
   -2   33    4      0.08      0.00
   -1   33    4     -0.14      0.00
    0   33    4     -0.16      0.00
    1   33    4     -0.17      0.00
    2   33    4     -0.18      0.00
    3   33    4      0.15      0.00
   -3   34    4      0.03      0.00
   -2   34    4      0.07      0.00
   -1   34    4     -0.07      0.00
    0   34    4      0.04      0.00
    1   34    4      0.25      0.00
  -14    0    5      1.20      0.00
  -13    0    5      1.16      0.00
  -12    0    5     -0.20      0.00
  -11    0    5      0.90      0.00
  -10    0    5      0.06      0.00
   -9    0    5     -2.20      0.00
   -8    0    5     -0.78      0.00
   -7    0    5      2.65      0.00
   -6    0    5      0.77      0.00
   -5    0    5     -1.70      0.00
   -4    0    5      1.47      0.00
   -3    0    5      2.58      0.00
   -2    0    5     -4.41      0.00
   -1    0    5     -9.42      0.00
    0    0    5     -5.24      0.00
    1    0    5      0.39      0.00
    2    0    5      0.06      0.00
    3    0    5     -1.73      0.00
    4    0    5     -0.50      0.00
    5    0    5      1.57      0.00
    6    0    5      1.43      0.00
    7    0    5      0.35      0.00
    8    0    5      0.61      0.00
    9    0    5     -0.10      0.00
   10    0    5     -0.19      0.00
   11    0    5     -0.15      0.00
   12    0    5      0.05      0.00
  -14    1    5     -0.45      0.00
  -13    1    5     -0.10      0.00
  -12    1    5     -0.02      0.00
  -11    1    5     -0.08      0.00
  -10    1    5      0.33      0.00
   -9    1    5      0.33      0.00
   -8    1    5     -0.02      0.00
   -7    1    5      0.45      0.00
   -6    1    5      0.96      0.00
   -5    1    5     -0.01      0.00
   -4    1    5     -1.62      0.00
   -3    1    5     -1.36      0.00
   -2    1    5      0.08      0.00
   -1    1    5     -0.27      0.00
    0    1    5     -2.16      0.00
    1    1    5     -2.51      0.00
    2    1    5      0.11      0.00
    3    1    5      1.97      0.00
    4    1    5      1.10      0.00
    5    1    5     -0.43      0.00
    6    1    5     -0.46      0.00
    7    1    5      0.13      0.00
    8    1    5     -0.19      0.00
    9    1    5     -0.65      0.00
   10    1    5     -0.22      0.00
   11    1    5      0.10      0.00
   12    1    5      0.06      0.00
  -14    2    5      1.07      0.00
  -13    2    5      0.62      0.00
  -12    2    5     -0.43      0.00
  -11    2    5      0.93      0.00
  -10    2    5      0.45      0.00
   -9    2    5     -1.45      0.00
   -8    2    5     -0.63      0.00
   -7    2    5      1.91      0.00
   -6    2    5      0.44      0.00
   -5    2    5     -1.34      0.00
   -4    2    5      0.76      0.00
   -3    2    5      0.68      0.00
   -2    2    5     -4.20      0.00
   -1    2    5     -6.20      0.00
    0    2    5     -2.10      0.00
    1    2    5      1.08      0.00
    2    2    5     -0.31      0.00
    3    2    5     -1.28      0.00
    4    2    5      0.17      0.00
    5    2    5      1.44      0.00
    6    2    5      0.61      0.00
    7    2    5     -0.10      0.00
    8    2    5      0.83      0.00
    9    2    5      0.07      0.00
   10    2    5     -0.22      0.00
   11    2    5     -0.02      0.00
   12    2    5     -0.06      0.00
  -14    3    5     -0.77      0.00
  -13    3    5      0.14      0.00
  -12    3    5      0.07      0.00
  -11    3    5     -0.33      0.00
  -10    3    5      0.61      0.00
   -9    3    5      0.73      0.00
   -8    3    5     -0.01      0.00
   -7    3    5      0.87      0.00
   -6    3    5      1.93      0.00
   -5    3    5      0.32      0.00
   -4    3    5     -2.81      0.00
   -3    3    5     -2.99      0.00
   -2    3    5     -0.80      0.00
   -1    3    5     -1.22      0.00
    0    3    5     -4.42      0.00
    1    3    5     -5.30      0.00
    2    3    5     -0.10      0.00
    3    3    5      4.07      0.00
    4    3    5      2.51      0.00
    5    3    5     -0.81      0.00
    6    3    5     -0.89      0.00
    7    3    5      0.40      0.00
    8    3    5     -0.25      0.00
    9    3    5     -1.34      0.00
   10    3    5     -0.60      0.00
   11    3    5      0.13      0.00
   12    3    5      0.06      0.00
  -14    4    5      0.62      0.00
  -13    4    5     -0.45      0.00
  -12    4    5     -0.64      0.00
  -11    4    5      1.02      0.00
  -10    4    5      1.01      0.00
   -9    4    5     -0.06      0.00
   -8    4    5     -0.16      0.00
   -7    4    5      0.60      0.00
   -6    4    5     -0.32      0.00
   -5    4    5     -0.90      0.00
   -4    4    5     -0.58      0.00
   -3    4    5     -2.48      0.00
   -2    4    5     -3.22      0.00
   -1    4    5     -0.08      0.00
    0    4    5      3.48      0.00
    1    4    5      2.43      0.00
    2    4    5     -0.54      0.00
    3    4    5     -0.21      0.00
    4    4    5      1.15      0.00
    5    4    5      0.93      0.00
    6    4    5     -1.05      0.00
    7    4    5     -0.96      0.00
    8    4    5      1.26      0.00
    9    4    5      0.50      0.00
   10    4    5     -0.17      0.00
   11    4    5      0.32      0.00
   12    4    5     -0.26      0.00
  -14    5    5     -0.21      0.00
  -13    5    5      0.95      0.00
  -12    5    5      0.34      0.00
  -11    5    5     -0.60      0.00
  -10    5    5      0.17      0.00
   -9    5    5      0.51      0.00
   -8    5    5      0.01      0.00
   -7    5    5      0.40      0.00
   -6    5    5      1.18      0.00
   -5    5    5      1.07      0.00
   -4    5    5     -0.38      0.00
   -3    5    5     -2.31      0.00
   -2    5    5     -2.90      0.00
   -1    5    5     -2.30      0.00
    0    5    5     -2.85      0.00
    1    5    5     -4.20      0.00
    2    5    5     -1.23      0.00
    3    5    5      2.83      0.00
    4    5    5      2.49      0.00
    5    5    5     -0.37      0.00
    6    5    5     -0.57      0.00
    7    5    5      0.49      0.00
    8    5    5      0.05      0.00
    9    5    5     -0.94      0.00
   10    5    5     -0.71      0.00
   11    5    5     -0.06      0.00
   12    5    5     -0.02      0.00
  -14    6    5      0.01      0.00
  -13    6    5     -1.02      0.00
  -12    6    5     -0.23      0.00
  -11    6    5      1.02      0.00
  -10    6    5      0.77      0.00
   -9    6    5      0.56      0.00
   -8    6    5      0.50      0.00
   -7    6    5      0.17      0.00
   -6    6    5     -0.97      0.00
   -5    6    5     -1.25      0.00
   -4    6    5     -1.30      0.00
   -3    6    5     -2.93      0.00
   -2    6    5     -1.21      0.00
   -1    6    5      2.94      0.00
    0    6    5      5.16      0.00
    1    6    5      3.16      0.00
    2    6    5      0.42      0.00
    3    6    5      0.58      0.00
    4    6    5      0.89      0.00
    5    6    5      0.15      0.00
    6    6    5     -1.89      0.00
    7    6    5     -1.33      0.00
    8    6    5      1.41      0.00
    9    6    5      0.86      0.00
   10    6    5      0.05      0.00
   11    6    5      0.66      0.00
   12    6    5     -0.33      0.00
  -14    7    5      0.51      0.00
  -13    7    5      1.30      0.00
  -12    7    5      0.42      0.00
  -11    7    5     -0.46      0.00
  -10    7    5     -0.35      0.00
   -9    7    5     -0.26      0.00
   -8    7    5     -0.26      0.00
   -7    7    5     -0.37      0.00
   -6    7    5     -0.16      0.00
   -5    7    5      1.54      0.00
   -4    7    5      2.80      0.00
   -3    7    5     -0.29      0.00
   -2    7    5     -3.71      0.00
   -1    7    5     -1.98      0.00
    0    7    5      0.15      0.00
    1    7    5     -2.00      0.00
    2    7    5     -2.61      0.00
    3    7    5      0.52      0.00
    4    7    5      1.76      0.00
    5    7    5      0.16      0.00
    6    7    5     -0.22      0.00
    7    7    5      0.10      0.00
    8    7    5      0.17      0.00
    9    7    5     -0.11      0.00
   10    7    5     -0.52      0.00
   11    7    5     -0.10      0.00
   12    7    5      0.16      0.00
  -14    8    5     -0.30      0.00
  -13    8    5     -0.68      0.00
  -12    8    5      0.46      0.00
  -11    8    5      0.67      0.00
  -10    8    5     -0.20      0.00
   -9    8    5      0.12      0.00
   -8    8    5      0.88      0.00
   -7    8    5      0.70      0.00
   -6    8    5     -0.93      0.00
   -5    8    5     -1.89      0.00
   -4    8    5     -1.14      0.00
   -3    8    5     -0.64      0.00
   -2    8    5      0.96      0.00
   -1    8    5      1.61      0.00
    0    8    5      2.09      0.00
    1    8    5      2.62      0.00
    2    8    5      1.67      0.00
    3    8    5      0.26      0.00
    4    8    5     -0.61      0.00
    5    8    5     -0.21      0.00
    6    8    5     -1.01      0.00
    7    8    5     -0.80      0.00
    8    8    5      1.01      0.00
    9    8    5      0.82      0.00
   10    8    5      0.27      0.00
   11    8    5      0.70      0.00
   12    8    5     -0.25      0.00
  -14    9    5      0.58      0.00
  -13    9    5      0.63      0.00
  -12    9    5      0.19      0.00
  -11    9    5      0.14      0.00
  -10    9    5     -0.39      0.00
   -9    9    5     -0.97      0.00
   -8    9    5     -0.63      0.00
   -7    9    5     -0.65      0.00
   -6    9    5     -0.66      0.00
   -5    9    5      1.28      0.00
   -4    9    5      3.51      0.00
   -3    9    5      1.06      0.00
   -2    9    5     -2.11      0.00
   -1    9    5     -0.09      0.00
    0    9    5      1.43      0.00
    1    9    5     -1.43      0.00
    2    9    5     -2.96      0.00
    3    9    5     -0.26      0.00
    4    9    5      1.01      0.00
    5    9    5      0.00      0.00
    6    9    5     -0.23      0.00
    7    9    5     -0.37      0.00
    8    9    5     -0.14      0.00
    9    9    5      0.23      0.00
   10    9    5     -0.24      0.00
   11    9    5      0.08      0.00
   12    9    5      0.53      0.00
  -14   10    5     -0.11      0.00
  -13   10    5      0.03      0.00
  -12   10    5      0.58      0.00
  -11   10    5      0.03      0.00
  -10   10    5     -0.87      0.00
   -9   10    5     -0.46      0.00
   -8   10    5      0.62      0.00
   -7   10    5      1.02      0.00
   -6   10    5     -0.16      0.00
   -5   10    5     -1.41      0.00
   -4   10    5     -0.55      0.00
   -3   10    5      1.16      0.00
   -2   10    5      1.98      0.00
   -1   10    5     -0.40      0.00
    0   10    5     -1.42      0.00
    1   10    5      1.00      0.00
    2   10    5      1.45      0.00
    3   10    5     -0.88      0.00
    4   10    5     -1.88      0.00
    5   10    5      0.09      0.00
    6   10    5      0.78      0.00
    7   10    5      0.26      0.00
    8   10    5      0.46      0.00
    9   10    5      0.51      0.00
   10   10    5      0.41      0.00
   11   10    5      0.41      0.00
   12   10    5     -0.20      0.00
  -14   11    5      0.12      0.00
  -13   11    5     -0.25      0.00
  -12   11    5      0.04      0.00
  -11   11    5      0.58      0.00
  -10   11    5     -0.21      0.00
   -9   11    5     -1.01      0.00
   -8   11    5     -0.51      0.00
   -7   11    5     -0.37      0.00
   -6   11    5     -0.39      0.00
   -5   11    5      0.73      0.00
   -4   11    5      2.08      0.00
   -3   11    5      0.91      0.00
   -2   11    5     -0.12      0.00
   -1   11    5      1.46      0.00
    0   11    5      0.74      0.00
    1   11    5     -1.79      0.00
    2   11    5     -1.84      0.00
    3   11    5      0.26      0.00
    4   11    5      0.14      0.00
    5   11    5     -0.63      0.00
    6   11    5     -0.17      0.00
    7   11    5     -0.28      0.00
    8   11    5     -0.48      0.00
    9   11    5     -0.08      0.00
   10   11    5     -0.07      0.00
   11   11    5      0.19      0.00
   12   11    5      0.58      0.00
  -13   12    5      0.34      0.00
  -12   12    5      0.13      0.00
  -11   12    5     -0.29      0.00
  -10   12    5     -0.58      0.00
   -9   12    5     -0.48      0.00
   -8   12    5     -0.06      0.00
   -7   12    5      0.45      0.00
   -6   12    5      0.64      0.00
   -5   12    5      0.39      0.00
   -4   12    5      0.17      0.00
   -3   12    5      0.83      0.00
   -2   12    5      1.65      0.00
   -1   12    5     -0.32      0.00
    0   12    5     -2.32      0.00
    1   12    5     -1.02      0.00
    2   12    5     -0.12      0.00
    3   12    5     -1.49      0.00
    4   12    5     -2.00      0.00
    5   12    5      0.26      0.00
    6   12    5      1.82      0.00
    7   12    5      1.13      0.00
    8   12    5      0.39      0.00
    9   12    5      0.39      0.00
   10   12    5      0.56      0.00
   11   12    5      0.09      0.00
  -13   13    5     -0.33      0.00
  -12   13    5      0.23      0.00
  -11   13    5      0.37      0.00
  -10   13    5     -0.30      0.00
   -9   13    5     -0.46      0.00
   -8   13    5      0.18      0.00
   -7   13    5     -0.05      0.00
   -6   13    5     -0.34      0.00
   -5   13    5      0.44      0.00
   -4   13    5      1.01      0.00
   -3   13    5      0.26      0.00
   -2   13    5      0.18      0.00
   -1   13    5      1.24      0.00
    0   13    5      0.04      0.00
    1   13    5     -1.16      0.00
    2   13    5     -0.43      0.00
    3   13    5      0.28      0.00
    4   13    5     -0.71      0.00
    5   13    5     -0.84      0.00
    6   13    5      0.15      0.00
    7   13    5      0.19      0.00
    8   13    5     -0.48      0.00
    9   13    5     -0.48      0.00
   10   13    5     -0.03      0.00
   11   13    5      0.11      0.00
  -13   14    5      0.15      0.00
  -12   14    5     -0.08      0.00
  -11   14    5      0.16      0.00
  -10   14    5      0.15      0.00
   -9   14    5     -0.17      0.00
   -8   14    5     -0.50      0.00
   -7   14    5     -0.40      0.00
   -6   14    5      0.66      0.00
   -5   14    5      1.84      0.00
   -4   14    5      0.83      0.00
   -3   14    5     -0.13      0.00
   -2   14    5      1.04      0.00
   -1   14    5      0.93      0.00
    0   14    5     -1.61      0.00
    1   14    5     -2.37      0.00
    2   14    5     -1.04      0.00
    3   14    5     -0.76      0.00
    4   14    5     -1.51      0.00
    5   14    5     -0.34      0.00
    6   14    5      1.51      0.00
    7   14    5      1.33      0.00
    8   14    5      0.64      0.00
    9   14    5      0.44      0.00
   10   14    5      0.67      0.00
   11   14    5     -0.02      0.00
  -13   15    5      0.24      0.00
  -12   15    5      0.47      0.00
  -11   15    5     -0.18      0.00
  -10   15    5     -0.53      0.00
   -9   15    5     -0.02      0.00
   -8   15    5      0.69      0.00
   -7   15    5      0.07      0.00
   -6   15    5     -0.73      0.00
   -5   15    5      0.32      0.00
   -4   15    5      1.16      0.00
   -3   15    5      0.15      0.00
   -2   15    5     -0.69      0.00
   -1   15    5      0.04      0.00
    0   15    5      0.34      0.00
    1   15    5      0.22      0.00
    2   15    5     -0.04      0.00
    3   15    5     -0.50      0.00
    4   15    5     -0.78      0.00
    5   15    5     -0.33      0.00
    6   15    5      0.29      0.00
    7   15    5      0.32      0.00
    8   15    5     -0.21      0.00
    9   15    5     -0.52      0.00
   10   15    5     -0.07      0.00
   11   15    5     -0.04      0.00
  -13   16    5     -0.11      0.00
  -12   16    5      0.26      0.00
  -11   16    5      0.83      0.00
  -10   16    5      0.42      0.00
   -9   16    5     -0.04      0.00
   -8   16    5     -0.39      0.00
   -7   16    5     -0.64      0.00
   -6   16    5      0.00      0.00
   -5   16    5      1.60      0.00
   -4   16    5      1.02      0.00
   -3   16    5     -0.10      0.00
   -2   16    5      1.02      0.00
   -1   16    5      1.44      0.00
    0   16    5     -1.13      0.00
    1   16    5     -2.31      0.00
    2   16    5     -0.33      0.00
    3   16    5      0.40      0.00
    4   16    5     -1.29      0.00
    5   16    5     -1.13      0.00
    6   16    5      0.71      0.00
    7   16    5      0.82      0.00
    8   16    5      0.51      0.00
    9   16    5      0.25      0.00
   10   16    5      0.49      0.00
   11   16    5      0.00      0.00
  -12   17    5      0.33      0.00
  -11   17    5     -0.41      0.00
  -10   17    5     -0.36      0.00
   -9   17    5     -0.13      0.00
   -8   17    5      0.35      0.00
   -7   17    5      0.17      0.00
   -6   17    5     -0.76      0.00
   -5   17    5      0.03      0.00
   -4   17    5      1.11      0.00
   -3   17    5      0.31      0.00
   -2   17    5     -0.97      0.00
   -1   17    5     -0.60      0.00
    0   17    5      0.73      0.00
    1   17    5      0.78      0.00
    2   17    5     -0.45      0.00
    3   17    5     -0.82      0.00
    4   17    5      0.06      0.00
    5   17    5      0.25      0.00
    6   17    5     -0.02      0.00
    7   17    5      0.06      0.00
    8   17    5      0.17      0.00
    9   17    5     -0.20      0.00
   10   17    5     -0.16      0.00
  -12   18    5      0.56      0.00
  -11   18    5      0.74      0.00
  -10   18    5      0.01      0.00
   -9   18    5     -0.05      0.00
   -8   18    5     -0.06      0.00
   -7   18    5     -0.37      0.00
   -6   18    5     -0.48      0.00
   -5   18    5      0.45      0.00
   -4   18    5      0.65      0.00
   -3   18    5      0.42      0.00
   -2   18    5      1.25      0.00
   -1   18    5      1.08      0.00
    0   18    5     -0.87      0.00
    1   18    5     -1.16      0.00
    2   18    5      0.68      0.00
    3   18    5      0.66      0.00
    4   18    5     -1.26      0.00
    5   18    5     -1.10      0.00
    6   18    5      0.30      0.00
    7   18    5      0.03      0.00
    8   18    5     -0.11      0.00
    9   18    5     -0.15      0.00
   10   18    5      0.05      0.00
  -12   19    5     -0.14      0.00
  -11   19    5     -0.25      0.00
  -10   19    5      0.10      0.00
   -9   19    5     -0.52      0.00
   -8   19    5     -0.47      0.00
   -7   19    5      0.32      0.00
   -6   19    5     -0.12      0.00
   -5   19    5     -0.34      0.00
   -4   19    5      0.09      0.00
   -3   19    5      0.12      0.00
   -2   19    5     -0.28      0.00
   -1   19    5     -0.42      0.00
    0   19    5      0.33      0.00
    1   19    5      0.26      0.00
    2   19    5     -0.51      0.00
    3   19    5     -0.24      0.00
    4   19    5      0.69      0.00
    5   19    5      0.17      0.00
    6   19    5     -0.40      0.00
    7   19    5     -0.07      0.00
    8   19    5      0.54      0.00
    9   19    5      0.24      0.00
   10   19    5     -0.21      0.00
  -12   20    5      0.34      0.00
  -11   20    5     -0.22      0.00
  -10   20    5     -0.56      0.00
   -9   20    5      0.10      0.00
   -8   20    5     -0.02      0.00
   -7   20    5     -0.29      0.00
   -6   20    5     -0.32      0.00
   -5   20    5      0.01      0.00
   -4   20    5      0.23      0.00
   -3   20    5      0.28      0.00
   -2   20    5      0.95      0.00
   -1   20    5      0.83      0.00
    0   20    5     -0.13      0.00
    1   20    5     -0.09      0.00
    2   20    5      0.59      0.00
    3   20    5      0.11      0.00
    4   20    5     -0.79      0.00
    5   20    5     -0.35      0.00
    6   20    5      0.21      0.00
    7   20    5     -0.43      0.00
    8   20    5     -0.49      0.00
    9   20    5     -0.27      0.00
   10   20    5     -0.29      0.00
  -11   21    5     -0.20      0.00
  -10   21    5      0.25      0.00
   -9   21    5     -0.61      0.00
   -8   21    5     -0.81      0.00
   -7   21    5      0.29      0.00
   -6   21    5      0.45      0.00
   -5   21    5     -0.46      0.00
   -4   21    5     -0.80      0.00
   -3   21    5     -0.12      0.00
   -2   21    5      0.44      0.00
   -1   21    5     -0.18      0.00
    0   21    5     -0.38      0.00
    1   21    5     -0.14      0.00
    2   21    5      0.07      0.00
    3   21    5      0.18      0.00
    4   21    5      0.26      0.00
    5   21    5     -0.30      0.00
    6   21    5     -0.48      0.00
    7   21    5      0.01      0.00
    8   21    5      0.71      0.00
    9   21    5      0.62      0.00
  -11   22    5     -1.05      0.00
  -10   22    5     -0.75      0.00
   -9   22    5      0.30      0.00
   -8   22    5     -0.26      0.00
   -7   22    5     -0.65      0.00
   -6   22    5     -0.04      0.00
   -5   22    5      0.35      0.00
   -4   22    5      0.22      0.00
   -3   22    5     -0.32      0.00
   -2   22    5      0.18      0.00
   -1   22    5      0.81      0.00
    0   22    5      0.73      0.00
    1   22    5      0.24      0.00
    2   22    5     -0.19      0.00
    3   22    5     -0.16      0.00
    4   22    5      0.08      0.00
    5   22    5      0.22      0.00
    6   22    5      0.08      0.00
    7   22    5     -0.29      0.00
    8   22    5     -0.25      0.00
    9   22    5     -0.02      0.00
  -11   23    5     -0.39      0.00
  -10   23    5     -0.03      0.00
   -9   23    5     -0.20      0.00
   -8   23    5     -0.32      0.00
   -7   23    5      0.05      0.00
   -6   23    5      0.31      0.00
   -5   23    5     -0.32      0.00
   -4   23    5     -0.57      0.00
   -3   23    5      0.19      0.00
   -2   23    5      0.56      0.00
   -1   23    5     -0.29      0.00
    0   23    5     -0.58      0.00
    1   23    5      0.13      0.00
    2   23    5      0.49      0.00
    3   23    5     -0.27      0.00
    4   23    5     -0.58      0.00
    5   23    5     -0.37      0.00
    6   23    5     -0.38      0.00
    7   23    5     -0.10      0.00
    8   23    5      0.57      0.00
    9   23    5      0.80      0.00
  -10   24    5     -0.53      0.00
   -9   24    5      0.21      0.00
   -8   24    5     -0.40      0.00
   -7   24    5     -0.87      0.00
   -6   24    5     -0.18      0.00
   -5   24    5      0.38      0.00
   -4   24    5      0.37      0.00
   -3   24    5     -0.39      0.00
   -2   24    5     -0.38      0.00
   -1   24    5      0.42      0.00
    0   24    5      0.88      0.00
    1   24    5      0.19      0.00
    2   24    5     -0.48      0.00
    3   24    5      0.12      0.00
    4   24    5      0.59      0.00
    5   24    5      0.30      0.00
    6   24    5      0.07      0.00
    7   24    5      0.14      0.00
    8   24    5      0.11      0.00
  -10   25    5     -0.19      0.00
   -9   25    5      0.31      0.00
   -8   25    5      0.30      0.00
   -7   25    5     -0.13      0.00
   -6   25    5     -0.10      0.00
   -5   25    5     -0.23      0.00
   -4   25    5      0.09      0.00
   -3   25    5      0.72      0.00
   -2   25    5      0.36      0.00
   -1   25    5     -0.46      0.00
    0   25    5     -0.31      0.00
    1   25    5      0.51      0.00
    2   25    5      0.35      0.00
    3   25    5     -0.81      0.00
    4   25    5     -0.75      0.00
    5   25    5      0.08      0.00
    6   25    5     -0.29      0.00
    7   25    5     -0.28      0.00
    8   25    5      0.35      0.00
   -9   26    5     -0.09      0.00
   -8   26    5     -0.23      0.00
   -7   26    5     -0.57      0.00
   -6   26    5     -0.46      0.00
   -5   26    5     -0.19      0.00
   -4   26    5      0.26      0.00
   -3   26    5      0.19      0.00
   -2   26    5     -0.39      0.00
   -1   26    5     -0.40      0.00
    0   26    5      0.34      0.00
    1   26    5      0.27      0.00
    2   26    5     -0.17      0.00
    3   26    5      0.23      0.00
    4   26    5      0.34      0.00
    5   26    5      0.30      0.00
    6   26    5      0.30      0.00
    7   26    5      0.25      0.00
   -9   27    5      0.45      0.00
   -8   27    5      0.27      0.00
   -7   27    5     -0.13      0.00
   -6   27    5     -0.08      0.00
   -5   27    5     -0.23      0.00
   -4   27    5      0.03      0.00
   -3   27    5      0.66      0.00
   -2   27    5      0.28      0.00
   -1   27    5     -0.31      0.00
    0   27    5     -0.12      0.00
    1   27    5      0.49      0.00
    2   27    5      0.22      0.00
    3   27    5     -0.60      0.00
    4   27    5     -0.37      0.00
    5   27    5      0.39      0.00
    6   27    5     -0.08      0.00
    7   27    5     -0.08      0.00
   -8   28    5     -0.03      0.00
   -7   28    5     -0.14      0.00
   -6   28    5     -0.36      0.00
   -5   28    5     -0.51      0.00
   -4   28    5     -0.06      0.00
   -3   28    5      0.60      0.00
   -2   28    5     -0.18      0.00
   -1   28    5     -0.98      0.00
    0   28    5     -0.17      0.00
    1   28    5      0.42      0.00
    2   28    5      0.05      0.00
    3   28    5     -0.10      0.00
    4   28    5     -0.11      0.00
    5   28    5      0.37      0.00
    6   28    5      0.32      0.00
   -8   29    5     -0.25      0.00
   -7   29    5     -0.12      0.00
   -6   29    5      0.24      0.00
   -5   29    5     -0.09      0.00
   -4   29    5     -0.54      0.00
   -3   29    5     -0.02      0.00
   -2   29    5      0.34      0.00
   -1   29    5      0.09      0.00
    0   29    5     -0.10      0.00
    1   29    5      0.29      0.00
    2   29    5      0.44      0.00
    3   29    5      0.04      0.00
    4   29    5     -0.22      0.00
    5   29    5      0.23      0.00
    6   29    5      0.33      0.00
   -7   30    5     -0.09      0.00
   -6   30    5     -0.02      0.00
   -5   30    5     -0.15      0.00
   -4   30    5     -0.21      0.00
   -3   30    5      0.41      0.00
   -2   30    5     -0.09      0.00
   -1   30    5     -0.85      0.00
    0   30    5     -0.26      0.00
    1   30    5      0.33      0.00
    2   30    5      0.00      0.00
    3   30    5     -0.22      0.00
    4   30    5     -0.13      0.00
    5   30    5      0.20      0.00
   -6   31    5      0.23      0.00
   -5   31    5      0.24      0.00
   -4   31    5     -0.65      0.00
   -3   31    5     -0.59      0.00
   -2   31    5      0.32      0.00
   -1   31    5      0.46      0.00
    0   31    5      0.01      0.00
    1   31    5      0.12      0.00
    2   31    5      0.53      0.00
    3   31    5      0.29      0.00
    4   31    5     -0.33      0.00
   -5   32    5      0.25      0.00
   -4   32    5     -0.06      0.00
   -3   32    5      0.04      0.00
   -2   32    5     -0.09      0.00
   -1   32    5     -0.34      0.00
    0   32    5     -0.15      0.00
    1   32    5      0.07      0.00
    2   32    5      0.00      0.00
    3   32    5      0.10      0.00
   -4   33    5     -0.14      0.00
   -3   33    5     -0.61      0.00
   -2   33    5      0.14      0.00
   -1   33    5      0.60      0.00
    0   33    5      0.25      0.00
    1   33    5     -0.07      0.00
    2   33    5      0.12      0.00
  -14    0    6     -0.77      0.00
  -13    0    6     -2.14      0.00
  -12    0    6      0.30      0.00
  -11    0    6     -0.18      0.00
  -10    0    6     -0.92      0.00
   -9    0    6      0.64      0.00
   -8    0    6      0.97      0.00
   -7    0    6     -1.37      0.00
   -6    0    6     -1.32      0.00
   -5    0    6      1.04      0.00
   -4    0    6     -0.87      0.00
   -3    0    6     -2.82      0.00
   -2    0    6      1.61      0.00
   -1    0    6      6.58      0.00
    0    0    6      5.17      0.00
    1    0    6     -0.28      0.00
    2    0    6     -1.07      0.00
    3    0    6      1.57      0.00
    4    0    6      1.25      0.00
    5    0    6     -1.04      0.00
    6    0    6     -1.70      0.00
    7    0    6     -0.39      0.00
    8    0    6     -0.72      0.00
    9    0    6     -0.41      0.00
   10    0    6      0.31      0.00
   11    0    6      0.01      0.00
   12    0    6     -0.36      0.00
  -14    1    6      0.45      0.00
  -13    1    6      0.08      0.00
  -12    1    6     -0.20      0.00
  -11    1    6      0.19      0.00
  -10    1    6      0.02      0.00
   -9    1    6     -0.29      0.00
   -8    1    6     -0.18      0.00
   -7    1    6     -0.36      0.00
   -6    1    6     -0.57      0.00
   -5    1    6      0.16      0.00
   -4    1    6      1.05      0.00
   -3    1    6      0.81      0.00
   -2    1    6      0.32      0.00
   -1    1    6      0.73      0.00
    0    1    6      1.51      0.00
    1    1    6      1.63      0.00
    2    1    6      0.20      0.00
    3    1    6     -1.18      0.00
    4    1    6     -1.06      0.00
    5    1    6      0.05      0.00
    6    1    6      0.44      0.00
    7    1    6      0.21      0.00
    8    1    6      0.40      0.00
    9    1    6      0.50      0.00
   10    1    6      0.00      0.00
   11    1    6     -0.18      0.00
   12    1    6      0.03      0.00
  -14    2    6     -0.75      0.00
  -13    2    6     -1.44      0.00
  -12    2    6      0.62      0.00
  -11    2    6     -0.35      0.00
  -10    2    6     -1.17      0.00
   -9    2    6      0.29      0.00
   -8    2    6      0.87      0.00
   -7    2    6     -0.95      0.00
   -6    2    6     -1.16      0.00
   -5    2    6      0.90      0.00
   -4    2    6     -0.08      0.00
   -3    2    6     -1.30      0.00
   -2    2    6      1.42      0.00
   -1    2    6      4.21      0.00
    0    2    6      2.90      0.00
    1    2    6     -0.75      0.00
    2    2    6     -0.80      0.00
    3    2    6      1.17      0.00
    4    2    6      0.69      0.00
    5    2    6     -1.00      0.00
    6    2    6     -1.13      0.00
    7    2    6     -0.03      0.00
    8    2    6     -0.76      0.00
    9    2    6     -0.44      0.00
   10    2    6      0.28      0.00
   11    2    6     -0.23      0.00
   12    2    6     -0.32      0.00
  -14    3    6      0.79      0.00
  -13    3    6     -0.19      0.00
  -12    3    6     -0.52      0.00
  -11    3    6      0.68      0.00
  -10    3    6      0.19      0.00
   -9    3    6     -0.72      0.00
   -8    3    6     -0.45      0.00
   -7    3    6     -0.62      0.00
   -6    3    6     -1.11      0.00
   -5    3    6     -0.02      0.00
   -4    3    6      1.64      0.00
   -3    3    6      1.85      0.00
   -2    3    6      1.66      0.00
   -1    3    6      2.15      0.00
    0    3    6      2.84      0.00
    1    3    6      3.24      0.00
    2    3    6      0.86      0.00
    3    3    6     -2.23      0.00
    4    3    6     -2.52      0.00
    5    3    6     -0.11      0.00
    6    3    6      0.93      0.00
    7    3    6      0.38      0.00
    8    3    6      0.72      0.00
    9    3    6      1.00      0.00
   10    3    6      0.07      0.00
   11    3    6     -0.33      0.00
   12    3    6      0.13      0.00
  -14    4    6     -0.57      0.00
  -13    4    6     -0.01      0.00
  -12    4    6      1.04      0.00
  -11    4    6     -0.75      0.00
  -10    4    6     -1.39      0.00
   -9    4    6     -0.25      0.00
   -8    4    6      0.48      0.00
   -7    4    6     -0.33      0.00
   -6    4    6     -0.71      0.00
   -5    4    6      0.81      0.00
   -4    4    6      1.31      0.00
   -3    4    6      1.25      0.00
   -2    4    6      0.84      0.00
   -1    4    6     -0.16      0.00
    0    4    6     -1.15      0.00
    1    4    6     -1.72      0.00
    2    4    6     -0.61      0.00
    3    4    6      0.31      0.00
    4    4    6     -0.17      0.00
    5    4    6     -0.74      0.00
    6    4    6      0.07      0.00
    7    4    6      0.66      0.00
    8    4    6     -0.85      0.00
    9    4    6     -0.59      0.00
   10    4    6      0.15      0.00
   11    4    6     -0.77      0.00
   12    4    6     -0.23      0.00
  -14    5    6      0.25      0.00
  -13    5    6     -1.03      0.00
  -12    5    6     -0.66      0.00
  -11    5    6      1.11      0.00
  -10    5    6      0.51      0.00
   -9    5    6     -0.63      0.00
   -8    5    6     -0.40      0.00
   -7    5    6     -0.11      0.00
   -6    5    6     -0.60      0.00
   -5    5    6     -0.85      0.00
   -4    5    6     -0.29      0.00
   -3    5    6      1.47      0.00
   -2    5    6      3.49      0.00
   -1    5    6      3.03      0.00
    0    5    6      1.28      0.00
    1    5    6      2.02      0.00
    2    5    6      1.86      0.00
    3    5    6     -1.08      0.00
    4    5    6     -2.68      0.00
    5    5    6     -0.55      0.00
    6    5    6      0.77      0.00
    7    5    6      0.26      0.00
    8    5    6      0.39      0.00
    9    5    6      0.66      0.00
   10    5    6      0.16      0.00
   11    5    6     -0.23      0.00
   12    5    6      0.15      0.00
  -14    6    6     -0.19      0.00
  -13    6    6      0.92      0.00
  -12    6    6      0.73      0.00
  -11    6    6     -1.08      0.00
  -10    6    6     -0.83      0.00
   -9    6    6     -0.17      0.00
   -8    6    6     -0.24      0.00
   -7    6    6     -0.41      0.00
   -6    6    6     -0.12      0.00
   -5    6    6      1.18      0.00
   -4    6    6      1.73      0.00
   -3    6    6      1.75      0.00
   -2    6    6     -0.01      0.00
   -1    6    6     -2.00      0.00
    0    6    6     -2.47      0.00
    1    6    6     -2.31      0.00
    2    6    6     -1.18      0.00
    3    6    6     -0.20      0.00
    4    6    6     -0.08      0.00
    5    6    6     -0.31      0.00
    6    6    6      0.71      0.00
    7    6    6      0.97      0.00
    8    6    6     -0.86      0.00
    9    6    6     -0.77      0.00
   10    6    6     -0.06      0.00
   11    6    6     -1.15      0.00
  -14    7    6     -0.48      0.00
  -13    7    6     -1.47      0.00
  -12    7    6     -0.45      0.00
  -11    7    6      0.96      0.00
  -10    7    6      0.56      0.00
   -9    7    6      0.09      0.00
   -8    7    6      0.15      0.00
   -7    7    6      0.47      0.00
   -6    7    6      0.12      0.00
   -5    7    6     -1.40      0.00
   -4    7    6     -2.48      0.00
   -3    7    6      0.01      0.00
   -2    7    6      3.76      0.00
   -1    7    6      2.53      0.00
    0    7    6     -1.00      0.00
    1    7    6      0.20      0.00
    2    7    6      2.53      0.00
    3    7    6      0.44      0.00
    4    7    6     -2.04      0.00
    5    7    6     -0.71      0.00
    6    7    6      0.54      0.00
    7    7    6      0.31      0.00
    8    7    6      0.10      0.00
    9    7    6      0.06      0.00
   10    7    6      0.14      0.00
   11    7    6     -0.17      0.00
  -14    8    6      0.09      0.00
  -13    8    6      0.79      0.00
  -12    8    6     -0.10      0.00
  -11    8    6     -0.96      0.00
  -10    8    6      0.29      0.00
   -9    8    6      0.45      0.00
   -8    8    6     -0.82      0.00
   -7    8    6     -1.02      0.00
   -6    8    6      0.18      0.00
   -5    8    6      1.50      0.00
   -4    8    6      0.97      0.00
   -3    8    6      0.26      0.00
   -2    8    6     -0.68      0.00
   -1    8    6     -0.76      0.00
    0    8    6     -0.57      0.00
    1    8    6     -1.86      0.00
    2    8    6     -1.72      0.00
    3    8    6      0.14      0.00
    4    8    6      0.83      0.00
    5    8    6     -0.15      0.00
    6    8    6      0.13      0.00
    7    8    6      0.49      0.00
    8    8    6     -0.67      0.00
    9    8    6     -0.71      0.00
   10    8    6     -0.13      0.00
   11    8    6     -1.05      0.00
  -14    9    6     -0.63      0.00
  -13    9    6     -0.88      0.00
  -12    9    6      0.00      0.00
  -11    9    6      0.15      0.00
  -10    9    6      0.18      0.00
   -9    9    6      0.98      0.00
   -8    9    6      0.77      0.00
   -7    9    6      0.30      0.00
   -6    9    6      0.12      0.00
   -5    9    6     -0.96      0.00
   -4    9    6     -2.59      0.00
   -3    9    6     -1.27      0.00
   -2    9    6      1.87      0.00
   -1    9    6      1.00      0.00
    0    9    6     -1.49      0.00
    1    9    6     -0.17      0.00
    2    9    6      2.11      0.00
    3    9    6      0.61      0.00
    4    9    6     -1.11      0.00
    5    9    6     -0.23      0.00
    6    9    6      0.48      0.00
    7    9    6      0.46      0.00
    8    9    6      0.27      0.00
    9    9    6     -0.12      0.00
   10    9    6      0.03      0.00
   11    9    6     -0.24      0.00
  -14   10    6      0.05      0.00
  -13   10    6      0.11      0.00
  -12   10    6     -0.52      0.00
  -11   10    6     -0.43      0.00
  -10   10    6      0.93      0.00
   -9   10    6      0.87      0.00
   -8   10    6     -0.73      0.00
   -7   10    6     -1.21      0.00
   -6   10    6     -0.12      0.00
   -5   10    6      0.79      0.00
   -4   10    6     -0.04      0.00
   -3   10    6     -0.70      0.00
   -2   10    6     -0.76      0.00
   -1   10    6      0.47      0.00
    0   10    6      1.50      0.00
    1   10    6     -0.30      0.00
    2   10    6     -0.97      0.00
    3   10    6      0.90      0.00
    4   10    6      1.42      0.00
    5   10    6     -0.34      0.00
    6   10    6     -1.07      0.00
    7   10    6     -0.53      0.00
    8   10    6     -0.50      0.00
    9   10    6     -0.42      0.00
   10   10    6     -0.08      0.00
   11   10    6     -0.61      0.00
  -13   11    6      0.11      0.00
  -12   11    6      0.25      0.00
  -11   11    6     -0.59      0.00
  -10   11    6     -0.18      0.00
   -9   11    6      1.30      0.00
   -8   11    6      0.77      0.00
   -7   11    6     -0.47      0.00
   -6   11    6     -0.36      0.00
   -5   11    6     -0.07      0.00
   -4   11    6     -1.16      0.00
   -3   11    6     -1.56      0.00
   -2   11    6     -0.12      0.00
   -1   11    6     -0.09      0.00
    0   11    6     -0.47      0.00
    1   11    6      0.32      0.00
    2   11    6      0.82      0.00
    3   11    6     -0.01      0.00
    4   11    6      0.00      0.00
    5   11    6      0.49      0.00
    6   11    6      0.24      0.00
    7   11    6      0.22      0.00
    8   11    6      0.50      0.00
    9   11    6      0.17      0.00
   10   11    6     -0.02      0.00
   11   11    6     -0.24      0.00
  -13   12    6     -0.28      0.00
  -12   12    6     -0.25      0.00
  -11   12    6     -0.01      0.00
  -10   12    6      0.58      0.00
   -9   12    6      0.68      0.00
   -8   12    6     -0.08      0.00
   -7   12    6     -0.57      0.00
   -6   12    6     -0.70      0.00
   -5   12    6     -0.89      0.00
   -4   12    6     -0.69      0.00
   -3   12    6     -0.05      0.00
   -2   12    6     -0.45      0.00
   -1   12    6     -0.17      0.00
    0   12    6      1.77      0.00
    1   12    6      1.69      0.00
    2   12    6      0.69      0.00
    3   12    6      1.01      0.00
    4   12    6      1.15      0.00
    5   12    6     -0.16      0.00
    6   12    6     -1.60      0.00
    7   12    6     -1.46      0.00
    8   12    6     -0.71      0.00
    9   12    6     -0.26      0.00
   10   12    6     -0.12      0.00
   11   12    6     -0.26      0.00
  -13   13    6      0.49      0.00
  -12   13    6      0.09      0.00
  -11   13    6     -0.58      0.00
  -10   13    6     -0.04      0.00
   -9   13    6      0.90      0.00
   -8   13    6      0.14      0.00
   -7   13    6     -0.96      0.00
   -6   13    6     -0.43      0.00
   -5   13    6      0.34      0.00
   -4   13    6     -0.38      0.00
   -3   13    6     -1.16      0.00
   -2   13    6     -0.37      0.00
   -1   13    6     -0.02      0.00
    0   13    6      0.15      0.00
    1   13    6      0.18      0.00
    2   13    6     -0.15      0.00
    3   13    6      0.03      0.00
    4   13    6      0.89      0.00
    5   13    6      0.69      0.00
    6   13    6     -0.17      0.00
    7   13    6     -0.27      0.00
    8   13    6      0.35      0.00
    9   13    6      0.42      0.00
   10   13    6      0.02      0.00
   11   13    6     -0.10      0.00
  -13   14    6     -0.18      0.00
  -12   14    6      0.06      0.00
  -11   14    6     -0.20      0.00
  -10   14    6     -0.16      0.00
   -9   14    6      0.26      0.00
   -8   14    6      0.38      0.00
   -7   14    6      0.24      0.00
   -6   14    6     -0.79      0.00
   -5   14    6     -2.08      0.00
   -4   14    6     -0.99      0.00
   -3   14    6      0.77      0.00
   -2   14    6     -0.29      0.00
   -1   14    6     -1.40      0.00
    0   14    6      1.09      0.00
    1   14    6      2.87      0.00
    2   14    6      1.55      0.00
    3   14    6      0.16      0.00
    4   14    6      0.59      0.00
    5   14    6      0.68      0.00
    6   14    6     -1.04      0.00
    7   14    6     -1.69      0.00
    8   14    6     -1.06      0.00
    9   14    6     -0.28      0.00
   10   14    6     -0.23      0.00
  -13   15    6      0.19      0.00
  -12   15    6     -0.24      0.00
  -11   15    6     -0.06      0.00
  -10   15    6      0.34      0.00
   -9   15    6      0.35      0.00
   -8   15    6     -0.33      0.00
   -7   15    6     -0.76      0.00
   -6   15    6      0.04      0.00
   -5   15    6      0.13      0.00
   -4   15    6     -0.80      0.00
   -3   15    6     -0.77      0.00
   -2   15    6      0.45      0.00
   -1   15    6      0.42      0.00
    0   15    6     -0.25      0.00
    1   15    6     -0.42      0.00
    2   15    6     -0.05      0.00
    3   15    6      0.71      0.00
    4   15    6      0.84      0.00
    5   15    6      0.16      0.00
    6   15    6     -0.30      0.00
    7   15    6     -0.40      0.00
    8   15    6     -0.05      0.00
    9   15    6      0.30      0.00
   10   15    6      0.11      0.00
  -12   16    6     -0.07      0.00
  -11   16    6     -0.71      0.00
  -10   16    6     -0.37      0.00
   -9   16    6      0.06      0.00
   -8   16    6      0.16      0.00
   -7   16    6      0.47      0.00
   -6   16    6     -0.17      0.00
   -5   16    6     -1.69      0.00
   -4   16    6     -1.02      0.00
   -3   16    6      0.51      0.00
   -2   16    6     -0.45      0.00
   -1   16    6     -1.53      0.00
    0   16    6      0.65      0.00
    1   16    6      2.47      0.00
    2   16    6      0.96      0.00
    3   16    6     -0.68      0.00
    4   16    6      0.38      0.00
    5   16    6      1.33      0.00
    6   16    6     -0.21      0.00
    7   16    6     -1.07      0.00
    8   16    6     -0.84      0.00
    9   16    6     -0.15      0.00
   10   16    6     -0.16      0.00
  -12   17    6     -0.34      0.00
  -11   17    6      0.29      0.00
  -10   17    6      0.39      0.00
   -9   17    6      0.23      0.00
   -8   17    6     -0.09      0.00
   -7   17    6     -0.34      0.00
   -6   17    6      0.32      0.00
   -5   17    6     -0.08      0.00
   -4   17    6     -1.03      0.00
   -3   17    6     -0.45      0.00
   -2   17    6      0.65      0.00
   -1   17    6      0.34      0.00
    0   17    6     -0.54      0.00
    1   17    6     -0.37      0.00
    2   17    6      0.49      0.00
    3   17    6      0.88      0.00
    4   17    6     -0.02      0.00
    5   17    6     -0.45      0.00
    6   17    6     -0.05      0.00
    7   17    6     -0.10      0.00
    8   17    6     -0.40      0.00
    9   17    6     -0.10      0.00
   10   17    6      0.18      0.00
  -12   18    6     -0.29      0.00
  -11   18    6     -0.72      0.00
  -10   18    6      0.13      0.00
   -9   18    6      0.08      0.00
   -8   18    6     -0.39      0.00
   -7   18    6      0.20      0.00
   -6   18    6      0.46      0.00
   -5   18    6     -0.53      0.00
   -4   18    6     -0.83      0.00
   -3   18    6     -0.24      0.00
   -2   18    6     -0.54      0.00
   -1   18    6     -0.86      0.00
    0   18    6      0.30      0.00
    1   18    6      1.07      0.00
    2   18    6      0.11      0.00
    3   18    6     -0.57      0.00
    4   18    6      0.37      0.00
    5   18    6      0.96      0.00
    6   18    6      0.08      0.00
    7   18    6     -0.09      0.00
    8   18    6     -0.05      0.00
    9   18    6      0.13      0.00
   10   18    6      0.10      0.00
  -12   19    6     -0.13      0.00
  -11   19    6      0.26      0.00
  -10   19    6      0.11      0.00
   -9   19    6      0.44      0.00
   -8   19    6      0.47      0.00
   -7   19    6     -0.20      0.00
   -6   19    6      0.03      0.00
   -5   19    6      0.01      0.00
   -4   19    6     -0.25      0.00
   -3   19    6      0.00      0.00
   -2   19    6     -0.08      0.00
   -1   19    6     -0.15      0.00
    0   19    6      0.01      0.00
    1   19    6      0.28      0.00
    2   19    6      0.42      0.00
    3   19    6      0.33      0.00
    4   19    6     -0.47      0.00
    5   19    6     -0.47      0.00
    6   19    6      0.12      0.00
    7   19    6      0.11      0.00
    8   19    6     -0.54      0.00
    9   19    6     -0.47      0.00
  -11   20    6     -0.06      0.00
  -10   20    6      0.81      0.00
   -9   20    6      0.09      0.00
   -8   20    6     -0.57      0.00
   -7   20    6      0.03      0.00
   -6   20    6      0.47      0.00
   -5   20    6     -0.03      0.00
   -4   20    6     -0.67      0.00
   -3   20    6     -0.36      0.00
   -2   20    6     -0.24      0.00
   -1   20    6     -0.51      0.00
    0   20    6     -0.35      0.00
    1   20    6      0.00      0.00
    2   20    6      0.11      0.00
    3   20    6      0.11      0.00
    4   20    6      0.08      0.00
    5   20    6      0.02      0.00
    6   20    6     -0.02      0.00
    7   20    6      0.49      0.00
    8   20    6      0.54      0.00
    9   20    6      0.21      0.00
  -11   21    6      0.25      0.00
  -10   21    6     -0.01      0.00
   -9   21    6      0.52      0.00
   -8   21    6      0.56      0.00
   -7   21    6     -0.23      0.00
   -6   21    6     -0.30      0.00
   -5   21    6      0.18      0.00
   -4   21    6      0.57      0.00
   -3   21    6      0.24      0.00
   -2   21    6     -0.80      0.00
   -1   21    6     -0.41      0.00
    0   21    6      0.66      0.00
    1   21    6      0.58      0.00
    2   21    6     -0.20      0.00
    3   21    6     -0.02      0.00
    4   21    6      0.12      0.00
    5   21    6     -0.04      0.00
    6   21    6      0.02      0.00
    7   21    6      0.09      0.00
    8   21    6     -0.43      0.00
    9   21    6     -0.66      0.00
  -11   22    6      0.60      0.00
  -10   22    6      1.09      0.00
   -9   22    6      0.11      0.00
   -8   22    6     -0.26      0.00
   -7   22    6      0.21      0.00
   -6   22    6      0.15      0.00
   -5   22    6     -0.29      0.00
   -4   22    6     -0.66      0.00
   -3   22    6      0.03      0.00
   -2   22    6      0.23      0.00
   -1   22    6     -0.54      0.00
    0   22    6     -0.83      0.00
    1   22    6     -0.19      0.00
    2   22    6      0.53      0.00
    3   22    6      0.32      0.00
    4   22    6     -0.41      0.00
    5   22    6     -0.50      0.00
    6   22    6     -0.13      0.00
    7   22    6      0.29      0.00
    8   22    6      0.43      0.00
  -10   23    6      0.19      0.00
   -9   23    6      0.20      0.00
   -8   23    6      0.03      0.00
   -7   23    6     -0.14      0.00
   -6   23    6     -0.18      0.00
   -5   23    6      0.17      0.00
   -4   23    6      0.47      0.00
   -3   23    6     -0.09      0.00
   -2   23    6     -0.90      0.00
   -1   23    6     -0.31      0.00
    0   23    6      0.62      0.00
    1   23    6      0.26      0.00
    2   23    6     -0.51      0.00
    3   23    6      0.28      0.00
    4   23    6      0.90      0.00
    5   23    6      0.18      0.00
    6   23    6     -0.06      0.00
    7   23    6      0.16      0.00
    8   23    6     -0.21      0.00
  -10   24    6      0.85      0.00
   -9   24    6      0.24      0.00
   -8   24    6      0.10      0.00
   -7   24    6      0.35      0.00
   -6   24    6      0.09      0.00
   -5   24    6     -0.32      0.00
   -4   24    6     -0.60      0.00
   -3   24    6      0.08      0.00
   -2   24    6      0.39      0.00
   -1   24    6     -0.22      0.00
    0   24    6     -0.58      0.00
    1   24    6     -0.06      0.00
    2   24    6      0.51      0.00
    3   24    6      0.00      0.00
    4   24    6     -0.59      0.00
    5   24    6     -0.46      0.00
    6   24    6     -0.30      0.00
    7   24    6     -0.28      0.00
  -10   25    6      0.30      0.00
   -9   25    6     -0.26      0.00
   -8   25    6     -0.47      0.00
   -7   25    6      0.02      0.00
   -6   25    6      0.08      0.00
   -5   25    6      0.07      0.00
   -4   25    6     -0.06      0.00
   -3   25    6     -0.58      0.00
   -2   25    6     -0.65      0.00
   -1   25    6     -0.16      0.00
    0   25    6      0.15      0.00
    1   25    6     -0.07      0.00
    2   25    6     -0.25      0.00
    3   25    6      0.53      0.00
    4   25    6      0.88      0.00
    5   25    6      0.00      0.00
    6   25    6      0.04      0.00
    7   25    6      0.25      0.00
   -9   26    6      0.36      0.00
   -8   26    6      0.13      0.00
   -7   26    6      0.17      0.00
   -6   26    6      0.26      0.00
   -5   26    6      0.14      0.00
   -4   26    6     -0.26      0.00
   -3   26    6     -0.31      0.00
   -2   26    6      0.17      0.00
   -1   26    6      0.54      0.00
    0   26    6      0.13      0.00
    1   26    6     -0.17      0.00
    2   26    6      0.13      0.00
    3   26    6     -0.06      0.00
    4   26    6     -0.27      0.00
    5   26    6     -0.42      0.00
    6   26    6     -0.58      0.00
    7   26    6     -0.46      0.00
   -8   27    6     -0.35      0.00
   -7   27    6      0.12      0.00
   -6   27    6      0.02      0.00
   -5   27    6      0.03      0.00
   -4   27    6     -0.05      0.00
   -3   27    6     -0.54      0.00
   -2   27    6     -0.50      0.00
   -1   27    6     -0.24      0.00
    0   27    6     -0.09      0.00
    1   27    6     -0.06      0.00
    2   27    6     -0.06      0.00
    3   27    6      0.20      0.00
    4   27    6      0.35      0.00
    5   27    6     -0.14      0.00
    6   27    6      0.03      0.00
   -8   28    6      0.01      0.00
   -7   28    6     -0.05      0.00
   -6   28    6      0.20      0.00
   -5   28    6      0.36      0.00
   -4   28    6      0.17      0.00
   -3   28    6     -0.51      0.00
   -2   28    6     -0.09      0.00
   -1   28    6      1.04      0.00
    0   28    6      0.62      0.00
    1   28    6     -0.38      0.00
    2   28    6     -0.10      0.00
    3   28    6      0.27      0.00
    4   28    6      0.12      0.00
    5   28    6     -0.49      0.00
   -7   29    6      0.19      0.00
   -6   29    6     -0.18      0.00
   -5   29    6     -0.05      0.00
   -4   29    6      0.35      0.00
   -3   29    6      0.02      0.00
   -2   29    6     -0.49      0.00
   -1   29    6     -0.49      0.00
    0   29    6     -0.06      0.00
    1   29    6      0.04      0.00
    2   29    6     -0.25      0.00
    3   29    6     -0.31      0.00
    4   29    6      0.14      0.00
    5   29    6      0.02      0.00
   -6   30    6     -0.06      0.00
   -5   30    6      0.01      0.00
   -4   30    6      0.35      0.00
   -3   30    6     -0.21      0.00
   -2   30    6     -0.16      0.00
   -1   30    6      0.83      0.00
    0   30    6      0.63      0.00
    1   30    6     -0.33      0.00
    2   30    6     -0.14      0.00
    3   30    6      0.33      0.00
    4   30    6      0.18      0.00
   -5   31    6     -0.23      0.00
   -4   31    6      0.35      0.00
   -3   31    6      0.48      0.00
   -2   31    6     -0.38      0.00
   -1   31    6     -0.73      0.00
    0   31    6     -0.13      0.00
    1   31    6      0.11      0.00
    2   31    6     -0.30      0.00
    3   31    6     -0.41      0.00
   -4   32    6      0.19      0.00
   -3   32    6      0.13      0.00
   -2   32    6     -0.07      0.00
   -1   32    6      0.28      0.00
    0   32    6      0.40      0.00
    1   32    6     -0.10      0.00
    2   32    6     -0.23      0.00
  -14    0    7     -0.46      0.00
  -13    0    7      2.55      0.00
  -12    0    7      0.75      0.00
  -11    0    7     -0.34      0.00
  -10    0    7      0.63      0.00
   -9    0    7      0.78      0.00
   -8    0    7      0.43      0.00
   -7    0    7      0.37      0.00
   -6    0    7      0.80      0.00
   -5    0    7      0.05      0.00
   -4    0    7      0.89      0.00
   -3    0    7      2.15      0.00
   -2    0    7     -0.86      0.00
   -1    0    7     -4.35      0.00
    0    0    7     -4.13      0.00
    1    0    7     -0.23      0.00
    2    0    7      1.22      0.00
    3    0    7     -0.96      0.00
    4    0    7     -0.74      0.00
    5    0    7      1.17      0.00
    6    0    7      1.43      0.00
    7    0    7     -0.08      0.00
    8    0    7      0.44      0.00
    9    0    7      0.97      0.00
   10    0    7     -0.06      0.00
   11    0    7     -0.10      0.00
  -14    1    7     -0.34      0.00
  -13    1    7     -0.24      0.00
  -12    1    7      0.27      0.00
  -11    1    7     -0.02      0.00
  -10    1    7     -0.24      0.00
   -9    1    7      0.02      0.00
   -8    1    7      0.34      0.00
   -7    1    7      0.52      0.00
   -6    1    7      0.30      0.00
   -5    1    7     -0.43      0.00
   -4    1    7     -0.75      0.00
   -3    1    7     -0.19      0.00
   -2    1    7     -0.27      0.00
   -1    1    7     -1.24      0.00
    0    1    7     -1.39      0.00
    1    1    7     -0.72      0.00
    2    1    7      0.03      0.00
    3    1    7      0.37      0.00
    4    1    7      0.60      0.00
    5    1    7      0.36      0.00
    6    1    7     -0.13      0.00
    7    1    7     -0.45      0.00
    8    1    7     -0.65      0.00
    9    1    7     -0.40      0.00
   10    1    7      0.20      0.00
   11    1    7      0.30      0.00
  -14    2    7     -0.25      0.00
  -13    2    7      1.92      0.00
  -12    2    7      0.16      0.00
  -11    2    7     -0.22      0.00
  -10    2    7      0.93      0.00
   -9    2    7      0.83      0.00
   -8    2    7      0.24      0.00
   -7    2    7      0.18      0.00
   -6    2    7      0.90      0.00
   -5    2    7      0.07      0.00
   -4    2    7     -0.03      0.00
   -3    2    7      0.90      0.00
   -2    2    7     -0.56      0.00
   -1    2    7     -2.58      0.00
    0    2    7     -2.72      0.00
    1    2    7     -0.04      0.00
    2    2    7      1.22      0.00
    3    2    7     -0.50      0.00
    4    2    7     -0.50      0.00
    5    2    7      0.96      0.00
    6    2    7      1.11      0.00
    7    2    7     -0.19      0.00
    8    2    7      0.38      0.00
    9    2    7      0.85      0.00
   10    2    7     -0.03      0.00
   11    2    7      0.19      0.00
  -14    3    7     -0.61      0.00
  -13    3    7     -0.21      0.00
  -12    3    7      0.70      0.00
  -11    3    7     -0.34      0.00
  -10    3    7     -0.70      0.00
   -9    3    7      0.15      0.00
   -8    3    7      0.86      0.00
   -7    3    7      0.99      0.00
   -6    3    7      0.51      0.00
   -5    3    7     -0.63      0.00
   -4    3    7     -1.11      0.00
   -3    3    7     -0.47      0.00
   -2    3    7     -1.38      0.00
   -1    3    7     -3.22      0.00
    0    3    7     -2.63      0.00
    1    3    7     -1.16      0.00
    2    3    7     -0.25      0.00
    3    3    7      0.41      0.00
    4    3    7      1.42      0.00
    5    3    7      1.01      0.00
    6    3    7     -0.22      0.00
    7    3    7     -0.88      0.00
    8    3    7     -1.32      0.00
    9    3    7     -0.84      0.00
   10    3    7      0.43      0.00
   11    3    7      0.69      0.00
  -14    4    7      0.14      0.00
  -13    4    7      0.60      0.00
  -12    4    7     -0.89      0.00
  -11    4    7      0.08      0.00
  -10    4    7      1.32      0.00
   -9    4    7      0.71      0.00
   -8    4    7     -0.02      0.00
   -7    4    7      0.01      0.00
   -6    4    7      1.02      0.00
   -5    4    7     -0.05      0.00
   -4    4    7     -1.65      0.00
   -3    4    7     -1.25      0.00
   -2    4    7      0.04      0.00
   -1    4    7      0.55      0.00
    0    4    7     -0.25      0.00
    1    4    7      0.44      0.00
    2    4    7      1.45      0.00
    3    4    7      0.43      0.00
    4    4    7     -0.25      0.00
    5    4    7      0.38      0.00
    6    4    7      0.39      0.00
    7    4    7     -0.38      0.00
    8    4    7      0.34      0.00
    9    4    7      0.68      0.00
   10    4    7      0.05      0.00
   11    4    7      0.77      0.00
  -14    5    7     -0.26      0.00
  -13    5    7      0.55      0.00
  -12    5    7      0.83      0.00
  -11    5    7     -0.91      0.00
  -10    5    7     -0.96      0.00
   -9    5    7      0.27      0.00
   -8    5    7      0.85      0.00
   -7    5    7      0.48      0.00
   -6    5    7      0.18      0.00
   -5    5    7      0.21      0.00
   -4    5    7      0.32      0.00
   -3    5    7     -0.35      0.00
   -2    5    7     -2.79      0.00
   -1    5    7     -3.83      0.00
    0    5    7     -1.31      0.00
    1    5    7     -0.03      0.00
    2    5    7     -0.96      0.00
    3    5    7     -0.53      0.00
    4    5    7      1.57      0.00
    5    5    7      1.30      0.00
    6    5    7     -0.19      0.00
    7    5    7     -0.63      0.00
    8    5    7     -0.93      0.00
    9    5    7     -0.65      0.00
   10    5    7      0.36      0.00
   11    5    7      0.76      0.00
  -14    6    7      0.31      0.00
  -13    6    7     -0.35      0.00
  -12    6    7     -1.17      0.00
  -11    6    7      0.43      0.00
  -10    6    7      1.02      0.00
   -9    6    7      0.15      0.00
   -8    6    7      0.13      0.00
   -7    6    7      0.39      0.00
   -6    6    7      0.83      0.00
   -5    6    7     -0.44      0.00
   -4    6    7     -2.08      0.00
   -3    6    7     -1.78      0.00
   -2    6    7      0.31      0.00
   -1    6    7      1.55      0.00
    0    6    7      0.56      0.00
    1    6    7      0.84      0.00
    2    6    7      1.98      0.00
    3    6    7      0.90      0.00
    4    6    7     -0.52      0.00
    5    6    7     -0.20      0.00
    6    6    7     -0.10      0.00
    7    6    7     -0.37      0.00
    8    6    7      0.45      0.00
    9    6    7      0.69      0.00
   10    6    7      0.06      0.00
   11    6    7      1.05      0.00
  -14    7    7      0.23      0.00
  -13    7    7      1.20      0.00
  -12    7    7      0.60      0.00
  -11    7    7     -1.11      0.00
  -10    7    7     -0.73      0.00
   -9    7    7      0.07      0.00
   -8    7    7      0.17      0.00
   -7    7    7     -0.26      0.00
   -6    7    7     -0.09      0.00
   -5    7    7      1.07      0.00
   -4    7    7      1.82      0.00
   -3    7    7      0.32      0.00
   -2    7    7     -2.86      0.00
   -1    7    7     -2.88      0.00
    0    7    7      0.59      0.00
    1    7    7      1.06      0.00
    2    7    7     -1.44      0.00
    3    7    7     -1.11      0.00
    4    7    7      1.36      0.00
    5    7    7      0.98      0.00
    6    7    7     -0.41      0.00
    7    7    7     -0.37      0.00
    8    7    7     -0.30      0.00
    9    7    7     -0.24      0.00
   10    7    7      0.20      0.00
   11    7    7      0.68      0.00
  -14    8    7      0.23      0.00
  -13    8    7     -0.45      0.00
  -12    8    7     -0.52      0.00
  -11    8    7      0.60      0.00
  -10    8    7      0.15      0.00
   -9    8    7     -0.55      0.00
   -8    8    7      0.56      0.00
   -7    8    7      1.04      0.00
   -6    8    7      0.44      0.00
   -5    8    7     -0.72      0.00
   -4    8    7     -1.06      0.00
   -3    8    7     -0.68      0.00
   -2    8    7      0.00      0.00
   -1    8    7      0.24      0.00
    0    8    7     -0.42      0.00
    1    8    7      0.69      0.00
    2    8    7      1.97      0.00
    3    8    7      0.44      0.00
    4    8    7     -0.93      0.00
    5    8    7     -0.16      0.00
    6    8    7      0.11      0.00
    7    8    7     -0.01      0.00
    8    8    7      0.63      0.00
    9    8    7      0.70      0.00
   10    8    7     -0.15      0.00
   11    8    7      0.74      0.00
  -13    9    7      0.98      0.00
  -12    9    7      0.13      0.00
  -11    9    7     -0.58      0.00
  -10    9    7     -0.05      0.00
   -9    9    7     -0.39      0.00
   -8    9    7     -0.64      0.00
   -7    9    7     -0.23      0.00
   -6    9    7      0.28      0.00
   -5    9    7      0.96      0.00
   -4    9    7      1.66      0.00
   -3    9    7      1.08      0.00
   -2    9    7     -1.19      0.00
   -1    9    7     -1.35      0.00
    0    9    7      0.90      0.00
    1    9    7      0.92      0.00
    2    9    7     -1.07      0.00
    3    9    7     -0.58      0.00
    4    9    7      0.91      0.00
    5    9    7      0.19      0.00
    6    9    7     -0.73      0.00
    7    9    7     -0.39      0.00
    8    9    7     -0.16      0.00
    9    9    7     -0.08      0.00
   10    9    7      0.15      0.00
  -13   10    7     -0.11      0.00
  -12   10    7      0.16      0.00
  -11   10    7      0.46      0.00
  -10   10    7     -0.42      0.00
   -9   10    7     -0.83      0.00
   -8   10    7      0.68      0.00
   -7   10    7      1.20      0.00
   -6   10    7      0.29      0.00
   -5   10    7     -0.22      0.00
   -4   10    7      0.25      0.00
   -3   10    7      0.07      0.00
   -2   10    7     -0.57      0.00
   -1   10    7     -0.75      0.00
    0   10    7     -1.22      0.00
    1   10    7     -0.28      0.00
    2   10    7      0.70      0.00
    3   10    7     -0.44      0.00
    4   10    7     -0.74      0.00
    5   10    7      0.40      0.00
    6   10    7      0.68      0.00
    7   10    7      0.59      0.00
    8   10    7      0.83      0.00
    9   10    7      0.59      0.00
   10   10    7     -0.43      0.00
  -13   11    7      0.18      0.00
  -12   11    7     -0.27      0.00
  -11   11    7      0.13      0.00
  -10   11    7      0.51      0.00
   -9   11    7     -0.64      0.00
   -8   11    7     -0.83      0.00
   -7   11    7      0.55      0.00
   -6   11    7      0.98      0.00
   -5   11    7      0.23      0.00
   -4   11    7      0.38      0.00
   -3   11    7      1.34      0.00
   -2   11    7      0.47      0.00
   -1   11    7     -0.51      0.00
    0   11    7     -0.05      0.00
    1   11    7      0.24      0.00
    2   11    7     -0.13      0.00
    3   11    7      0.14      0.00
    4   11    7      0.07      0.00
    5   11    7     -0.45      0.00
    6   11    7     -0.57      0.00
    7   11    7     -0.27      0.00
    8   11    7     -0.28      0.00
    9   11    7     -0.15      0.00
   10   11    7      0.18      0.00
  -13   12    7      0.11      0.00
  -12   12    7      0.24      0.00
  -11   12    7      0.23      0.00
  -10   12    7     -0.25      0.00
   -9   12    7     -0.58      0.00
   -8   12    7      0.32      0.00
   -7   12    7      0.66      0.00
   -6   12    7      0.47      0.00
   -5   12    7      0.97      0.00
   -4   12    7      0.94      0.00
   -3   12    7     -0.38      0.00
   -2   12    7     -0.86      0.00
   -1   12    7     -0.05      0.00
    0   12    7     -0.88      0.00
    1   12    7     -1.61      0.00
    2   12    7     -1.08      0.00
    3   12    7     -0.76      0.00
    4   12    7     -0.06      0.00
    5   12    7      0.55      0.00
    6   12    7      0.83      0.00
    7   12    7      1.12      0.00
    8   12    7      1.15      0.00
    9   12    7      0.51      0.00
   10   12    7     -0.43      0.00
  -13   13    7     -0.39      0.00
  -12   13    7     -0.37      0.00
  -11   13    7      0.36      0.00
  -10   13    7      0.48      0.00
   -9   13    7     -0.44      0.00
   -8   13    7     -0.38      0.00
   -7   13    7      1.11      0.00
   -6   13    7      1.19      0.00
   -5   13    7     -0.14      0.00
   -4   13    7     -0.22      0.00
   -3   13    7      1.07      0.00
   -2   13    7      0.62      0.00
   -1   13    7     -0.55      0.00
    0   13    7     -0.54      0.00
    1   13    7      0.09      0.00
    2   13    7      0.41      0.00
    3   13    7     -0.04      0.00
    4   13    7     -0.77      0.00
    5   13    7     -0.42      0.00
    6   13    7      0.04      0.00
    7   13    7      0.06      0.00
    8   13    7     -0.17      0.00
    9   13    7     -0.13      0.00
   10   13    7      0.18      0.00
  -13   14    7      0.06      0.00
  -12   14    7      0.03      0.00
  -11   14    7      0.27      0.00
  -10   14    7      0.24      0.00
   -9   14    7     -0.20      0.00
   -8   14    7      0.02      0.00
   -7   14    7      0.02      0.00
   -6   14    7      0.45      0.00
   -5   14    7      1.75      0.00
   -4   14    7      1.09      0.00
   -3   14    7     -0.94      0.00
   -2   14    7     -0.68      0.00
   -1   14    7      1.04      0.00
    0   14    7     -0.22      0.00
    1   14    7     -2.26      0.00
    2   14    7     -1.80      0.00
    3   14    7     -0.30      0.00
    4   14    7      0.37      0.00
    5   14    7     -0.12      0.00
    6   14    7      0.33      0.00
    7   14    7      1.22      0.00
    8   14    7      1.35      0.00
    9   14    7      0.48      0.00
   10   14    7     -0.17      0.00
  -12   15    7     -0.18      0.00
  -11   15    7      0.14      0.00
  -10   15    7      0.07      0.00
   -9   15    7     -0.16      0.00
   -8   15    7     -0.02      0.00
   -7   15    7      0.89      0.00
   -6   15    7      0.72      0.00
   -5   15    7      0.09      0.00
   -4   15    7      0.33      0.00
   -3   15    7      0.68      0.00
   -2   15    7     -0.12      0.00
   -1   15    7     -0.61      0.00
    0   15    7     -0.14      0.00
    1   15    7      0.21      0.00
    2   15    7      0.12      0.00
    3   15    7     -0.65      0.00
    4   15    7     -0.84      0.00
    5   15    7      0.16      0.00
    6   15    7      0.46      0.00
    7   15    7      0.19      0.00
    8   15    7      0.12      0.00
    9   15    7      0.12      0.00
  -12   16    7     -0.05      0.00
  -11   16    7      0.55      0.00
  -10   16    7      0.41      0.00
   -9   16    7     -0.04      0.00
   -8   16    7      0.23      0.00
   -7   16    7     -0.14      0.00
   -6   16    7     -0.08      0.00
   -5   16    7      1.32      0.00
   -4   16    7      1.00      0.00
   -3   16    7     -0.62      0.00
   -2   16    7     -0.32      0.00
   -1   16    7      1.07      0.00
    0   16    7      0.04      0.00
    1   16    7     -1.65      0.00
    2   16    7     -1.15      0.00
    3   16    7      0.20      0.00
    4   16    7      0.23      0.00
    5   16    7     -0.72      0.00
    6   16    7     -0.15      0.00
    7   16    7      0.74      0.00
    8   16    7      0.93      0.00
    9   16    7      0.27      0.00
  -12   17    7      0.07      0.00
  -11   17    7     -0.03      0.00
  -10   17    7     -0.17      0.00
   -9   17    7     -0.17      0.00
   -8   17    7     -0.17      0.00
   -7   17    7      0.38      0.00
   -6   17    7      0.19      0.00
   -5   17    7      0.30      0.00
   -4   17    7      0.81      0.00
   -3   17    7      0.33      0.00
   -2   17    7     -0.36      0.00
   -1   17    7     -0.19      0.00
    0   17    7      0.11      0.00
    1   17    7     -0.19      0.00
    2   17    7     -0.32      0.00
    3   17    7     -0.63      0.00
    4   17    7     -0.20      0.00
    5   17    7      0.64      0.00
    6   17    7      0.46      0.00
    7   17    7      0.05      0.00
    8   17    7      0.32      0.00
    9   17    7      0.40      0.00
  -12   18    7     -0.04      0.00
  -11   18    7      0.63      0.00
  -10   18    7      0.09      0.00
   -9   18    7     -0.12      0.00
   -8   18    7      0.69      0.00
   -7   18    7      0.14      0.00
   -6   18    7     -0.59      0.00
   -5   18    7      0.30      0.00
   -4   18    7      0.86      0.00
   -3   18    7      0.11      0.00
   -2   18    7     -0.16      0.00
   -1   18    7      0.41      0.00
    0   18    7      0.19      0.00
    1   18    7     -0.46      0.00
    2   18    7     -0.33      0.00
    3   18    7      0.08      0.00
    4   18    7     -0.01      0.00
    5   18    7     -0.43      0.00
    6   18    7     -0.12      0.00
    7   18    7     -0.02      0.00
    8   18    7     -0.01      0.00
    9   18    7     -0.09      0.00
  -11   19    7     -0.02      0.00
  -10   19    7     -0.14      0.00
   -9   19    7     -0.40      0.00
   -8   19    7     -0.46      0.00
   -7   19    7      0.22      0.00
   -6   19    7      0.09      0.00
   -5   19    7      0.11      0.00
   -4   19    7      0.38      0.00
   -3   19    7     -0.02      0.00
   -2   19    7      0.16      0.00
   -1   19    7      0.39      0.00
    0   19    7     -0.31      0.00
    1   19    7     -0.89      0.00
    2   19    7     -0.22      0.00
    3   19    7      0.00      0.00
    4   19    7      0.13      0.00
    5   19    7      0.51      0.00
    6   19    7      0.39      0.00
    7   19    7      0.01      0.00
    8   19    7      0.31      0.00
  -11   20    7      0.32      0.00
  -10   20    7     -0.42      0.00
   -9   20    7     -0.31      0.00
   -8   20    7      0.76      0.00
   -7   20    7      0.37      0.00
   -6   20    7     -0.48      0.00
   -5   20    7     -0.14      0.00
   -4   20    7      0.72      0.00
   -3   20    7      0.38      0.00
   -2   20    7     -0.25      0.00
   -1   20    7      0.09      0.00
    0   20    7      0.47      0.00
    1   20    7      0.18      0.00
    2   20    7     -0.22      0.00
    3   20    7     -0.29      0.00
    4   20    7      0.11      0.00
    5   20    7      0.30      0.00
    6   20    7      0.14      0.00
    7   20    7     -0.42      0.00
    8   20    7     -0.68      0.00
  -11   21    7     -0.10      0.00
  -10   21    7     -0.12      0.00
   -9   21    7     -0.47      0.00
   -8   21    7     -0.35      0.00
   -7   21    7      0.36      0.00
   -6   21    7      0.18      0.00
   -5   21    7     -0.20      0.00
   -4   21    7     -0.28      0.00
   -3   21    7     -0.19      0.00
   -2   21    7      0.70      0.00
   -1   21    7      0.67      0.00
    0   21    7     -0.65      0.00
    1   21    7     -1.08      0.00
    2   21    7      0.18      0.00
    3   21    7      0.32      0.00
    4   21    7     -0.33      0.00
    5   21    7     -0.02      0.00
    6   21    7      0.42      0.00
    7   21    7      0.10      0.00
    8   21    7      0.11      0.00
  -10   22    7     -0.73      0.00
   -9   22    7     -0.51      0.00
   -8   22    7      0.33      0.00
   -7   22    7      0.32      0.00
   -6   22    7      0.02      0.00
   -5   22    7      0.06      0.00
   -4   22    7      0.60      0.00
   -3   22    7      0.20      0.00
   -2   22    7     -0.31      0.00
   -1   22    7      0.17      0.00
    0   22    7      0.50      0.00
    1   22    7      0.01      0.00
    2   22    7     -0.42      0.00
    3   22    7     -0.21      0.00
    4   22    7      0.45      0.00
    5   22    7      0.61      0.00
    6   22    7      0.27      0.00
    7   22    7     -0.15      0.00
  -10   23    7     -0.25      0.00
   -9   23    7     -0.20      0.00
   -8   23    7      0.18      0.00
   -7   23    7      0.40      0.00
   -6   23    7      0.12      0.00
   -5   23    7     -0.20      0.00
   -4   23    7     -0.29      0.00
   -3   23    7      0.04      0.00
   -2   23    7      0.78      0.00
   -1   23    7      0.68      0.00
    0   23    7     -0.31      0.00
    1   23    7     -0.71      0.00
    2   23    7      0.15      0.00
    3   23    7      0.06      0.00
    4   23    7     -0.82      0.00
    5   23    7     -0.32      0.00
    6   23    7      0.30      0.00
    7   23    7      0.02      0.00
   -9   24    7     -0.62      0.00
   -8   24    7     -0.09      0.00
   -7   24    7      0.22      0.00
   -6   24    7      0.24      0.00
   -5   24    7      0.13      0.00
   -4   24    7      0.37      0.00
   -3   24    7      0.14      0.00
   -2   24    7     -0.16      0.00
   -1   24    7      0.01      0.00
    0   24    7      0.01      0.00
    1   24    7     -0.25      0.00
    2   24    7     -0.31      0.00
    3   24    7      0.15      0.00
    4   24    7      0.56      0.00
    5   24    7      0.50      0.00
    6   24    7      0.41      0.00
    7   24    7      0.40      0.00
   -9   25    7      0.17      0.00
   -8   25    7      0.59      0.00
   -7   25    7      0.25      0.00
   -6   25    7      0.02      0.00
   -5   25    7      0.04      0.00
   -4   25    7      0.10      0.00
   -3   25    7      0.37      0.00
   -2   25    7      0.60      0.00
   -1   25    7      0.63      0.00
    0   25    7      0.26      0.00
    1   25    7     -0.39      0.00
    2   25    7     -0.29      0.00
    3   25    7     -0.16      0.00
    4   25    7     -0.58      0.00
    5   25    7     -0.20      0.00
    6   25    7     -0.01      0.00
   -8   26    7     -0.13      0.00
   -7   26    7      0.26      0.00
   -6   26    7      0.09      0.00
   -5   26    7     -0.18      0.00
   -4   26    7      0.02      0.00
   -3   26    7      0.28      0.00
   -2   26    7      0.12      0.00
   -1   26    7     -0.46      0.00
    0   26    7     -0.58      0.00
    1   26    7     -0.13      0.00
    2   26    7     -0.01      0.00
    3   26    7      0.13      0.00
    4   26    7      0.31      0.00
    5   26    7      0.50      0.00
    6   26    7      0.64      0.00
   -8   27    7      0.48      0.00
   -7   27    7      0.07      0.00
   -6   27    7      0.09      0.00
   -5   27    7      0.18      0.00
   -4   27    7      0.16      0.00
   -3   27    7      0.37      0.00
   -2   27    7      0.46      0.00
   -1   27    7      0.61      0.00
    0   27    7      0.42      0.00
    1   27    7     -0.30      0.00
    2   27    7     -0.45      0.00
    3   27    7      0.04      0.00
    4   27    7     -0.04      0.00
    5   27    7     -0.02      0.00
   -7   28    7      0.30      0.00
   -6   28    7     -0.01      0.00
   -5   28    7     -0.29      0.00
   -4   28    7     -0.30      0.00
   -3   28    7      0.24      0.00
   -2   28    7      0.26      0.00
   -1   28    7     -0.70      0.00
    0   28    7     -0.80      0.00
    1   28    7      0.12      0.00
    2   28    7      0.11      0.00
    3   28    7     -0.21      0.00
    4   28    7      0.00      0.00
   -6   29    7      0.15      0.00
   -5   29    7      0.15      0.00
   -4   29    7     -0.07      0.00
   -3   29    7      0.05      0.00
   -2   29    7      0.40      0.00
   -1   29    7      0.60      0.00
    0   29    7      0.27      0.00
    1   29    7     -0.20      0.00
    2   29    7     -0.17      0.00
    3   29    7      0.29      0.00
   -5   30    7      0.01      0.00
   -4   30    7     -0.40      0.00
   -3   30    7     -0.08      0.00
   -2   30    7      0.23      0.00
   -1   30    7     -0.43      0.00
    0   30    7     -0.64      0.00
    1   30    7      0.12      0.00
    2   30    7      0.17      0.00
   -4   31    7     -0.03      0.00
   -3   31    7     -0.18      0.00
   -2   31    7      0.24      0.00
   -1   31    7      0.58      0.00
    0   31    7      0.24      0.00
    1   31    7     -0.08      0.00
  -14    0    8      1.33      0.00
  -13    0    8     -1.94      0.00
  -12    0    8     -1.94      0.00
  -11    0    8     -0.19      0.00
  -10    0    8     -0.10      0.00
   -9    0    8     -0.97      0.00
   -8    0    8     -2.04      0.00
   -7    0    8     -0.58      0.00
   -6    0    8      0.32      0.00
   -5    0    8     -0.38      0.00
   -4    0    8     -0.89      0.00
   -3    0    8     -1.17      0.00
   -2    0    8      0.84      0.00
   -1    0    8      2.84      0.00
    0    0    8      2.62      0.00
    1    0    8      0.17      0.00
    2    0    8     -1.34      0.00
    3    0    8      0.41      0.00
    4    0    8      0.37      0.00
    5    0    8     -1.35      0.00
    6    0    8     -1.09      0.00
    7    0    8      0.53      0.00
    8    0    8     -0.02      0.00
    9    0    8     -1.01      0.00
   10    0    8     -0.22      0.00
  -14    1    8      0.12      0.00
  -13    1    8      0.31      0.00
  -12    1    8     -0.12      0.00
  -11    1    8     -0.17      0.00
  -10    1    8      0.13      0.00
   -9    1    8      0.24      0.00
   -8    1    8     -0.24      0.00
   -7    1    8     -0.69      0.00
   -6    1    8     -0.25      0.00
   -5    1    8      0.59      0.00
   -4    1    8      0.68      0.00
   -3    1    8     -0.08      0.00
   -2    1    8      0.00      0.00
   -1    1    8      1.28      0.00
    0    1    8      1.50      0.00
    1    1    8      0.35      0.00
    2    1    8     -0.45      0.00
    3    1    8     -0.11      0.00
    4    1    8     -0.12      0.00
    5    1    8     -0.46      0.00
    6    1    8     -0.14      0.00
    7    1    8      0.51      0.00
    8    1    8      0.71      0.00
    9    1    8      0.30      0.00
   10    1    8     -0.22      0.00
  -14    2    8      1.00      0.00
  -13    2    8     -1.60      0.00
  -12    2    8     -1.20      0.00
  -11    2    8      0.03      0.00
  -10    2    8     -0.39      0.00
   -9    2    8     -0.98      0.00
   -8    2    8     -1.60      0.00
   -7    2    8     -0.38      0.00
   -6    2    8      0.04      0.00
   -5    2    8     -0.38      0.00
   -4    2    8      0.01      0.00
   -3    2    8     -0.12      0.00
   -2    2    8      0.55      0.00
   -1    2    8      1.48      0.00
    0    2    8      1.77      0.00
    1    2    8      0.26      0.00
    2    2    8     -1.40      0.00
    3    2    8     -0.15      0.00
    4    2    8      0.31      0.00
    5    2    8     -0.93      0.00
    6    2    8     -0.88      0.00
    7    2    8      0.44      0.00
    8    2    8      0.04      0.00
    9    2    8     -0.87      0.00
   10    2    8     -0.26      0.00
  -14    3    8      0.21      0.00
  -13    3    8      0.50      0.00
  -12    3    8     -0.36      0.00
  -11    3    8     -0.13      0.00
  -10    3    8      0.45      0.00
   -9    3    8      0.42      0.00
   -8    3    8     -0.69      0.00
   -7    3    8     -1.44      0.00
   -6    3    8     -0.45      0.00
   -5    3    8      1.06      0.00
   -4    3    8      1.17      0.00
   -3    3    8     -0.09      0.00
   -2    3    8      0.54      0.00
   -1    3    8      3.18      0.00
    0    3    8      3.03      0.00
    1    3    8      0.39      0.00
    2    3    8     -0.82      0.00
    3    3    8      0.10      0.00
    4    3    8     -0.28      0.00
    5    3    8     -1.17      0.00
    6    3    8     -0.36      0.00
    7    3    8      0.96      0.00
    8    3    8      1.42      0.00
    9    3    8      0.66      0.00
   10    3    8     -0.47      0.00
  -13    4    8     -0.91      0.00
  -12    4    8      0.24      0.00
  -11    4    8      0.46      0.00
  -10    4    8     -0.84      0.00
   -9    4    8     -0.86      0.00
   -8    4    8     -0.73      0.00
   -7    4    8     -0.13      0.00
   -6    4    8     -0.48      0.00
   -5    4    8     -0.31      0.00
   -4    4    8      1.57      0.00
   -3    4    8      1.73      0.00
   -2    4    8      0.12      0.00
   -1    4    8     -0.83      0.00
    0    4    8      0.28      0.00
    1    4    8      0.35      0.00
    2    4    8     -1.67      0.00
    3    4    8     -1.25      0.00
    4    4    8      0.33      0.00
    5    4    8      0.04      0.00
    6    4    8     -0.34      0.00
    7    4    8      0.26      0.00
    8    4    8      0.00      0.00
    9    4    8     -0.69      0.00
   10    4    8     -0.31      0.00
  -13    5    8     -0.01      0.00
  -12    5    8     -0.56      0.00
  -11    5    8      0.41      0.00
  -10    5    8      0.72      0.00
   -9    5    8      0.15      0.00
   -8    5    8     -0.80      0.00
   -7    5    8     -1.02      0.00
   -6    5    8     -0.25      0.00
   -5    5    8      0.31      0.00
   -4    5    8      0.24      0.00
   -3    5    8      0.02      0.00
   -2    5    8      1.50      0.00
   -1    5    8      3.47      0.00
    0    5    8      2.01      0.00
    1    5    8     -0.48      0.00
    2    5    8     -0.33      0.00
    3    5    8      0.78      0.00
    4    5    8     -0.42      0.00
    5    5    8     -1.30      0.00
    6    5    8     -0.25      0.00
    7    5    8      0.63      0.00
    8    5    8      0.88      0.00
    9    5    8      0.54      0.00
   10    5    8     -0.36      0.00
  -13    6    8     -0.41      0.00
  -12    6    8      1.02      0.00
  -11    6    8      0.63      0.00
  -10    6    8     -0.80      0.00
   -9    6    8     -0.45      0.00
   -8    6    8     -0.30      0.00
   -7    6    8     -0.27      0.00
   -6    6    8     -0.63      0.00
   -5    6    8     -0.11      0.00
   -4    6    8      1.96      0.00
   -3    6    8      2.31      0.00
   -2    6    8      0.26      0.00
   -1    6    8     -1.33      0.00
    0    6    8     -0.22      0.00
    1    6    8      0.22      0.00
    2    6    8     -1.96      0.00
    3    6    8     -1.74      0.00
    4    6    8      0.59      0.00
    5    6    8      0.77      0.00
    6    6    8      0.18      0.00
    7    6    8      0.09      0.00
    8    6    8     -0.33      0.00
    9    6    8     -0.80      0.00
   10    6    8     -0.20      0.00
  -13    7    8     -0.62      0.00
  -12    7    8     -0.68      0.00
  -11    7    8      0.80      0.00
  -10    7    8      0.67      0.00
   -9    7    8     -0.15      0.00
   -8    7    8     -0.39      0.00
   -7    7    8     -0.10      0.00
   -6    7    8     -0.05      0.00
   -5    7    8     -0.71      0.00
   -4    7    8     -0.90      0.00
   -3    7    8     -0.15      0.00
   -2    7    8      1.64      0.00
   -1    7    8      2.40      0.00
    0    7    8      0.22      0.00
    1    7    8     -1.20      0.00
    2    7    8      0.32      0.00
    3    7    8      0.97      0.00
    4    7    8     -0.68      0.00
    5    7    8     -0.82      0.00
    6    7    8      0.39      0.00
    7    7    8      0.33      0.00
    8    7    8      0.04      0.00
    9    7    8      0.21      0.00
   10    7    8     -0.18      0.00
  -13    8    8     -0.22      0.00
  -12    8    8      0.71      0.00
  -11    8    8      0.35      0.00
  -10    8    8     -0.38      0.00
   -9    8    8      0.04      0.00
   -8    8    8     -0.44      0.00
   -7    8    8     -0.69      0.00
   -6    8    8     -0.29      0.00
   -5    8    8      0.08      0.00
   -4    8    8      0.91      0.00
   -3    8    8      1.43      0.00
   -2    8    8      0.98      0.00
   -1    8    8      0.03      0.00
    0    8    8      0.25      0.00
    1    8    8      0.09      0.00
    2    8    8     -1.60      0.00
    3    8    8     -1.10      0.00
    4    8    8      0.62      0.00
    5    8    8      0.44      0.00
    6    8    8      0.24      0.00
    7    8    8      0.02      0.00
    8    8    8     -0.73      0.00
    9    8    8     -1.03      0.00
   10    8    8      0.16      0.00
  -13    9    8     -0.69      0.00
  -12    9    8     -0.59      0.00
  -11    9    8      0.58      0.00
  -10    9    8      0.20      0.00
   -9    9    8     -0.20      0.00
   -8    9    8      0.15      0.00
   -7    9    8      0.19      0.00
   -6    9    8     -0.35      0.00
   -5    9    8     -0.95      0.00
   -4    9    8     -0.92      0.00
   -3    9    8     -0.54      0.00
   -2    9    8      0.60      0.00
   -1    9    8      1.18      0.00
    0    9    8     -0.27      0.00
    1    9    8     -1.00      0.00
    2    9    8      0.35      0.00
    3    9    8      0.36      0.00
    4    9    8     -0.77      0.00
    5    9    8     -0.14      0.00
    6    9    8      1.00      0.00
    7    9    8      0.48      0.00
    8    9    8     -0.17      0.00
    9    9    8      0.01      0.00
   10    9    8     -0.19      0.00
  -13   10    8     -0.10      0.00
  -12   10    8      0.05      0.00
  -11   10    8     -0.13      0.00
  -10   10    8     -0.13      0.00
   -9   10    8      0.29      0.00
   -8   10    8     -0.61      0.00
   -7   10    8     -0.88      0.00
   -6   10    8      0.07      0.00
   -5   10    8     -0.08      0.00
   -4   10    8     -0.35      0.00
   -3   10    8      0.56      0.00
   -2   10    8      1.59      0.00
   -1   10    8      1.03      0.00
    0   10    8      0.52      0.00
    1   10    8      0.37      0.00
    2   10    8     -0.32      0.00
    3   10    8      0.08      0.00
    4   10    8      0.10      0.00
    5   10    8     -0.65      0.00
    6   10    8     -0.08      0.00
    7   10    8     -0.04      0.00
    8   10    8     -0.99      0.00
    9   10    8     -1.08      0.00
   10   10    8      0.53      0.00
  -13   11    8     -0.26      0.00
  -12   11    8     -0.20      0.00
  -11   11    8      0.10      0.00
  -10   11    8     -0.34      0.00
   -9   11    8     -0.20      0.00
   -8   11    8      0.29      0.00
   -7   11    8     -0.36      0.00
   -6   11    8     -0.99      0.00
   -5   11    8     -0.55      0.00
   -4   11    8     -0.09      0.00
   -3   11    8     -0.68      0.00
   -2   11    8     -0.40      0.00
   -1   11    8      0.71      0.00
    0   11    8      0.40      0.00
    1   11    8     -0.40      0.00
    2   11    8     -0.11      0.00
    3   11    8     -0.17      0.00
    4   11    8     -0.24      0.00
    5   11    8      0.22      0.00
    6   11    8      0.80      0.00
    7   11    8      0.57      0.00
    8   11    8      0.08      0.00
    9   11    8     -0.06      0.00
  -13   12    8      0.10      0.00
  -12   12    8     -0.24      0.00
  -11   12    8     -0.46      0.00
  -10   12    8     -0.27      0.00
   -9   12    8      0.27      0.00
   -8   12    8     -0.43      0.00
   -7   12    8     -0.64      0.00
   -6   12    8      0.09      0.00
   -5   12    8     -0.63      0.00
   -4   12    8     -0.92      0.00
   -3   12    8      0.51      0.00
   -2   12    8      1.55      0.00
   -1   12    8      0.53      0.00
    0   12    8      0.14      0.00
    1   12    8      0.93      0.00
    2   12    8      1.05      0.00
    3   12    8      0.78      0.00
    4   12    8     -0.51      0.00
    5   12    8     -1.19      0.00
    6   12    8     -0.24      0.00
    7   12    8     -0.20      0.00
    8   12    8     -1.15      0.00
    9   12    8     -0.96      0.00
  -12   13    8      0.29      0.00
  -11   13    8     -0.10      0.00
  -10   13    8     -0.55      0.00
   -9   13    8     -0.32      0.00
   -8   13    8      0.08      0.00
   -7   13    8     -0.87      0.00
   -6   13    8     -1.31      0.00
   -5   13    8     -0.33      0.00
   -4   13    8      0.30      0.00
   -3   13    8     -0.42      0.00
   -2   13    8     -0.36      0.00
   -1   13    8      0.75      0.00
    0   13    8      0.77      0.00
    1   13    8     -0.08      0.00
    2   13    8     -0.35      0.00
    3   13    8      0.04      0.00
    4   13    8      0.57      0.00
    5   13    8      0.05      0.00
    6   13    8     -0.09      0.00
    7   13    8      0.30      0.00
    8   13    8      0.21      0.00
    9   13    8     -0.18      0.00
  -12   14    8     -0.15      0.00
  -11   14    8     -0.57      0.00
  -10   14    8     -0.53      0.00
   -9   14    8      0.17      0.00
   -8   14    8     -0.19      0.00
   -7   14    8     -0.32      0.00
   -6   14    8      0.06      0.00
   -5   14    8     -0.96      0.00
   -4   14    8     -0.92      0.00
   -3   14    8      0.67      0.00
   -2   14    8      1.07      0.00
   -1   14    8     -0.36      0.00
    0   14    8     -0.35      0.00
    1   14    8      1.10      0.00
    2   14    8      1.38      0.00
    3   14    8      0.67      0.00
    4   14    8     -0.52      0.00
    5   14    8     -0.59      0.00
    6   14    8     -0.05      0.00
    7   14    8     -0.39      0.00
    8   14    8     -1.15      0.00
    9   14    8     -0.72      0.00
  -12   15    8      0.55      0.00
  -11   15    8     -0.04      0.00
  -10   15    8     -0.42      0.00
   -9   15    8     -0.35      0.00
   -8   15    8      0.05      0.00
   -7   15    8     -0.68      0.00
   -6   15    8     -1.02      0.00
   -5   15    8     -0.51      0.00
   -4   15    8     -0.19      0.00
   -3   15    8     -0.12      0.00
   -2   15    8      0.21      0.00
   -1   15    8      0.60      0.00
    0   15    8      0.43      0.00
    1   15    8      0.15      0.00
    2   15    8     -0.09      0.00
    3   15    8      0.36      0.00
    4   15    8      0.77      0.00
    5   15    8     -0.34      0.00
    6   15    8     -0.76      0.00
    7   15    8     -0.02      0.00
    8   15    8      0.07      0.00
    9   15    8     -0.36      0.00
  -12   16    8      0.01      0.00
  -11   16    8     -0.56      0.00
  -10   16    8     -0.62      0.00
   -9   16    8      0.08      0.00
   -8   16    8     -0.28      0.00
   -7   16    8     -0.24      0.00
   -6   16    8      0.34      0.00
   -5   16    8     -0.56      0.00
   -4   16    8     -0.80      0.00
   -3   16    8      0.38      0.00
   -2   16    8      0.69      0.00
   -1   16    8     -0.44      0.00
    0   16    8     -0.52      0.00
    1   16    8      0.52      0.00
    2   16    8      0.70      0.00
    3   16    8      0.32      0.00
    4   16    8     -0.05      0.00
    5   16    8      0.20      0.00
    6   16    8      0.08      0.00
    7   16    8     -0.37      0.00
    8   16    8     -0.71      0.00
  -11   17    8     -0.06      0.00
  -10   17    8     -0.23      0.00
   -9   17    8     -0.13      0.00
   -8   17    8      0.35      0.00
   -7   17    8     -0.19      0.00
   -6   17    8     -0.50      0.00
   -5   17    8     -0.55      0.00
   -4   17    8     -0.65      0.00
   -3   17    8     -0.02      0.00
   -2   17    8      0.34      0.00
   -1   17    8      0.12      0.00
    0   17    8      0.20      0.00
    1   17    8      0.68      0.00
    2   17    8      0.21      0.00
    3   17    8      0.03      0.00
    4   17    8      0.25      0.00
    5   17    8     -0.49      0.00
    6   17    8     -0.81      0.00
    7   17    8     -0.19      0.00
    8   17    8     -0.13      0.00
  -11   18    8     -0.48      0.00
  -10   18    8     -0.50      0.00
   -9   18    8      0.07      0.00
   -8   18    8     -0.52      0.00
   -7   18    8     -0.37      0.00
   -6   18    8      0.60      0.00
   -5   18    8      0.13      0.00
   -4   18    8     -0.67      0.00
   -3   18    8     -0.13      0.00
   -2   18    8      0.58      0.00
   -1   18    8      0.04      0.00
    0   18    8     -0.52      0.00
    1   18    8     -0.18      0.00
    2   18    8      0.09      0.00
    3   18    8      0.21      0.00
    4   18    8      0.21      0.00
    5   18    8      0.21      0.00
    6   18    8     -0.10      0.00
    7   18    8     -0.10      0.00
    8   18    8      0.07      0.00
  -11   19    8     -0.16      0.00
  -10   19    8     -0.10      0.00
   -9   19    8      0.18      0.00
   -8   19    8      0.54      0.00
   -7   19    8     -0.05      0.00
   -6   19    8     -0.20      0.00
   -5   19    8     -0.14      0.00
   -4   19    8     -0.37      0.00
   -3   19    8      0.01      0.00
   -2   19    8     -0.07      0.00
   -1   19    8     -0.29      0.00
    0   19    8      0.40      0.00
    1   19    8      1.19      0.00
    2   19    8      0.16      0.00
    3   19    8     -0.61      0.00
    4   19    8     -0.14      0.00
    5   19    8     -0.19      0.00
    6   19    8     -0.58      0.00
    7   19    8     -0.31      0.00
    8   19    8     -0.19      0.00
  -11   20    8     -0.35      0.00
  -10   20    8     -0.25      0.00
   -9   20    8      0.22      0.00
   -8   20    8     -0.46      0.00
   -7   20    8     -0.47      0.00
   -6   20    8      0.35      0.00
   -5   20    8      0.33      0.00
   -4   20    8     -0.51      0.00
   -3   20    8     -0.32      0.00
   -2   20    8      0.48      0.00
   -1   20    8      0.23      0.00
    0   20    8     -0.40      0.00
    1   20    8     -0.24      0.00
    2   20    8      0.06      0.00
    3   20    8      0.17      0.00
    4   20    8     -0.02      0.00
    5   20    8     -0.29      0.00
    6   20    8     -0.31      0.00
    7   20    8      0.10      0.00
  -10   21    8      0.04      0.00
   -9   21    8      0.27      0.00
   -8   21    8      0.28      0.00
   -7   21    8     -0.28      0.00
   -6   21    8     -0.13      0.00
   -5   21    8      0.30      0.00
   -4   21    8      0.18      0.00
   -3   21    8      0.03      0.00
   -2   21    8     -0.44      0.00
   -1   21    8     -0.47      0.00
    0   21    8      0.42      0.00
    1   21    8      1.14      0.00
    2   21    8      0.07      0.00
    3   21    8     -0.72      0.00
    4   21    8      0.06      0.00
    5   21    8      0.28      0.00
    6   21    8     -0.38      0.00
    7   21    8     -0.37      0.00
  -10   22    8      0.03      0.00
   -9   22    8      0.50      0.00
   -8   22    8     -0.04      0.00
   -7   22    8     -0.44      0.00
   -6   22    8     -0.22      0.00
   -5   22    8      0.05      0.00
   -4   22    8     -0.28      0.00
   -3   22    8     -0.20      0.00
   -2   22    8      0.20      0.00
   -1   22    8      0.08      0.00
    0   22    8      0.01      0.00
    1   22    8      0.27      0.00
    2   22    8      0.17      0.00
    3   22    8     -0.15      0.00
    4   22    8     -0.41      0.00
    5   22    8     -0.52      0.00
    6   22    8     -0.33      0.00
   -9   23    8      0.07      0.00
   -8   23    8     -0.24      0.00
   -7   23    8     -0.46      0.00
   -6   23    8     -0.11      0.00
   -5   23    8      0.27      0.00
   -4   23    8      0.24      0.00
   -3   23    8     -0.03      0.00
   -2   23    8     -0.46      0.00
   -1   23    8     -0.59      0.00
    0   23    8     -0.10      0.00
    1   23    8      0.76      0.00
    2   23    8      0.40      0.00
    3   23    8     -0.30      0.00
    4   23    8      0.30      0.00
    5   23    8      0.47      0.00
    6   23    8     -0.11      0.00
   -9   24    8      0.64      0.00
   -8   24    8      0.27      0.00
   -7   24    8     -0.37      0.00
   -6   24    8     -0.48      0.00
   -5   24    8     -0.06      0.00
   -4   24    8     -0.01      0.00
   -3   24    8     -0.10      0.00
   -2   24    8     -0.15      0.00
   -1   24    8      0.06      0.00
    0   24    8      0.57      0.00
    1   24    8      0.61      0.00
    2   24    8      0.03      0.00
    3   24    8     -0.48      0.00
    4   24    8     -0.54      0.00
    5   24    8     -0.47      0.00
   -8   25    8     -0.59      0.00
   -7   25    8     -0.42      0.00
   -6   25    8     -0.13      0.00
   -5   25    8     -0.10      0.00
   -4   25    8     -0.10      0.00
   -3   25    8     -0.14      0.00
   -2   25    8     -0.30      0.00
   -1   25    8     -0.72      0.00
    0   25    8     -0.63      0.00
    1   25    8      0.54      0.00
    2   25    8      0.90      0.00
    3   25    8      0.00      0.00
    4   25    8      0.05      0.00
    5   25    8      0.29      0.00
   -8   26    8      0.19      0.00
   -7   26    8     -0.37      0.00
   -6   26    8     -0.28      0.00
   -5   26    8      0.16      0.00
   -4   26    8      0.23      0.00
   -3   26    8     -0.09      0.00
   -2   26    8     -0.32      0.00
   -1   26    8      0.23      0.00
    0   26    8      0.82      0.00
    1   26    8      0.44      0.00
    2   26    8     -0.09      0.00
    3   26    8     -0.34      0.00
    4   26    8     -0.39      0.00
   -7   27    8     -0.30      0.00
   -6   27    8     -0.18      0.00
   -5   27    8     -0.29      0.00
   -4   27    8     -0.25      0.00
   -3   27    8     -0.16      0.00
   -2   27    8     -0.20      0.00
   -1   27    8     -0.67      0.00
    0   27    8     -0.65      0.00
    1   27    8      0.44      0.00
    2   27    8      0.93      0.00
    3   27    8     -0.04      0.00
    4   27    8     -0.30      0.00
   -6   28    8     -0.08      0.00
   -5   28    8      0.28      0.00
   -4   28    8      0.36      0.00
   -3   28    8      0.00      0.00
   -2   28    8     -0.26      0.00
   -1   28    8      0.26      0.00
    0   28    8      0.60      0.00
    1   28    8      0.13      0.00
    2   28    8      0.00      0.00
    3   28    8      0.04      0.00
   -5   29    8     -0.14      0.00
   -4   29    8     -0.12      0.00
   -3   29    8     -0.12      0.00
   -2   29    8     -0.17      0.00
   -1   29    8     -0.44      0.00
    0   29    8     -0.36      0.00
    1   29    8      0.17      0.00
    2   29    8      0.48      0.00
   -3   30    8      0.19      0.00
   -2   30    8     -0.14      0.00
   -1   30    8      0.01      0.00
    0   30    8      0.26      0.00
  -13    0    9      0.97      0.00
  -12    0    9      2.09      0.00
  -11    0    9      1.13      0.00
  -10    0    9      0.40      0.00
   -9    0    9      0.42      0.00
   -8    0    9      2.30      0.00
   -7    0    9      1.34      0.00
   -6    0    9     -1.03      0.00
   -5    0    9     -0.06      0.00
   -4    0    9      0.69      0.00
   -3    0    9      0.17      0.00
   -2    0    9     -0.77      0.00
   -1    0    9     -1.36      0.00
    0    0    9     -1.13      0.00
    1    0    9     -0.04      0.00
    2    0    9      1.44      0.00
    3    0    9      0.38      0.00
    4    0    9     -0.52      0.00
    5    0    9      0.70      0.00
    6    0    9      0.71      0.00
    7    0    9     -0.50      0.00
    8    0    9     -0.05      0.00
    9    0    9      0.61      0.00
  -13    1    9     -0.15      0.00
  -12    1    9     -0.01      0.00
  -11    1    9      0.15      0.00
  -10    1    9      0.10      0.00
   -9    1    9     -0.22      0.00
   -8    1    9      0.04      0.00
   -7    1    9      0.65      0.00
   -6    1    9      0.28      0.00
   -5    1    9     -0.55      0.00
   -4    1    9     -0.61      0.00
   -3    1    9      0.02      0.00
   -2    1    9      0.08      0.00
   -1    1    9     -0.95      0.00
    0    1    9     -1.34      0.00
    1    1    9     -0.38      0.00
    2    1    9      0.55      0.00
    3    1    9      0.26      0.00
    4    1    9      0.05      0.00
    5    1    9      0.38      0.00
    6    1    9      0.11      0.00
    7    1    9     -0.54      0.00
    8    1    9     -0.56      0.00
    9    1    9     -0.11      0.00
  -13    2    9      0.90      0.00
  -12    2    9      1.50      0.00
  -11    2    9      0.58      0.00
  -10    2    9      0.42      0.00
   -9    2    9      0.49      0.00
   -8    2    9      1.86      0.00
   -7    2    9      1.07      0.00
   -6    2    9     -0.76      0.00
   -5    2    9     -0.09      0.00
   -4    2    9     -0.05      0.00
   -3    2    9     -0.59      0.00
   -2    2    9     -0.58      0.00
   -1    2    9     -0.46      0.00
    0    2    9     -0.59      0.00
    1    2    9     -0.18      0.00
    2    2    9      1.43      0.00
    3    2    9      0.83      0.00
    4    2    9     -0.46      0.00
    5    2    9      0.32      0.00
    6    2    9      0.55      0.00
    7    2    9     -0.41      0.00
    8    2    9     -0.11      0.00
    9    2    9      0.55      0.00
  -13    3    9     -0.28      0.00
  -12    3    9      0.03      0.00
  -11    3    9      0.18      0.00
  -10    3    9      0.09      0.00
   -9    3    9     -0.40      0.00
   -8    3    9      0.24      0.00
   -7    3    9      1.43      0.00
   -6    3    9      0.59      0.00
   -5    3    9     -1.05      0.00
   -4    3    9     -1.24      0.00
   -3    3    9     -0.12      0.00
   -2    3    9     -0.10      0.00
   -1    3    9     -2.22      0.00
    0    3    9     -2.80      0.00
    1    3    9     -0.63      0.00
    2    3    9      1.12      0.00
    3    3    9      0.36      0.00
    4    3    9      0.10      0.00
    5    3    9      0.92      0.00
    6    3    9      0.26      0.00
    7    3    9     -1.04      0.00
    8    3    9     -1.02      0.00
    9    3    9     -0.18      0.00
  -13    4    9      0.80      0.00
  -12    4    9      0.32      0.00
  -11    4    9     -0.58      0.00
  -10    4    9      0.31      0.00
   -9    4    9      0.58      0.00
   -8    4    9      1.01      0.00
   -7    4    9      0.56      0.00
   -6    4    9     -0.27      0.00
   -5    4    9     -0.12      0.00
   -4    4    9     -1.29      0.00
   -3    4    9     -1.93      0.00
   -2    4    9     -0.42      0.00
   -1    4    9      0.97      0.00
    0    4    9      0.38      0.00
    1    4    9     -0.34      0.00
    2    4    9      1.43      0.00
    3    4    9      1.64      0.00
    4    4    9     -0.44      0.00
    5    4    9     -0.52      0.00
    6    4    9      0.10      0.00
    7    4    9     -0.25      0.00
    8    4    9     -0.08      0.00
    9    4    9      0.60      0.00
  -13    5    9     -0.12      0.00
  -12    5    9      0.22      0.00
  -11    5    9     -0.15      0.00
  -10    5    9     -0.16      0.00
   -9    5    9     -0.13      0.00
   -8    5    9      0.44      0.00
   -7    5    9      1.14      0.00
   -6    5    9      0.47      0.00
   -5    5    9     -0.48      0.00
   -4    5    9     -0.80      0.00
   -3    5    9     -0.44      0.00
   -2    5    9     -0.62      0.00
   -1    5    9     -2.13      0.00
    0    5    9     -2.05      0.00
    1    5    9     -0.07      0.00
    2    5    9      0.79      0.00
    3    5    9     -0.10      0.00
    4    5    9      0.18      0.00
    5    5    9      0.95      0.00
    6    5    9      0.08      0.00
    7    5    9     -0.74      0.00
    8    5    9     -0.39      0.00
    9    5    9      0.02      0.00
  -13    6    9      0.77      0.00
  -12    6    9     -0.38      0.00
  -11    6    9     -1.36      0.00
  -10    6    9      0.04      0.00
   -9    6    9      0.53      0.00
   -8    6    9      0.50      0.00
   -7    6    9      0.32      0.00
   -6    6    9     -0.12      0.00
   -5    6    9     -0.14      0.00
   -4    6    9     -1.47      0.00
   -3    6    9     -2.36      0.00
   -2    6    9     -0.87      0.00
   -1    6    9      0.98      0.00
    0    6    9      0.75      0.00
    1    6    9     -0.21      0.00
    2    6    9      1.35      0.00
    3    6    9      1.83      0.00
    4    6    9     -0.52      0.00
    5    6    9     -0.99      0.00
    6    6    9     -0.37      0.00
    7    6    9     -0.23      0.00
    8    6    9      0.22      0.00
    9    6    9      0.96      0.00
  -13    7    9      0.10      0.00
  -12    7    9      0.59      0.00
  -11    7    9     -0.30      0.00
  -10    7    9     -0.39      0.00
   -9    7    9      0.18      0.00
   -8    7    9      0.43      0.00
   -7    7    9      0.34      0.00
   -6    7    9      0.19      0.00
   -5    7    9      0.38      0.00
   -4    7    9      0.02      0.00
   -3    7    9     -0.46      0.00
   -2    7    9     -0.71      0.00
   -1    7    9     -1.24      0.00
    0    7    9     -0.61      0.00
    1    7    9      0.58      0.00
    2    7    9      0.22      0.00
    3    7    9     -0.36      0.00
    4    7    9      0.44      0.00
    5    7    9      0.56      0.00
    6    7    9     -0.54      0.00
    7    7    9     -0.49      0.00
    8    7    9      0.36      0.00
    9    7    9      0.26      0.00
  -13    8    9      0.67      0.00
  -12    8    9     -0.27      0.00
  -11    8    9     -1.12      0.00
  -10    8    9     -0.04      0.00
   -9    8    9      0.40      0.00
   -8    8    9      0.52      0.00
   -7    8    9      0.42      0.00
   -6    8    9     -0.46      0.00
   -5    8    9     -0.20      0.00
   -4    8    9     -0.47      0.00
   -3    8    9     -1.67      0.00
   -2    8    9     -1.67      0.00
   -1    8    9     -0.30      0.00
    0    8    9      0.45      0.00
    1    8    9      0.03      0.00
    2    8    9      0.87      0.00
    3    8    9      1.05      0.00
    4    8    9     -0.38      0.00
    5    8    9     -0.36      0.00
    6    8    9     -0.42      0.00
    7    8    9     -0.44      0.00
    8    8    9      0.52      0.00
    9    8    9      1.34      0.00
  -13    9    9      0.14      0.00
  -12    9    9      0.87      0.00
  -11    9    9     -0.03      0.00
  -10    9    9     -0.31      0.00
   -9    9    9      0.31      0.00
   -8    9    9      0.31      0.00
   -7    9    9      0.03      0.00
   -6    9    9      0.23      0.00
   -5    9    9      0.65      0.00
   -4    9    9      0.27      0.00
   -3    9    9     -0.10      0.00
   -2    9    9     -0.21      0.00
   -1    9    9     -0.64      0.00
    0    9    9     -0.20      0.00
    1    9    9      0.67      0.00
    2    9    9      0.10      0.00
    3    9    9     -0.10      0.00
    4    9    9      0.58      0.00
    5    9    9      0.13      0.00
    6    9    9     -1.01      0.00
    7    9    9     -0.70      0.00
    8    9    9      0.39      0.00
    9    9    9      0.33      0.00
  -12   10    9      0.12      0.00
  -11   10    9     -0.16      0.00
  -10   10    9      0.29      0.00
   -9   10    9      0.23      0.00
   -8   10    9      0.55      0.00
   -7   10    9      0.55      0.00
   -6   10    9     -0.78      0.00
   -5   10    9     -0.19      0.00
   -4   10    9      0.53      0.00
   -3   10    9     -0.81      0.00
   -2   10    9     -1.98      0.00
   -1   10    9     -1.12      0.00
    0   10    9      0.15      0.00
    1   10    9     -0.03      0.00
    2   10    9     -0.04      0.00
    3   10    9     -0.06      0.00
    4   10    9      0.11      0.00
    5   10    9      0.89      0.00
    6   10    9     -0.06      0.00
    7   10    9     -0.65      0.00
    8   10    9      0.58      0.00
    9   10    9      1.37      0.00
  -12   11    9      0.66      0.00
  -11   11    9      0.24      0.00
  -10   11    9      0.04      0.00
   -9   11    9      0.44      0.00
   -8   11    9      0.35      0.00
   -7   11    9      0.44      0.00
   -6   11    9      0.67      0.00
   -5   11    9      0.42      0.00
   -4   11    9     -0.04      0.00
   -3   11    9      0.10      0.00
   -2   11    9      0.11      0.00
   -1   11    9     -0.71      0.00
    0   11    9     -0.68      0.00
    1   11    9      0.36      0.00
    2   11    9      0.29      0.00
    3   11    9      0.12      0.00
    4   11    9      0.19      0.00
    5   11    9     -0.02      0.00
    6   11    9     -0.65      0.00
    7   11    9     -0.80      0.00
    8   11    9     -0.06      0.00
  -12   12    9      0.27      0.00
  -11   12    9      0.67      0.00
  -10   12    9      0.76      0.00
   -9   12    9      0.02      0.00
   -8   12    9      0.22      0.00
   -7   12    9      0.53      0.00
   -6   12    9     -0.66      0.00
   -5   12    9     -0.01      0.00
   -4   12    9      0.78      0.00
   -3   12    9     -0.44      0.00
   -2   12    9     -1.47      0.00
   -1   12    9     -0.69      0.00
    0   12    9      0.22      0.00
    1   12    9     -0.31      0.00
    2   12    9     -0.76      0.00
    3   12    9     -0.71      0.00
    4   12    9      0.40      0.00
    5   12    9      1.41      0.00
    6   12    9      0.21      0.00
    7   12    9     -0.57      0.00
    8   12    9      0.56      0.00
  -12   13    9     -0.03      0.00
  -11   13    9      0.12      0.00
  -10   13    9      0.39      0.00
   -9   13    9      0.70      0.00
   -8   13    9      0.39      0.00
   -7   13    9      0.78      0.00
   -6   13    9      1.05      0.00
   -5   13    9      0.35      0.00
   -4   13    9     -0.16      0.00
   -3   13    9     -0.10      0.00
   -2   13    9     -0.20      0.00
   -1   13    9     -0.86      0.00
    0   13    9     -0.85      0.00
    1   13    9      0.01      0.00
    2   13    9      0.25      0.00
    3   13    9     -0.02      0.00
    4   13    9     -0.42      0.00
    5   13    9      0.09      0.00
    6   13    9      0.29      0.00
    7   13    9     -0.41      0.00
    8   13    9     -0.31      0.00
  -12   14    9      0.21      0.00
  -11   14    9      0.89      0.00
  -10   14    9      0.96      0.00
   -9   14    9     -0.14      0.00
   -8   14    9     -0.18      0.00
   -7   14    9      0.40      0.00
   -6   14    9     -0.31      0.00
   -5   14    9      0.13      0.00
   -4   14    9      0.54      0.00
   -3   14    9     -0.33      0.00
   -2   14    9     -0.75      0.00
   -1   14    9      0.04      0.00
    0   14    9      0.46      0.00
    1   14    9     -0.26      0.00
    2   14    9     -0.69      0.00
    3   14    9     -0.70      0.00
    4   14    9      0.09      0.00
    5   14    9      0.69      0.00
    6   14    9      0.15      0.00
    7   14    9     -0.15      0.00
    8   14    9      0.60      0.00
  -11   15    9     -0.15      0.00
  -10   15    9      0.55      0.00
   -9   15    9      0.81      0.00
   -8   15    9      0.11      0.00
   -7   15    9      0.43      0.00
   -6   15    9      0.96      0.00
   -5   15    9      0.61      0.00
   -4   15    9      0.24      0.00
   -3   15    9     -0.32      0.00
   -2   15    9     -0.61      0.00
   -1   15    9     -0.58      0.00
    0   15    9     -0.47      0.00
    1   15    9     -0.37      0.00
    2   15    9     -0.07      0.00
    3   15    9     -0.02      0.00
    4   15    9     -0.49      0.00
    5   15    9      0.21      0.00
    6   15    9      0.86      0.00
    7   15    9      0.12      0.00
    8   15    9     -0.16      0.00
  -11   16    9      0.65      0.00
  -10   16    9      0.89      0.00
   -9   16    9     -0.08      0.00
   -8   16    9     -0.21      0.00
   -7   16    9      0.27      0.00
   -6   16    9     -0.23      0.00
   -5   16    9     -0.03      0.00
   -4   16    9      0.34      0.00
   -3   16    9     -0.11      0.00
   -2   16    9     -0.47      0.00
   -1   16    9      0.09      0.00
    0   16    9      0.65      0.00
    1   16    9      0.25      0.00
    2   16    9     -0.14      0.00
    3   16    9     -0.46      0.00
    4   16    9     -0.42      0.00
    5   16    9     -0.23      0.00
    6   16    9      0.05      0.00
    7   16    9      0.25      0.00
  -11   17    9     -0.15      0.00
  -10   17    9      0.50      0.00
   -9   17    9      0.60      0.00
   -8   17    9     -0.35      0.00
   -7   17    9     -0.22      0.00
   -6   17    9      0.51      0.00
   -5   17    9      0.68      0.00
   -4   17    9      0.58      0.00
   -3   17    9     -0.26      0.00
   -2   17    9     -0.51      0.00
   -1   17    9     -0.11      0.00
    0   17    9     -0.22      0.00
    1   17    9     -0.81      0.00
    2   17    9     -0.28      0.00
    3   17    9      0.48      0.00
    4   17    9      0.06      0.00
    5   17    9      0.14      0.00
    6   17    9      0.70      0.00
    7   17    9      0.41      0.00
  -11   18    9      0.34      0.00
  -10   18    9      0.77      0.00
   -9   18    9      0.12      0.00
   -8   18    9      0.01      0.00
   -7   18    9      0.17      0.00
   -6   18    9     -0.34      0.00
   -5   18    9     -0.29      0.00
   -4   18    9      0.30      0.00
   -3   18    9      0.13      0.00
   -2   18    9     -0.57      0.00
   -1   18    9     -0.28      0.00
    0   18    9      0.65      0.00
    1   18    9      0.61      0.00
    2   18    9      0.13      0.00
    3   18    9     -0.28      0.00
    4   18    9     -0.43      0.00
    5   18    9     -0.32      0.00
    6   18    9      0.16      0.00
    7   18    9      0.32      0.00
  -10   19    9      0.32      0.00
   -9   19    9      0.25      0.00
   -8   19    9     -0.50      0.00
   -7   19    9     -0.44      0.00
   -6   19    9      0.08      0.00
   -5   19    9      0.27      0.00
   -4   19    9      0.35      0.00
   -3   19    9     -0.07      0.00
   -2   19    9     -0.05      0.00
   -1   19    9      0.08      0.00
    0   19    9     -0.33      0.00
    1   19    9     -0.97      0.00
    2   19    9     -0.20      0.00
    3   19    9      0.93      0.00
    4   19    9      0.49      0.00
    5   19    9     -0.09      0.00
    6   19    9      0.29      0.00
  -10   20    9      0.64      0.00
   -9   20    9      0.11      0.00
   -8   20    9      0.04      0.00
   -7   20    9      0.13      0.00
   -6   20    9     -0.20      0.00
   -5   20    9     -0.25      0.00
   -4   20    9      0.27      0.00
   -3   20    9      0.18      0.00
   -2   20    9     -0.52      0.00
   -1   20    9     -0.40      0.00
    0   20    9      0.31      0.00
    1   20    9      0.26      0.00
    2   20    9      0.00      0.00
    3   20    9      0.00      0.00
    4   20    9      0.03      0.00
    5   20    9      0.16      0.00
    6   20    9      0.27      0.00
   -9   21    9      0.06      0.00
   -8   21    9     -0.19      0.00
   -7   21    9     -0.15      0.00
   -6   21    9     -0.10      0.00
   -5   21    9     -0.20      0.00
   -4   21    9     -0.11      0.00
   -3   21    9     -0.01      0.00
   -2   21    9      0.22      0.00
   -1   21    9      0.08      0.00
    0   21    9     -0.23      0.00
    1   21    9     -0.67      0.00
    2   21    9     -0.23      0.00
    3   21    9      0.72      0.00
    4   21    9      0.37      0.00
    5   21    9     -0.31      0.00
    6   21    9      0.01      0.00
   -9   22    9     -0.19      0.00
   -8   22    9     -0.21      0.00
   -7   22    9      0.13      0.00
   -6   22    9      0.17      0.00
   -5   22    9      0.01      0.00
   -4   22    9      0.14      0.00
   -3   22    9      0.06      0.00
   -2   22    9     -0.14      0.00
   -1   22    9     -0.20      0.00
    0   22    9     -0.36      0.00
    1   22    9     -0.48      0.00
    2   22    9     -0.02      0.00
    3   22    9      0.47      0.00
    4   22    9      0.44      0.00
    5   22    9      0.40      0.00
   -8   23    9      0.26      0.00
   -7   23    9      0.22      0.00
   -6   23    9     -0.05      0.00
   -5   23    9     -0.23      0.00
   -4   23    9     -0.20      0.00
   -3   23    9     -0.04      0.00
   -2   23    9      0.16      0.00
   -1   23    9      0.22      0.00
    0   23    9      0.29      0.00
    1   23    9     -0.33      0.00
    2   23    9     -0.65      0.00
    3   23    9      0.14      0.00
    4   23    9      0.17      0.00
    5   23    9     -0.32      0.00
   -8   24    9     -0.37      0.00
   -7   24    9      0.15      0.00
   -6   24    9      0.32      0.00
   -5   24    9      0.06      0.00
   -4   24    9     -0.07      0.00
   -3   24    9     -0.05      0.00
   -2   24    9      0.23      0.00
   -1   24    9     -0.03      0.00
    0   24    9     -0.88      0.00
    1   24    9     -0.83      0.00
    2   24    9      0.17      0.00
    3   24    9      0.77      0.00
    4   24    9      0.50      0.00
   -7   25    9      0.41      0.00
   -6   25    9      0.11      0.00
   -5   25    9      0.09      0.00
   -4   25    9      0.08      0.00
   -3   25    9     -0.05      0.00
   -2   25    9     -0.04      0.00
   -1   25    9      0.44      0.00
    0   25    9      0.72      0.00
    1   25    9     -0.31      0.00
    2   25    9     -1.13      0.00
    3   25    9     -0.15      0.00
   -6   26    9      0.15      0.00
   -5   26    9     -0.14      0.00
   -4   26    9     -0.22      0.00
   -3   26    9     -0.08      0.00
   -2   26    9      0.30      0.00
   -1   26    9     -0.01      0.00
    0   26    9     -0.78      0.00
    1   26    9     -0.57      0.00
    2   26    9      0.16      0.00
    3   26    9      0.53      0.00
   -6   27    9      0.22      0.00
   -5   27    9      0.22      0.00
   -4   27    9      0.25      0.00
   -3   27    9      0.03      0.00
   -2   27    9     -0.12      0.00
   -1   27    9      0.42      0.00
    0   27    9      0.64      0.00
    1   27    9     -0.33      0.00
    2   27    9     -1.07      0.00
   -4   28    9     -0.29      0.00
   -3   28    9     -0.11      0.00
   -2   28    9      0.15      0.00
   -1   28    9      0.03      0.00
    0   28    9     -0.24      0.00
  -13    0   10     -0.48      0.00
  -12    0   10     -1.33      0.00
  -11    0   10     -1.41      0.00
  -10    0   10     -1.22      0.00
   -9    0   10     -0.29      0.00
   -8    0   10     -1.28      0.00
   -7    0   10     -1.42      0.00
   -6    0   10      1.06      0.00
   -5    0   10      0.57      0.00
   -4    0   10     -0.62      0.00
   -3    0   10      0.43      0.00
   -2    0   10      0.77      0.00
   -1    0   10      0.01      0.00
    0    0   10     -0.29      0.00
    1    0   10      0.04      0.00
    2    0   10     -1.01      0.00
    3    0   10     -1.12      0.00
    4    0   10      0.63      0.00
    5    0   10      0.58      0.00
    6    0   10     -0.20      0.00
    7    0   10      0.17      0.00
    8    0   10     -0.22      0.00
  -13    1   10     -0.06      0.00
  -12    1   10     -0.07      0.00
  -11    1   10     -0.07      0.00
  -10    1   10     -0.15      0.00
   -9    1   10      0.06      0.00
   -8    1   10      0.02      0.00
   -7    1   10     -0.46      0.00
   -6    1   10     -0.22      0.00
   -5    1   10      0.44      0.00
   -4    1   10      0.45      0.00
   -3    1   10      0.06      0.00
   -2    1   10      0.05      0.00
   -1    1   10      0.65      0.00
    0    1   10      0.91      0.00
    1    1   10      0.36      0.00
    2    1   10     -0.34      0.00
    3    1   10     -0.39      0.00
    4    1   10     -0.29      0.00
    5    1   10     -0.33      0.00
    6    1   10      0.09      0.00
    7    1   10      0.61      0.00
    8    1   10      0.40      0.00
  -13    2   10     -0.46      0.00
  -12    2   10     -1.00      0.00
  -11    2   10     -0.82      0.00
  -10    2   10     -0.87      0.00
   -9    2   10     -0.25      0.00
   -8    2   10     -1.02      0.00
   -7    2   10     -1.21      0.00
   -6    2   10      0.90      0.00
   -5    2   10      0.69      0.00
   -4    2   10     -0.01      0.00
   -3    2   10      0.84      0.00
   -2    2   10      0.57      0.00
   -1    2   10     -0.45      0.00
    0    2   10     -0.53      0.00
    1    2   10      0.05      0.00
    2    2   10     -1.01      0.00
    3    2   10     -1.30      0.00
    4    2   10      0.60      0.00
    5    2   10      0.73      0.00
    6    2   10     -0.14      0.00
    7    2   10      0.18      0.00
    8    2   10     -0.10      0.00
  -12    3   10     -0.15      0.00
  -11    3   10     -0.07      0.00
  -10    3   10     -0.29      0.00
   -9    3   10      0.05      0.00
   -8    3   10     -0.05      0.00
   -7    3   10     -1.04      0.00
   -6    3   10     -0.51      0.00
   -5    3   10      0.89      0.00
   -4    3   10      1.05      0.00
   -3    3   10      0.38      0.00
   -2    3   10      0.22      0.00
   -1    3   10      1.33      0.00
    0    3   10      1.88      0.00
    1    3   10      0.74      0.00
    2    3   10     -0.68      0.00
    3    3   10     -0.75      0.00
    4    3   10     -0.61      0.00
    5    3   10     -0.76      0.00
    6    3   10      0.18      0.00
    7    3   10      1.24      0.00
    8    3   10      0.67      0.00
  -12    4   10     -0.37      0.00
  -11    4   10      0.44      0.00
  -10    4   10     -0.02      0.00
   -9    4   10     -0.14      0.00
   -8    4   10     -0.54      0.00
   -7    4   10     -0.79      0.00
   -6    4   10      0.61      0.00
   -5    4   10      0.87      0.00
   -4    4   10      0.97      0.00
   -3    4   10      1.56      0.00
   -2    4   10      0.39      0.00
   -1    4   10     -1.05      0.00
    0    4   10     -0.95      0.00
    1    4   10     -0.08      0.00
    2    4   10     -1.01      0.00
    3    4   10     -1.50      0.00
    4    4   10      0.62      0.00
    5    4   10      1.03      0.00
    6    4   10      0.08      0.00
    7    4   10      0.23      0.00
    8    4   10      0.04      0.00
  -12    5   10     -0.16      0.00
  -11    5   10      0.07      0.00
  -10    5   10     -0.17      0.00
   -9    5   10     -0.12      0.00
   -8    5   10     -0.22      0.00
   -7    5   10     -0.89      0.00
   -6    5   10     -0.45      0.00
   -5    5   10      0.54      0.00
   -4    5   10      1.00      0.00
   -3    5   10      0.89      0.00
   -2    5   10      0.41      0.00
   -1    5   10      0.87      0.00
    0    5   10      1.34      0.00
    1    5   10      0.51      0.00
    2    5   10     -0.50      0.00
    3    5   10     -0.48      0.00
    4    5   10     -0.55      0.00
    5    5   10     -0.70      0.00
    6    5   10      0.26      0.00
    7    5   10      0.99      0.00
    8    5   10      0.13      0.00
  -12    6   10     -0.07      0.00
  -11    6   10      1.34      0.00
  -10    6   10      0.73      0.00
   -9    6   10     -0.10      0.00
   -8    6   10     -0.34      0.00
   -7    6   10     -0.51      0.00
   -6    6   10      0.60      0.00
   -5    6   10      0.93      0.00
   -4    6   10      1.04      0.00
   -3    6   10      1.73      0.00
   -2    6   10      0.84      0.00
   -1    6   10     -0.68      0.00
    0    6   10     -1.07      0.00
    1    6   10     -0.39      0.00
    2    6   10     -0.85      0.00
    3    6   10     -1.23      0.00
    4    6   10      0.70      0.00
    5    6   10      1.04      0.00
    6    6   10      0.27      0.00
    7    6   10      0.38      0.00
    8    6   10     -0.01      0.00
  -12    7   10     -0.35      0.00
  -11    7   10     -0.07      0.00
  -10    7   10      0.02      0.00
   -9    7   10     -0.17      0.00
   -8    7   10     -0.29      0.00
   -7    7   10     -0.38      0.00
   -6    7   10     -0.18      0.00
   -5    7   10     -0.02      0.00
   -4    7   10      0.57      0.00
   -3    7   10      1.02      0.00
   -2    7   10      0.30      0.00
   -1    7   10      0.06      0.00
    0    7   10      0.44      0.00
    1    7   10      0.06      0.00
    2    7   10     -0.31      0.00
    3    7   10     -0.21      0.00
    4    7   10     -0.39      0.00
    5    7   10     -0.30      0.00
    6    7   10      0.51      0.00
    7    7   10      0.66      0.00
    8    7   10     -0.41      0.00
  -12    8   10     -0.19      0.00
  -11    8   10      1.16      0.00
  -10    8   10      0.68      0.00
   -9    8   10     -0.22      0.00
   -8    8   10     -0.41      0.00
   -7    8   10     -0.46      0.00
   -6    8   10      0.92      0.00
   -5    8   10      0.92      0.00
   -4    8   10      0.18      0.00
   -3    8   10      1.22      0.00
   -2    8   10      1.57      0.00
   -1    8   10      0.37      0.00
    0    8   10     -0.81      0.00
    1    8   10     -0.55      0.00
    2    8   10     -0.37      0.00
    3    8   10     -0.50      0.00
    4    8   10      0.50      0.00
    5    8   10      0.31      0.00
    6    8   10      0.17      0.00
    7    8   10      0.61      0.00
    8    8   10     -0.06      0.00
  -12    9   10     -0.64      0.00
  -11    9   10     -0.49      0.00
  -10    9   10      0.07      0.00
   -9    9   10     -0.09      0.00
   -8    9   10     -0.31      0.00
   -7    9   10     -0.23      0.00
   -6    9   10     -0.14      0.00
   -5    9   10     -0.17      0.00
   -4    9   10      0.29      0.00
   -3    9   10      0.62      0.00
   -2    9   10      0.05      0.00
   -1    9   10     -0.05      0.00
    0    9   10      0.38      0.00
    1    9   10     -0.16      0.00
    2    9   10     -0.43      0.00
    3    9   10     -0.25      0.00
    4    9   10     -0.25      0.00
    5    9   10      0.04      0.00
    6    9   10      0.67      0.00
    7    9   10      0.71      0.00
    8    9   10     -0.30      0.00
  -12   10   10     -0.38      0.00
  -11   10   10      0.18      0.00
  -10   10   10     -0.13      0.00
   -9   10   10     -0.34      0.00
   -8   10   10     -0.28      0.00
   -7   10   10     -0.44      0.00
   -6   10   10      1.13      0.00
   -5   10   10      0.88      0.00
   -4   10   10     -0.56      0.00
   -3   10   10      0.56      0.00
   -2   10   10      1.68      0.00
   -1   10   10      0.86      0.00
    0   10   10     -0.46      0.00
    1   10   10     -0.27      0.00
    2   10   10      0.28      0.00
    3   10   10      0.17      0.00
    4   10   10      0.02      0.00
    5   10   10     -0.71      0.00
    6   10   10     -0.19      0.00
    7   10   10      0.79      0.00
    8   10   10      0.06      0.00
  -12   11   10     -0.63      0.00
  -11   11   10     -0.65      0.00
  -10   11   10     -0.06      0.00
   -9   11   10     -0.24      0.00
   -8   11   10     -0.46      0.00
   -7   11   10     -0.57      0.00
   -6   11   10     -0.50      0.00
   -5   11   10      0.00      0.00
   -4   11   10      0.32      0.00
   -3   11   10      0.26      0.00
   -2   11   10      0.16      0.00
   -1   11   10      0.53      0.00
    0   11   10      0.83      0.00
    1   11   10     -0.11      0.00
    2   11   10     -0.52      0.00
    3   11   10     -0.23      0.00
    4   11   10      0.02      0.00
    5   11   10      0.10      0.00
    6   11   10      0.32      0.00
    7   11   10      0.68      0.00
  -11   12   10     -0.71      0.00
  -10   12   10     -0.94      0.00
   -9   12   10     -0.23      0.00
   -8   12   10      0.24      0.00
   -7   12   10     -0.31      0.00
   -6   12   10      0.82      0.00
   -5   12   10      0.68      0.00
   -4   12   10     -0.56      0.00
   -3   12   10      0.19      0.00
   -2   12   10      0.94      0.00
   -1   12   10      0.40      0.00
    0   12   10     -0.28      0.00
    1   12   10      0.13      0.00
    2   12   10      0.59      0.00
    3   12   10      0.44      0.00
    4   12   10     -0.15      0.00
    5   12   10     -0.97      0.00
    6   12   10     -0.36      0.00
    7   12   10      0.67      0.00
  -11   13   10     -0.24      0.00
  -10   13   10     -0.25      0.00
   -9   13   10     -0.66      0.00
   -8   13   10     -0.54      0.00
   -7   13   10     -0.74      0.00
   -6   13   10     -0.90      0.00
   -5   13   10     -0.05      0.00
   -4   13   10      0.26      0.00
   -3   13   10      0.30      0.00
   -2   13   10      0.62      0.00
   -1   13   10      0.90      0.00
    0   13   10      0.86      0.00
    1   13   10      0.08      0.00
    2   13   10     -0.21      0.00
    3   13   10     -0.03      0.00
    4   13   10      0.25      0.00
    5   13   10      0.01      0.00
    6   13   10     -0.31      0.00
    7   13   10      0.24      0.00
  -11   14   10     -0.91      0.00
  -10   14   10     -1.13      0.00
   -9   14   10      0.00      0.00
   -8   14   10      0.74      0.00
   -7   14   10     -0.10      0.00
   -6   14   10      0.24      0.00
   -5   14   10      0.32      0.00
   -4   14   10     -0.17      0.00
   -3   14   10      0.09      0.00
   -2   14   10      0.13      0.00
   -1   14   10     -0.17      0.00
    0   14   10     -0.33      0.00
    1   14   10      0.04      0.00
    2   14   10      0.29      0.00
    3   14   10      0.43      0.00
    4   14   10      0.25      0.00
    5   14   10     -0.24      0.00
    6   14   10     -0.18      0.00
    7   14   10      0.25      0.00
  -11   15   10      0.30      0.00
  -10   15   10     -0.37      0.00
   -9   15   10     -0.97      0.00
   -8   15   10     -0.28      0.00
   -7   15   10     -0.21      0.00
   -6   15   10     -0.84      0.00
   -5   15   10     -0.44      0.00
   -4   15   10     -0.12      0.00
   -3   15   10      0.45      0.00
   -2   15   10      0.88      0.00
   -1   15   10      0.59      0.00
    0   15   10      0.39      0.00
    1   15   10      0.35      0.00
    2   15   10      0.24      0.00
    3   15   10     -0.09      0.00
    4   15   10      0.05      0.00
    5   15   10     -0.02      0.00
    6   15   10     -0.54      0.00
    7   15   10     -0.25      0.00
  -10   16   10     -0.87      0.00
   -9   16   10     -0.01      0.00
   -8   16   10      0.75      0.00
   -7   16   10      0.16      0.00
   -6   16   10     -0.04      0.00
   -5   16   10      0.05      0.00
   -4   16   10      0.05      0.00
   -3   16   10      0.08      0.00
   -2   16   10      0.00      0.00
   -1   16   10     -0.14      0.00
    0   16   10     -0.52      0.00
    1   16   10     -0.51      0.00
    2   16   10     -0.15      0.00
    3   16   10      0.42      0.00
    4   16   10      0.67      0.00
    5   16   10      0.46      0.00
    6   16   10      0.02      0.00
  -10   17   10     -0.36      0.00
   -9   17   10     -0.88      0.00
   -8   17   10      0.12      0.00
   -7   17   10      0.59      0.00
   -6   17   10     -0.28      0.00
   -5   17   10     -0.66      0.00
   -4   17   10     -0.51      0.00
   -3   17   10      0.37      0.00
   -2   17   10      0.61      0.00
   -1   17   10      0.11      0.00
    0   17   10      0.12      0.00
    1   17   10      0.58      0.00
    2   17   10      0.35      0.00
    3   17   10     -0.55      0.00
    4   17   10     -0.45      0.00
    5   17   10      0.05      0.00
    6   17   10     -0.24      0.00
  -10   18   10     -0.64      0.00
   -9   18   10     -0.26      0.00
   -8   18   10      0.38      0.00
   -7   18   10      0.35      0.00
   -6   18   10      0.08      0.00
   -5   18   10     -0.05      0.00
   -4   18   10     -0.07      0.00
   -3   18   10      0.06      0.00
   -2   18   10      0.35      0.00
   -1   18   10      0.23      0.00
    0   18   10     -0.58      0.00
    1   18   10     -0.78      0.00
    2   18   10     -0.19      0.00
    3   18   10      0.39      0.00
    4   18   10      0.48      0.00
    5   18   10      0.32      0.00
    6   18   10     -0.02      0.00
   -9   19   10     -0.51      0.00
   -8   19   10      0.21      0.00
   -7   19   10      0.88      0.00
   -6   19   10      0.34      0.00
   -5   19   10     -0.40      0.00
   -4   19   10     -0.50      0.00
   -3   19   10      0.16      0.00
   -2   19   10      0.17      0.00
   -1   19   10      0.01      0.00
    0   19   10      0.22      0.00
    1   19   10      0.48      0.00
    2   19   10      0.11      0.00
    3   19   10     -0.78      0.00
    4   19   10     -0.67      0.00
    5   19   10      0.12      0.00
   -9   20   10     -0.31      0.00
   -8   20   10      0.15      0.00
   -7   20   10      0.34      0.00
   -6   20   10      0.18      0.00
   -5   20   10     -0.09      0.00
   -4   20   10     -0.28      0.00
   -3   20   10      0.03      0.00
   -2   20   10      0.51      0.00
   -1   20   10      0.38      0.00
    0   20   10     -0.22      0.00
    1   20   10     -0.30      0.00
    2   20   10      0.03      0.00
    3   20   10      0.06      0.00
    4   20   10     -0.12      0.00
    5   20   10     -0.20      0.00
   -8   21   10     -0.03      0.00
   -7   21   10      0.55      0.00
   -6   21   10      0.60      0.00
   -5   21   10      0.06      0.00
   -4   21   10     -0.18      0.00
   -3   21   10      0.07      0.00
   -2   21   10     -0.01      0.00
   -1   21   10      0.14      0.00
    0   21   10      0.18      0.00
    1   21   10      0.08      0.00
    2   21   10      0.03      0.00
    3   21   10     -0.39      0.00
    4   21   10     -0.40      0.00
   -8   22   10      0.24      0.00
   -7   22   10      0.19      0.00
   -6   22   10      0.10      0.00
   -5   22   10     -0.08      0.00
   -4   22   10     -0.32      0.00
   -3   22   10      0.01      0.00
   -2   22   10      0.28      0.00
   -1   22   10      0.24      0.00
    0   22   10      0.43      0.00
    1   22   10      0.46      0.00
    2   22   10      0.00      0.00
    3   22   10     -0.53      0.00
    4   22   10     -0.50      0.00
   -7   23   10      0.04      0.00
   -6   23   10      0.40      0.00
   -5   23   10      0.20      0.00
   -4   23   10      0.01      0.00
   -3   23   10      0.11      0.00
   -2   23   10      0.10      0.00
   -1   23   10      0.12      0.00
    0   23   10     -0.19      0.00
    1   23   10     -0.18      0.00
    2   23   10      0.40      0.00
    3   23   10      0.20      0.00
   -7   24   10      0.06      0.00
   -6   24   10      0.06      0.00
   -5   24   10      0.05      0.00
   -4   24   10     -0.17      0.00
   -3   24   10      0.03      0.00
   -2   24   10     -0.01      0.00
   -1   24   10      0.06      0.00
    0   24   10      0.81      0.00
    1   24   10      0.77      0.00
    2   24   10     -0.22      0.00
   -6   25   10     -0.01      0.00
   -5   25   10      0.03      0.00
   -4   25   10     -0.05      0.00
   -3   25   10      0.10      0.00
   -2   25   10      0.26      0.00
   -1   25   10     -0.03      0.00
    0   25   10     -0.47      0.00
    1   25   10     -0.05      0.00
   -4   26   10      0.03      0.00
   -3   26   10      0.08      0.00
   -2   26   10     -0.08      0.00
   -1   26   10     -0.05      0.00
    0   26   10      0.54      0.00
  -12    0   11      0.57      0.00
  -11    0   11      0.97      0.00
  -10    0   11      1.50      0.00
   -9    0   11      0.66      0.00
   -8    0   11      0.28      0.00
   -7    0   11      0.66      0.00
   -6    0   11     -0.88      0.00
   -5    0   11     -0.76      0.00
   -4    0   11      0.87      0.00
   -3    0   11     -0.22      0.00
   -2    0   11     -0.90      0.00
   -1    0   11      0.56      0.00
    0    0   11      1.32      0.00
    1    0   11      0.13      0.00
    2    0   11      0.08      0.00
    3    0   11      1.12      0.00
    4    0   11     -0.41      0.00
    5    0   11     -1.58      0.00
    6    0   11     -0.29      0.00
    7    0   11      0.18      0.00
  -12    1   11      0.24      0.00
  -11    1   11      0.14      0.00
  -10    1   11      0.09      0.00
   -9    1   11     -0.02      0.00
   -8    1   11      0.00      0.00
   -7    1   11      0.29      0.00
   -6    1   11      0.11      0.00
   -5    1   11     -0.38      0.00
   -4    1   11     -0.30      0.00
   -3    1   11     -0.03      0.00
   -2    1   11     -0.16      0.00
   -1    1   11     -0.55      0.00
    0    1   11     -0.56      0.00
    1    1   11     -0.15      0.00
    2    1   11      0.18      0.00
    3    1   11      0.33      0.00
    4    1   11      0.46      0.00
    5    1   11      0.32      0.00
    6    1   11     -0.22      0.00
    7    1   11     -0.61      0.00
  -12    2   11      0.37      0.00
  -11    2   11      0.56      0.00
  -10    2   11      1.04      0.00
   -9    2   11      0.39      0.00
   -8    2   11      0.11      0.00
   -7    2   11      0.60      0.00
   -6    2   11     -0.75      0.00
   -5    2   11     -0.95      0.00
   -4    2   11      0.33      0.00
   -3    2   11     -0.41      0.00
   -2    2   11     -0.58      0.00
   -1    2   11      0.80      0.00
    0    2   11      1.26      0.00
    1    2   11      0.18      0.00
    2    2   11      0.24      0.00
    3    2   11      1.13      0.00
    4    2   11     -0.48      0.00
    5    2   11     -1.53      0.00
    6    2   11     -0.24      0.00
    7    2   11      0.09      0.00
  -12    3   11      0.43      0.00
  -11    3   11      0.24      0.00
  -10    3   11      0.25      0.00
   -9    3   11      0.04      0.00
   -8    3   11      0.04      0.00
   -7    3   11      0.66      0.00
   -6    3   11      0.29      0.00
   -5    3   11     -0.81      0.00
   -4    3   11     -0.82      0.00
   -3    3   11     -0.36      0.00
   -2    3   11     -0.39      0.00
   -1    3   11     -0.97      0.00
    0    3   11     -1.07      0.00
    1    3   11     -0.36      0.00
    2    3   11      0.34      0.00
    3    3   11      0.69      0.00
    4    3   11      0.96      0.00
    5    3   11      0.69      0.00
    6    3   11     -0.43      0.00
    7    3   11     -1.23      0.00
  -12    4   11      0.01      0.00
  -11    4   11     -0.33      0.00
  -10    4   11     -0.05      0.00
   -9    4   11     -0.16      0.00
   -8    4   11     -0.19      0.00
   -7    4   11      0.51      0.00
   -6    4   11     -0.51      0.00
   -5    4   11     -1.26      0.00
   -4    4   11     -0.59      0.00
   -3    4   11     -0.77      0.00
   -2    4   11     -0.16      0.00
   -1    4   11      1.07      0.00
    0    4   11      1.12      0.00
    1    4   11      0.38      0.00
    2    4   11      0.54      0.00
    3    4   11      0.99      0.00
    4    4   11     -0.72      0.00
    5    4   11     -1.42      0.00
    6    4   11     -0.18      0.00
    7    4   11     -0.10      0.00
  -12    5   11      0.20      0.00
  -11    5   11      0.11      0.00
  -10    5   11      0.32      0.00
   -9    5   11      0.18      0.00
   -8    5   11      0.07      0.00
   -7    5   11      0.58      0.00
   -6    5   11      0.25      0.00
   -5    5   11     -0.68      0.00
   -4    5   11     -1.00      0.00
   -3    5   11     -0.92      0.00
   -2    5   11     -0.41      0.00
   -1    5   11     -0.25      0.00
    0    5   11     -0.57      0.00
    1    5   11     -0.36      0.00
    2    5   11      0.24      0.00
    3    5   11      0.60      0.00
    4    5   11      0.73      0.00
    5    5   11      0.48      0.00
    6    5   11     -0.33      0.00
    7    5   11     -0.92      0.00
  -12    6   11     -0.07      0.00
  -11    6   11     -0.96      0.00
  -10    6   11     -0.95      0.00
   -9    6   11     -0.47      0.00
   -8    6   11     -0.26      0.00
   -7    6   11      0.49      0.00
   -6    6   11     -0.41      0.00
   -5    6   11     -1.40      0.00
   -4    6   11     -0.81      0.00
   -3    6   11     -0.88      0.00
   -2    6   11     -0.36      0.00
   -1    6   11      0.73      0.00
    0    6   11      0.94      0.00
    1    6   11      0.68      0.00
    2    6   11      0.59      0.00
    3    6   11      0.53      0.00
    4    6   11     -0.93      0.00
    5    6   11     -1.15      0.00
    6    6   11     -0.11      0.00
    7    6   11     -0.23      0.00
  -11    7   11      0.15      0.00
  -10    7   11      0.34      0.00
   -9    7   11      0.16      0.00
   -8    7   11     -0.02      0.00
   -7    7   11      0.22      0.00
   -6    7   11      0.07      0.00
   -5    7   11     -0.34      0.00
   -4    7   11     -0.84      0.00
   -3    7   11     -1.15      0.00
   -2    7   11     -0.24      0.00
   -1    7   11      0.61      0.00
    0    7   11      0.02      0.00
    1    7   11     -0.28      0.00
    2    7   11      0.30      0.00
    3    7   11      0.53      0.00
    4    7   11      0.23      0.00
    5    7   11     -0.06      0.00
    6    7   11     -0.26      0.00
    7    7   11     -0.44      0.00
  -11    8   11     -0.81      0.00
  -10    8   11     -0.90      0.00
   -9    8   11     -0.23      0.00
   -8    8   11     -0.12      0.00
   -7    8   11      0.46      0.00
   -6    8   11     -0.58      0.00
   -5    8   11     -1.39      0.00
   -4    8   11     -0.27      0.00
   -3    8   11     -0.61      0.00
   -2    8   11     -0.95      0.00
   -1    8   11      0.00      0.00
    0    8   11      0.72      0.00
    1    8   11      0.69      0.00
    2    8   11      0.15      0.00
    3    8   11     -0.01      0.00
    4    8   11     -0.69      0.00
    5    8   11     -0.52      0.00
    6    8   11      0.07      0.00
    7    8   11     -0.31      0.00
  -11    9   11      0.46      0.00
  -10    9   11      0.32      0.00
   -9    9   11      0.04      0.00
   -8    9   11     -0.06      0.00
   -7    9   11      0.10      0.00
   -6    9   11      0.08      0.00
   -5    9   11     -0.20      0.00
   -4    9   11     -0.61      0.00
   -3    9   11     -0.81      0.00
   -2    9   11     -0.16      0.00
   -1    9   11      0.52      0.00
    0    9   11     -0.13      0.00
    1    9   11     -0.21      0.00
    2    9   11      0.58      0.00
    3    9   11      0.60      0.00
    4    9   11     -0.07      0.00
    5    9   11     -0.41      0.00
    6    9   11     -0.26      0.00
    7    9   11     -0.36      0.00
  -11   10   11     -0.08      0.00
  -10   10   11     -0.06      0.00
   -9   10   11      0.23      0.00
   -8   10   11     -0.17      0.00
   -7   10   11      0.29      0.00
   -6   10   11     -0.75      0.00
   -5   10   11     -1.33      0.00
   -4   10   11      0.23      0.00
   -3   10   11     -0.18      0.00
   -2   10   11     -1.02      0.00
   -1   10   11     -0.29      0.00
    0   10   11      0.45      0.00
    1   10   11      0.23      0.00
    2   10   11     -0.46      0.00
    3   10   11     -0.26      0.00
    4   10   11     -0.10      0.00
    5   10   11      0.20      0.00
    6   10   11      0.28      0.00
  -11   11   11      0.56      0.00
  -10   11   11      0.23      0.00
   -9   11   11      0.13      0.00
   -8   11   11      0.17      0.00
   -7   11   11      0.35      0.00
   -6   11   11      0.43      0.00
   -5   11   11     -0.22      0.00
   -4   11   11     -0.55      0.00
   -3   11   11     -0.42      0.00
   -2   11   11     -0.42      0.00
   -1   11   11     -0.33      0.00
    0   11   11     -0.65      0.00
    1   11   11     -0.16      0.00
    2   11   11      0.62      0.00
    3   11   11      0.43      0.00
    4   11   11     -0.15      0.00
    5   11   11     -0.34      0.00
    6   11   11     -0.12      0.00
  -11   12   11      0.55      0.00
  -10   12   11      0.68      0.00
   -9   12   11      0.34      0.00
   -8   12   11     -0.56      0.00
   -7   12   11      0.00      0.00
   -6   12   11     -0.55      0.00
   -5   12   11     -1.03      0.00
   -4   12   11      0.22      0.00
   -3   12   11      0.10      0.00
   -2   12   11     -0.34      0.00
   -1   12   11      0.04      0.00
    0   12   11      0.19      0.00
    1   12   11     -0.25      0.00
    2   12   11     -0.63      0.00
    3   12   11     -0.22      0.00
    4   12   11      0.14      0.00
    5   12   11      0.33      0.00
    6   12   11      0.27      0.00
  -10   13   11      0.08      0.00
   -9   13   11      0.48      0.00
   -8   13   11      0.46      0.00
   -7   13   11      0.49      0.00
   -6   13   11      0.80      0.00
   -5   13   11     -0.08      0.00
   -4   13   11     -0.51      0.00
   -3   13   11     -0.38      0.00
   -2   13   11     -0.79      0.00
   -1   13   11     -0.83      0.00
    0   13   11     -0.73      0.00
    1   13   11     -0.16      0.00
    2   13   11      0.21      0.00
    3   13   11      0.03      0.00
    4   13   11     -0.08      0.00
    5   13   11     -0.08      0.00
    6   13   11      0.11      0.00
  -10   14   11      0.75      0.00
   -9   14   11      0.10      0.00
   -8   14   11     -0.92      0.00
   -7   14   11     -0.32      0.00
   -6   14   11     -0.11      0.00
   -5   14   11     -0.41      0.00
   -4   14   11     -0.03      0.00
   -3   14   11      0.06      0.00
   -2   14   11      0.32      0.00
   -1   14   11      0.42      0.00
    0   14   11      0.11      0.00
    1   14   11     -0.16      0.00
    2   14   11     -0.21      0.00
    3   14   11     -0.22      0.00
    4   14   11     -0.28      0.00
    5   14   11     -0.18      0.00
  -10   15   11     -0.04      0.00
   -9   15   11      0.73      0.00
   -8   15   11      0.44      0.00
   -7   15   11      0.06      0.00
   -6   15   11      0.69      0.00
   -5   15   11      0.28      0.00
   -4   15   11     -0.19      0.00
   -3   15   11     -0.46      0.00
   -2   15   11     -0.83      0.00
   -1   15   11     -0.52      0.00
    0   15   11     -0.33      0.00
    1   15   11     -0.25      0.00
    2   15   11     -0.24      0.00
    3   15   11     -0.06      0.00
    4   15   11      0.20      0.00
    5   15   11      0.03      0.00
   -9   16   11     -0.01      0.00
   -8   16   11     -0.82      0.00
   -7   16   11     -0.57      0.00
   -6   16   11      0.11      0.00
   -5   16   11      0.22      0.00
   -4   16   11     -0.07      0.00
   -3   16   11     -0.18      0.00
   -2   16   11      0.26      0.00
   -1   16   11      0.35      0.00
    0   16   11      0.27      0.00
    1   16   11      0.38      0.00
    2   16   11      0.25      0.00
    3   16   11     -0.42      0.00
    4   16   11     -0.73      0.00
    5   16   11     -0.50      0.00
   -9   17   11      0.63      0.00
   -8   17   11      0.19      0.00
   -7   17   11     -0.59      0.00
   -6   17   11      0.02      0.00
   -5   17   11      0.48      0.00
   -4   17   11      0.35      0.00
   -3   17   11     -0.35      0.00
   -2   17   11     -0.52      0.00
   -1   17   11      0.00      0.00
    0   17   11     -0.06      0.00
    1   17   11     -0.33      0.00
    2   17   11     -0.24      0.00
    3   17   11      0.27      0.00
    4   17   11      0.49      0.00
   -9   18   11      0.15      0.00
   -8   18   11     -0.37      0.00
   -7   18   11     -0.64      0.00
   -6   18   11     -0.05      0.00
   -5   18   11      0.51      0.00
   -4   18   11      0.20      0.00
   -3   18   11     -0.32      0.00
   -2   18   11     -0.28      0.00
   -1   18   11      0.01      0.00
    0   18   11      0.40      0.00
    1   18   11      0.64      0.00
    2   18   11      0.24      0.00
    3   18   11     -0.55      0.00
    4   18   11     -0.55      0.00
   -8   19   11      0.08      0.00
   -7   19   11     -0.81      0.00
   -6   19   11     -0.72      0.00
   -5   19   11      0.25      0.00
   -4   19   11      0.65      0.00
   -3   19   11     -0.11      0.00
   -2   19   11     -0.23      0.00
   -1   19   11      0.09      0.00
    0   19   11     -0.11      0.00
    1   19   11     -0.16      0.00
    2   19   11      0.11      0.00
    3   19   11      0.47      0.00
    4   19   11      0.43      0.00
   -8   20   11     -0.09      0.00
   -7   20   11     -0.48      0.00
   -6   20   11     -0.24      0.00
   -5   20   11      0.39      0.00
   -4   20   11      0.50      0.00
   -3   20   11     -0.18      0.00
   -2   20   11     -0.60      0.00
   -1   20   11     -0.24      0.00
    0   20   11      0.18      0.00
    1   20   11      0.27      0.00
    2   20   11     -0.03      0.00
    3   20   11     -0.26      0.00
   -7   21   11     -0.50      0.00
   -6   21   11     -0.98      0.00
   -5   21   11     -0.16      0.00
   -4   21   11      0.53      0.00
   -3   21   11      0.01      0.00
   -2   21   11     -0.19      0.00
   -1   21   11     -0.15      0.00
    0   21   11     -0.13      0.00
    1   21   11      0.21      0.00
    2   21   11      0.29      0.00
   -6   22   11     -0.27      0.00
   -5   22   11      0.05      0.00
   -4   22   11      0.56      0.00
   -3   22   11      0.09      0.00
   -2   22   11     -0.48      0.00
   -1   22   11     -0.29      0.00
    0   22   11     -0.28      0.00
    1   22   11     -0.29      0.00
    2   22   11     -0.05      0.00
   -5   23   11     -0.32      0.00
   -4   23   11      0.21      0.00
   -3   23   11     -0.02      0.00
   -2   23   11     -0.28      0.00
   -1   23   11     -0.28      0.00
    0   23   11      0.02      0.00
    1   23   11      0.40      0.00
   -4   24   11      0.34      0.00
   -3   24   11      0.18      0.00
   -2   24   11     -0.23      0.00
   -1   24   11     -0.20      0.00
  -11    0   12     -0.50      0.00
  -10    0   12     -1.03      0.00
   -9    0   12     -0.75      0.00
   -8    0   12     -0.03      0.00
   -7    0   12      0.04      0.00
   -6    0   12      0.74      0.00
   -5    0   12      0.75      0.00
   -4    0   12     -1.13      0.00
   -3    0   12     -0.63      0.00
   -2    0   12      0.81      0.00
   -1    0   12     -0.20      0.00
    0    0   12     -1.51      0.00
    1    0   12     -0.51      0.00
    2    0   12      0.68      0.00
    3    0   12     -0.31      0.00
    4    0   12      0.10      0.00
    5    0   12      1.69      0.00
    6    0   12      0.55      0.00
  -11    1   12     -0.29      0.00
  -10    1   12     -0.14      0.00
   -9    1   12      0.08      0.00
   -8    1   12      0.07      0.00
   -7    1   12     -0.16      0.00
   -6    1   12     -0.07      0.00
   -5    1   12      0.28      0.00
   -4    1   12      0.24      0.00
   -3    1   12      0.03      0.00
   -2    1   12      0.15      0.00
   -1    1   12      0.48      0.00
    0    1   12      0.43      0.00
    1    1   12     -0.05      0.00
    2    1   12     -0.23      0.00
    3    1   12     -0.23      0.00
    4    1   12     -0.40      0.00
    5    1   12     -0.26      0.00
    6    1   12      0.24      0.00
  -11    2   12     -0.23      0.00
  -10    2   12     -0.71      0.00
   -9    2   12     -0.42      0.00
   -8    2   12      0.19      0.00
   -7    2   12      0.03      0.00
   -6    2   12      0.62      0.00
   -5    2   12      0.91      0.00
   -4    2   12     -0.69      0.00
   -3    2   12     -0.49      0.00
   -2    2   12      0.48      0.00
   -1    2   12     -0.46      0.00
    0    2   12     -1.33      0.00
    1    2   12     -0.44      0.00
    2    2   12      0.42      0.00
    3    2   12     -0.36      0.00
    4    2   12      0.23      0.00
    5    2   12      1.59      0.00
    6    2   12      0.47      0.00
  -11    3   12     -0.54      0.00
  -10    3   12     -0.39      0.00
   -9    3   12      0.09      0.00
   -8    3   12      0.17      0.00
   -7    3   12     -0.34      0.00
   -6    3   12     -0.19      0.00
   -5    3   12      0.66      0.00
   -4    3   12      0.72      0.00
   -3    3   12      0.30      0.00
   -2    3   12      0.33      0.00
   -1    3   12      0.79      0.00
    0    3   12      0.74      0.00
    1    3   12     -0.09      0.00
    2    3   12     -0.45      0.00
    3    3   12     -0.47      0.00
    4    3   12     -0.78      0.00
    5    3   12     -0.50      0.00
    6    3   12      0.43      0.00
  -11    4   12      0.35      0.00
  -10    4   12      0.07      0.00
   -9    4   12      0.28      0.00
   -8    4   12      0.60      0.00
   -7    4   12     -0.02      0.00
   -6    4   12      0.31      0.00
   -5    4   12      1.14      0.00
   -4    4   12      0.13      0.00
   -3    4   12     -0.12      0.00
   -2    4   12      0.00      0.00
   -1    4   12     -0.89      0.00
    0    4   12     -0.98      0.00
    1    4   12     -0.37      0.00
    2    4   12     -0.09      0.00
    3    4   12     -0.33      0.00
    4    4   12      0.60      0.00
    5    4   12      1.40      0.00
    6    4   12      0.30      0.00
  -11    5   12     -0.26      0.00
  -10    5   12     -0.54      0.00
   -9    5   12     -0.12      0.00
   -8    5   12      0.25      0.00
   -7    5   12     -0.22      0.00
   -6    5   12     -0.16      0.00
   -5    5   12      0.70      0.00
   -4    5   12      1.00      0.00
   -3    5   12      0.75      0.00
   -2    5   12      0.32      0.00
   -1    5   12      0.07      0.00
    0    5   12      0.17      0.00
    1    5   12     -0.05      0.00
    2    5   12     -0.34      0.00
    3    5   12     -0.46      0.00
    4    5   12     -0.47      0.00
    5    5   12     -0.17      0.00
    6    5   12      0.24      0.00
  -11    6   12      0.75      0.00
  -10    6   12      0.71      0.00
   -9    6   12      0.65      0.00
   -8    6   12      0.77      0.00
   -7    6   12     -0.10      0.00
   -6    6   12      0.01      0.00
   -5    6   12      1.15      0.00
   -4    6   12      0.54      0.00
   -3    6   12      0.22      0.00
   -2    6   12      0.05      0.00
   -1    6   12     -0.93      0.00
    0    6   12     -0.76      0.00
    1    6   12     -0.41      0.00
    2    6   12     -0.31      0.00
    3    6   12     -0.03      0.00
    4    6   12      0.91      0.00
    5    6   12      1.16      0.00
    6    6   12      0.15      0.00
  -10    7   12     -0.56      0.00
   -9    7   12     -0.26      0.00
   -8    7   12      0.37      0.00
   -7    7   12      0.12      0.00
   -6    7   12      0.02      0.00
   -5    7   12      0.52      0.00
   -4    7   12      0.90      0.00
   -3    7   12      0.90      0.00
   -2    7   12      0.25      0.00
   -1    7   12     -0.68      0.00
    0    7   12     -0.46      0.00
    1    7   12      0.05      0.00
    2    7   12     -0.32      0.00
    3    7   12     -0.55      0.00
    4    7   12      0.02      0.00
    5    7   12      0.43      0.00
  -10    8   12      0.70      0.00
   -9    8   12      0.35      0.00
   -8    8   12      0.60      0.00
   -7    8   12     -0.10      0.00
   -6    8   12     -0.04      0.00
   -5    8   12      1.08      0.00
   -4    8   12      0.41      0.00
   -3    8   12      0.30      0.00
   -2    8   12      0.48      0.00
   -1    8   12     -0.57      0.00
    0    8   12     -0.64      0.00
    1    8   12     -0.32      0.00
    2    8   12      0.04      0.00
    3    8   12      0.32      0.00
    4    8   12      0.69      0.00
    5    8   12      0.69      0.00
  -10    9   12     -0.42      0.00
   -9    9   12     -0.22      0.00
   -8    9   12      0.34      0.00
   -7    9   12      0.31      0.00
   -6    9   12      0.09      0.00
   -5    9   12      0.32      0.00
   -4    9   12      0.59      0.00
   -3    9   12      0.62      0.00
   -2    9   12      0.38      0.00
   -1    9   12     -0.48      0.00
    0    9   12     -0.37      0.00
    1    9   12      0.13      0.00
    2    9   12     -0.49      0.00
    3    9   12     -0.71      0.00
    4    9   12      0.22      0.00
    5    9   12      0.71      0.00
  -10   10   12      0.18      0.00
   -9   10   12     -0.19      0.00
   -8   10   12      0.41      0.00
   -7   10   12      0.05      0.00
   -6   10   12      0.12      0.00
   -5   10   12      1.08      0.00
   -4   10   12      0.19      0.00
   -3   10   12      0.06      0.00
   -2   10   12      0.51      0.00
   -1   10   12     -0.28      0.00
    0   10   12     -0.40      0.00
    1   10   12      0.05      0.00
    2   10   12      0.56      0.00
    3   10   12      0.39      0.00
    4   10   12      0.07      0.00
    5   10   12      0.13      0.00
  -10   11   12     -0.12      0.00
   -9   11   12     -0.18      0.00
   -8   11   12     -0.03      0.00
   -7   11   12      0.08      0.00
   -6   11   12     -0.15      0.00
   -5   11   12      0.17      0.00
   -4   11   12      0.45      0.00
   -3   11   12      0.35      0.00
   -2   11   12      0.69      0.00
   -1   11   12      0.35      0.00
    0   11   12      0.17      0.00
    1   11   12      0.16      0.00
    2   11   12     -0.51      0.00
    3   11   12     -0.50      0.00
    4   11   12      0.17      0.00
    5   11   12      0.47      0.00
   -9   12   12     -0.31      0.00
   -8   12   12      0.48      0.00
   -7   12   12      0.26      0.00
   -6   12   12      0.19      0.00
   -5   12   12      0.93      0.00
   -4   12   12      0.13      0.00
   -3   12   12     -0.24      0.00
   -2   12   12     -0.03      0.00
   -1   12   12     -0.32      0.00
    0   12   12     -0.06      0.00
    1   12   12      0.41      0.00
    2   12   12      0.64      0.00
    3   12   12      0.24      0.00
    4   12   12     -0.21      0.00
   -9   13   12     -0.20      0.00
   -8   13   12     -0.45      0.00
   -7   13   12     -0.21      0.00
   -6   13   12     -0.49      0.00
   -5   13   12      0.00      0.00
   -4   13   12      0.51      0.00
   -3   13   12      0.38      0.00
   -2   13   12      0.85      0.00
   -1   13   12      0.73      0.00
    0   13   12      0.43      0.00
    1   13   12      0.19      0.00
    2   13   12     -0.20      0.00
    3   13   12      0.01      0.00
    4   13   12      0.06      0.00
   -9   14   12      0.02      0.00
   -8   14   12      0.64      0.00
   -7   14   12      0.41      0.00
   -6   14   12      0.07      0.00
   -5   14   12      0.41      0.00
   -4   14   12      0.09      0.00
   -3   14   12     -0.23      0.00
   -2   14   12     -0.45      0.00
   -1   14   12     -0.45      0.00
    0   14   12      0.09      0.00
    1   14   12      0.31      0.00
    2   14   12      0.17      0.00
    3   14   12      0.18      0.00
    4   14   12      0.23      0.00
   -8   15   12     -0.52      0.00
   -7   15   12     -0.12      0.00
   -6   15   12     -0.47      0.00
   -5   15   12     -0.18      0.00
   -4   15   12      0.40      0.00
   -3   15   12      0.47      0.00
   -2   15   12      0.64      0.00
   -1   15   12      0.32      0.00
    0   15   12      0.25      0.00
    1   15   12      0.25      0.00
    2   15   12      0.10      0.00
    3   15   12      0.22      0.00
   -8   16   12      0.54      0.00
   -7   16   12      0.47      0.00
   -6   16   12     -0.02      0.00
   -5   16   12     -0.25      0.00
   -4   16   12     -0.12      0.00
   -3   16   12      0.11      0.00
   -2   16   12     -0.18      0.00
   -1   16   12     -0.38      0.00
    0   16   12     -0.10      0.00
    1   16   12     -0.09      0.00
    2   16   12     -0.27      0.00
    3   16   12      0.35      0.00
   -8   17   12     -0.26      0.00
   -7   17   12      0.21      0.00
   -6   17   12      0.03      0.00
   -5   17   12     -0.19      0.00
   -4   17   12     -0.06      0.00
   -3   17   12      0.28      0.00
   -2   17   12      0.28      0.00
   -1   17   12     -0.20      0.00
    0   17   12      0.03      0.00
    1   17   12      0.28      0.00
    2   17   12      0.06      0.00
    3   17   12     -0.03      0.00
   -7   18   12      0.42      0.00
   -6   18   12      0.06      0.00
   -5   18   12     -0.60      0.00
   -4   18   12     -0.44      0.00
   -3   18   12      0.34      0.00
   -2   18   12      0.43      0.00
   -1   18   12     -0.14      0.00
    0   18   12     -0.32      0.00
    1   18   12     -0.29      0.00
    2   18   12     -0.23      0.00
   -6   19   12      0.63      0.00
   -5   19   12      0.07      0.00
   -4   19   12     -0.51      0.00
   -3   19   12     -0.07      0.00
   -2   19   12      0.14      0.00
   -1   19   12     -0.20      0.00
    0   19   12      0.00      0.00
    1   19   12      0.12      0.00
   -6   20   12      0.16      0.00
   -5   20   12     -0.44      0.00
   -4   20   12     -0.64      0.00
   -3   20   12      0.16      0.00
   -2   20   12      0.72      0.00
   -1   20   12      0.13      0.00
    0   20   12     -0.23      0.00
    1   20   12     -0.09      0.00
   -4   21   12     -0.53      0.00
   -3   21   12     -0.24      0.00
   -2   21   12      0.23      0.00
   -1   21   12      0.12      0.00
  -10    0   13      0.47      0.00
   -9    0   13      0.34      0.00
   -8    0   13      0.14      0.00
   -7    0   13     -0.07      0.00
   -6    0   13     -0.48      0.00
   -5    0   13     -0.65      0.00
   -4    0   13      1.00      0.00
   -3    0   13      1.37      0.00
   -2    0   13     -0.32      0.00
   -1    0   13     -0.41      0.00
    0    0   13      0.87      0.00
    1    0   13      0.68      0.00
    2    0   13     -0.82      0.00
    3    0   13     -0.62      0.00
    4    0   13      0.01      0.00
  -10    1   13      0.25      0.00
   -9    1   13     -0.07      0.00
   -8    1   13     -0.19      0.00
   -7    1   13     -0.03      0.00
   -6    1   13      0.06      0.00
   -5    1   13     -0.10      0.00
   -4    1   13     -0.17      0.00
   -3    1   13     -0.12      0.00
   -2    1   13     -0.13      0.00
   -1    1   13     -0.32      0.00
    0    1   13     -0.36      0.00
    1    1   13      0.09      0.00
    2    1   13      0.33      0.00
    3    1   13      0.19      0.00
    4    1   13      0.23      0.00
  -10    2   13      0.30      0.00
   -9    2   13      0.13      0.00
   -8    2   13     -0.09      0.00
   -7    2   13     -0.13      0.00
   -6    2   13     -0.43      0.00
   -5    2   13     -0.74      0.00
   -4    2   13      0.75      0.00
   -3    2   13      1.25      0.00
   -2    2   13     -0.14      0.00
   -1    2   13     -0.13      0.00
    0    2   13      0.77      0.00
    1    2   13      0.49      0.00
    2    2   13     -0.63      0.00
    3    2   13     -0.45      0.00
    4    2   13     -0.07      0.00
  -10    3   13      0.62      0.00
   -9    3   13     -0.04      0.00
   -8    3   13     -0.46      0.00
   -7    3   13     -0.11      0.00
   -6    3   13      0.14      0.00
   -5    3   13     -0.27      0.00
   -4    3   13     -0.56      0.00
   -3    3   13     -0.42      0.00
   -2    3   13     -0.27      0.00
   -1    3   13     -0.50      0.00
    0    3   13     -0.60      0.00
    1    3   13      0.24      0.00
    2    3   13      0.68      0.00
    3    3   13      0.36      0.00
    4    3   13      0.38      0.00
   -9    4   13     -0.29      0.00
   -8    4   13     -0.54      0.00
   -7    4   13     -0.23      0.00
   -6    4   13     -0.24      0.00
   -5    4   13     -0.79      0.00
   -4    4   13      0.25      0.00
   -3    4   13      0.86      0.00
   -2    4   13      0.07      0.00
   -1    4   13      0.43      0.00
    0    4   13      0.66      0.00
    1    4   13      0.15      0.00
    2    4   13     -0.23      0.00
    3    4   13     -0.21      0.00
    4    4   13     -0.36      0.00
   -9    5   13      0.22      0.00
   -8    5   13     -0.53      0.00
   -7    5   13     -0.27      0.00
   -6    5   13      0.08      0.00
   -5    5   13     -0.42      0.00
   -4    5   13     -0.87      0.00
   -3    5   13     -0.66      0.00
   -2    5   13     -0.21      0.00
   -1    5   13      0.02      0.00
    0    5   13     -0.02      0.00
    1    5   13      0.33      0.00
    2    5   13      0.55      0.00
    3    5   13      0.28      0.00
    4    5   13      0.07      0.00
   -9    6   13     -0.45      0.00
   -8    6   13     -0.76      0.00
   -7    6   13     -0.30      0.00
   -6    6   13      0.07      0.00
   -5    6   13     -0.60      0.00
   -4    6   13     -0.11      0.00
   -3    6   13      0.27      0.00
   -2    6   13     -0.12      0.00
   -1    6   13      0.79      0.00
    0    6   13      0.71      0.00
    1    6   13     -0.03      0.00
    2    6   13     -0.05      0.00
    3    6   13     -0.25      0.00
    4    6   13     -0.67      0.00
   -9    7   13      0.42      0.00
   -8    7   13     -0.50      0.00
   -7    7   13     -0.52      0.00
   -6    7   13     -0.16      0.00
   -5    7   13     -0.44      0.00
   -4    7   13     -0.77      0.00
   -3    7   13     -0.57      0.00
   -2    7   13     -0.19      0.00
   -1    7   13      0.43      0.00
    0    7   13      0.67      0.00
    1    7   13      0.36      0.00
    2    7   13      0.34      0.00
    3    7   13      0.32      0.00
    4    7   13     -0.25      0.00
   -9    8   13     -0.14      0.00
   -8    8   13     -0.57      0.00
   -7    8   13     -0.32      0.00
   -6    8   13      0.24      0.00
   -5    8   13     -0.40      0.00
   -4    8   13     -0.26      0.00
   -3    8   13     -0.19      0.00
   -2    8   13     -0.49      0.00
   -1    8   13      0.75      0.00
    0    8   13      0.73      0.00
    1    8   13     -0.11      0.00
    2    8   13     -0.24      0.00
    3    8   13     -0.47      0.00
   -9    9   13      0.35      0.00
   -8    9   13     -0.30      0.00
   -7    9   13     -0.61      0.00
   -6    9   13     -0.37      0.00
   -5    9   13     -0.31      0.00
   -4    9   13     -0.35      0.00
   -3    9   13     -0.21      0.00
   -2    9   13     -0.43      0.00
   -1    9   13      0.07      0.00
    0    9   13      0.72      0.00
    1    9   13      0.30      0.00
    2    9   13      0.31      0.00
    3    9   13      0.48      0.00
   -8   10   13     -0.24      0.00
   -7   10   13     -0.33      0.00
   -6   10   13      0.14      0.00
   -5   10   13     -0.47      0.00
   -4   10   13     -0.34      0.00
   -3   10   13     -0.17      0.00
   -2   10   13     -0.41      0.00
   -1   10   13      0.52      0.00
    0   10   13      0.44      0.00
    1   10   13     -0.29      0.00
    2   10   13     -0.52      0.00
    3   10   13     -0.50      0.00
   -8   11   13      0.12      0.00
   -7   11   13     -0.28      0.00
   -6   11   13     -0.26      0.00
   -5   11   13     -0.13      0.00
   -4   11   13     -0.10      0.00
   -3   11   13     -0.04      0.00
   -2   11   13     -0.78      0.00
   -1   11   13     -0.60      0.00
    0   11   13      0.27      0.00
    1   11   13      0.10      0.00
    2   11   13      0.28      0.00
    3   11   13      0.37      0.00
   -8   12   13     -0.17      0.00
   -7   12   13     -0.28      0.00
   -6   12   13     -0.02      0.00
   -5   12   13     -0.62      0.00
   -4   12   13     -0.36      0.00
   -3   12   13      0.18      0.00
   -2   12   13      0.10      0.00
   -1   12   13      0.34      0.00
    0   12   13     -0.01      0.00
    1   12   13     -0.45      0.00
    2   12   13     -0.45      0.00
   -7   13   13      0.20      0.00
   -6   13   13      0.08      0.00
   -5   13   13      0.00      0.00
   -4   13   13     -0.24      0.00
   -3   13   13     -0.23      0.00
   -2   13   13     -0.84      0.00
   -1   13   13     -0.69      0.00
    0   13   13     -0.07      0.00
    1   13   13     -0.16      0.00
    2   13   13      0.10      0.00
   -7   14   13     -0.18      0.00
   -6   14   13     -0.02      0.00
   -5   14   13     -0.45      0.00
   -4   14   13     -0.21      0.00
   -3   14   13      0.35      0.00
   -2   14   13      0.38      0.00
   -1   14   13      0.24      0.00
    0   14   13     -0.18      0.00
    1   14   13     -0.34      0.00
    2   14   13     -0.07      0.00
   -6   15   13      0.29      0.00
   -5   15   13      0.04      0.00
   -4   15   13     -0.42      0.00
   -3   15   13     -0.42      0.00
   -2   15   13     -0.48      0.00
   -1   15   13     -0.14      0.00
    0   15   13     -0.07      0.00
    1   15   13     -0.35      0.00
   -6   16   13      0.07      0.00
   -5   16   13      0.01      0.00
   -4   16   13      0.10      0.00
   -3   16   13      0.12      0.00
   -2   16   13      0.03      0.00
   -1   16   13      0.15      0.00
    0   16   13      0.08      0.00
   -5   17   13     -0.03      0.00
   -4   17   13     -0.25      0.00
   -3   17   13     -0.24      0.00
   -2   17   13     -0.06      0.00
   -1   17   13      0.32      0.00
   -3   18   13     -0.13      0.00
   -2   18   13     -0.54      0.00
   -8    0   14     -0.10      0.00
   -7    0   14     -0.22      0.00
   -6    0   14     -0.01      0.00
   -5    0   14      0.39      0.00
   -4    0   14     -0.52      0.00
   -3    0   14     -1.36      0.00
   -2    0   14     -0.22      0.00
   -1    0   14      0.60      0.00
    0    0   14     -0.05      0.00
    1    0   14     -0.39      0.00
    2    0   14      0.52      0.00
   -8    1   14      0.19      0.00
   -7    1   14      0.20      0.00
   -6    1   14      0.03      0.00
   -5    1   14     -0.08      0.00
   -4    1   14      0.01      0.00
   -3    1   14      0.18      0.00
   -2    1   14      0.20      0.00
   -1    1   14      0.17      0.00
    0    1   14      0.23      0.00
    1    1   14     -0.04      0.00
    2    1   14     -0.32      0.00
   -8    2   14      0.03      0.00
   -7    2   14     -0.10      0.00
   -6    2   14      0.09      0.00
   -5    2   14      0.48      0.00
   -4    2   14     -0.48      0.00
   -3    2   14     -1.37      0.00
   -2    2   14     -0.25      0.00
   -1    2   14      0.45      0.00
    0    2   14     -0.08      0.00
    1    2   14     -0.21      0.00
    2    2   14      0.46      0.00
   -8    3   14      0.42      0.00
   -7    3   14      0.49      0.00
   -6    3   14      0.10      0.00
   -5    3   14     -0.10      0.00
   -4    3   14      0.17      0.00
   -3    3   14      0.48      0.00
   -2    3   14      0.40      0.00
   -1    3   14      0.22      0.00
    0    3   14      0.34      0.00
    1    3   14     -0.17      0.00
    2    3   14     -0.68      0.00
   -8    4   14      0.30      0.00
   -7    4   14      0.14      0.00
   -6    4   14      0.21      0.00
   -5    4   14      0.54      0.00
   -4    4   14     -0.37      0.00
   -3    4   14     -1.22      0.00
   -2    4   14     -0.17      0.00
   -1    4   14      0.11      0.00
    0    4   14     -0.25      0.00
    1    4   14      0.11      0.00
    2    4   14      0.32      0.00
   -7    5   14      0.61      0.00
   -6    5   14      0.20      0.00
   -5    5   14      0.09      0.00
   -4    5   14      0.46      0.00
   -3    5   14      0.56      0.00
   -2    5   14      0.24      0.00
   -1    5   14     -0.10      0.00
    0    5   14     -0.12      0.00
    1    5   14     -0.38      0.00
    2    5   14     -0.55      0.00
   -7    6   14      0.31      0.00
   -6    6   14      0.13      0.00
   -5    6   14      0.32      0.00
   -4    6   14     -0.22      0.00
   -3    6   14     -0.68      0.00
   -2    6   14      0.22      0.00
   -1    6   14     -0.22      0.00
    0    6   14     -0.59      0.00
    1    6   14      0.24      0.00
   -7    7   14      0.66      0.00
   -6    7   14      0.40      0.00
   -5    7   14      0.29      0.00
   -4    7   14      0.47      0.00
   -3    7   14      0.29      0.00
   -2    7   14      0.06      0.00
   -1    7   14     -0.19      0.00
    0    7   14     -0.62      0.00
    1    7   14     -0.60      0.00
   -7    8   14      0.35      0.00
   -6    8   14     -0.02      0.00
   -5    8   14      0.06      0.00
   -4    8   14      0.01      0.00
   -3    8   14     -0.01      0.00
   -2    8   14      0.61      0.00
   -1    8   14     -0.37      0.00
    0    8   14     -0.77      0.00
    1    8   14      0.25      0.00
   -6    9   14      0.55      0.00
   -5    9   14      0.31      0.00
   -4    9   14      0.12      0.00
   -3    9   14     -0.14      0.00
   -2    9   14      0.21      0.00
   -1    9   14      0.27      0.00
    0    9   14     -0.67      0.00
    1    9   14     -0.62      0.00
   -6   10   14     -0.04      0.00
   -5   10   14      0.10      0.00
   -4   10   14      0.27      0.00
   -3   10   14      0.24      0.00
   -2   10   14      0.52      0.00
   -1   10   14     -0.33      0.00
    0   10   14     -0.50      0.00
   -6   11   14      0.43      0.00
   -5   11   14      0.19      0.00
   -4   11   14     -0.15      0.00
   -3   11   14     -0.27      0.00
   -2   11   14      0.55      0.00
   -1   11   14      0.77      0.00
    0   11   14     -0.36      0.00
   -5   12   14      0.35      0.00
   -4   12   14      0.42      0.00
   -3   12   14      0.00      0.00
   -2   12   14      0.02      0.00
   -1   12   14     -0.19      0.00
   -4   13   14      0.02      0.00
   -3   13   14      0.00      0.00
   -2   13   14      0.66      0.00
   -4    0   15      0.10      0.00
   -3    0   15      0.70      0.00
   -2    0   15      0.33      0.00
   -4    1   15      0.15      0.00
   -3    1   15     -0.09      0.00
   -2    1   15     -0.26      0.00
   -4    2   15      0.15      0.00
   -3    2   15      0.88      0.00
   -2    2   15      0.36      0.00
   -3    3   15     -0.23      0.00
    1    0    0     18.68      0.00
    1    1    0      3.90      0.00
    0    2    0     30.81      0.00
    1    2    0     14.02      0.00
    0    6    0     -5.97      0.00
    0    8    0     -6.24      0.00
   14   11    0     -0.74      0.00
   13   17    0      0.19      0.00
   12   21    0      0.03      0.00
   11   24    0     -0.24      0.00
    6   33    0      0.08      0.00
    5   34    0     -0.11      0.00
    0   36    0      0.29      0.00
    1   36    0     -0.01      0.00
    0    0    1    -35.65      0.00
    1    0    1    -22.05      0.00
    0    1    1     -0.28      0.00
   14    9    1      0.69      0.00
  -14   12    1      0.45      0.00
   12   20    1      0.18      0.00
   11   23    1      1.00      0.00
   10   26    1      0.30      0.00
  -10   27    1     -0.63      0.00
    9   28    1      0.03      0.00
   -9   29    1      0.08      0.00
    8   30    1     -0.56      0.00
   -7   32    1     -0.31      0.00
   -6   33    1      0.18      0.00
   -5   34    1      0.30      0.00
   -1   36    1      0.23      0.00
    0   36    1     -0.28      0.00
    1   36    1     -0.28      0.00
  -15    0    2      0.67      0.00
  -15    1    2      0.00      0.00
  -15    2    2      0.43      0.00
   14    4    2     -0.14      0.00
   14    5    2      0.61      0.00
   14    6    2     -0.27      0.00
  -14   13    2      0.17      0.00
   13   14    2      0.02      0.00
  -13   18    2      0.41      0.00
   11   22    2      0.00      0.00
   10   25    2     -0.30      0.00
  -10   27    2      0.48      0.00
   -9   29    2      0.08      0.00
   -7   32    2      0.20      0.00
    6   32    2      0.41      0.00
   -6   33    2     -0.21      0.00
   -5   34    2     -0.33      0.00
    4   34    2     -0.26      0.00
  -15    0    3     -0.70      0.00
  -15    1    3     -0.04      0.00
  -15    2    3     -0.47      0.00
  -15    3    3     -0.14      0.00
   13   11    3      0.29      0.00
  -14   13    3     -0.11      0.00
   12   17    3     -0.78      0.00
  -13   18    3     -0.15      0.00
   11   21    3      0.66      0.00
   10   24    3     -0.12      0.00
  -10   27    3     -0.10      0.00
    7   30    3     -0.65      0.00
   -6   33    3      0.18      0.00
   -3   35    3     -0.01      0.00
  -15    0    4      0.57      0.00
  -15    1    4      0.06      0.00
  -15    2    4      0.38      0.00
   -2    2    4      8.28      0.00
  -15    3    4      0.16      0.00
   13    7    4      0.12      0.00
   13    8    4     -0.24      0.00
  -14   13    4      0.21      0.00
   12   15    4      0.59      0.00
  -13   18    4      0.03      0.00
   11   19    4     -0.06      0.00
    9   25    4     -0.71      0.00
    7   29    4     -0.22      0.00
   -8   30    4     -0.05      0.00
   -4   34    4     -0.20      0.00
    2   34    4      0.04      0.00
  -14   12    5      0.16      0.00
   12   12    5     -0.27      0.00
  -13   17    5      0.60      0.00
   11   17    5     -0.09      0.00
  -12   21    5     -0.48      0.00
  -10   26    5     -0.16      0.00
    8   26    5      0.08      0.00
   -9   28    5     -0.23      0.00
   -6   32    5      0.07      0.00
   -2   34    5     -0.10      0.00
   -1   34    5     -0.07      0.00
    0   34    5     -0.12      0.00
   12    6    6     -0.18      0.00
  -14   11    6     -0.24      0.00
   11   14    6     -0.16      0.00
  -13   16    6      0.07      0.00
  -12   20    6     -0.24      0.00
  -11   23    6      0.41      0.00
    8   24    6      0.06      0.00
   -9   27    6     -0.43      0.00
    6   28    6     -0.55      0.00
   -7   30    6      0.04      0.00
   -6   31    6     -0.07      0.00
   -5   32    6     -0.31      0.00
   -3   33    6      0.50      0.00
   -2   33    6     -0.11      0.00
   -1   33    6     -0.77      0.00
    0   33    6     -0.36      0.00
  -14    9    7      0.31      0.00
   11    9    7      0.54      0.00
  -13   15    7     -0.47      0.00
   10   15    7      0.12      0.00
  -12   19    7      0.20      0.00
    9   19    7      0.52      0.00
  -11   22    7     -0.04      0.00
    8   22    7     -0.59      0.00
  -10   24    7     -0.66      0.00
   -9   26    7     -0.52      0.00
    5   28    7      0.58      0.00
   -7   29    7     -0.08      0.00
    4   29    7      0.10      0.00
   -6   30    7      0.10      0.00
    3   30    7     -0.23      0.00
    2   31    7     -0.03      0.00
   -2   32    7      0.13      0.00
   -1   32    7      0.01      0.00
  -14    4    8      0.29      0.00
  -14    5    8      0.09      0.00
   10   11    8     -0.38      0.00
  -13   13    8      0.19      0.00
    9   16    8     -0.29      0.00
  -12   17    8      0.42      0.00
    7   22    8     -0.05      0.00
  -10   23    8      0.15      0.00
    6   24    8     -0.37      0.00
   -9   25    8     -0.17      0.00
    5   26    8     -0.52      0.00
   -4   30    8      0.37      0.00
    1   30    8      0.06      0.00
   10    0    9      0.09      0.00
   10    1    9      0.12      0.00
  -13   10    9      0.31      0.00
    9   11    9      0.27      0.00
  -12   15    9     -0.65      0.00
    8   16    9      0.49      0.00
    7   19    9      0.46      0.00
  -10   21    9      0.10      0.00
   -9   23    9      0.10      0.00
   -8   25    9      0.48      0.00
    4   25    9      0.30      0.00
   -7   26    9      0.19      0.00
   -5   28    9     -0.26      0.00
    1   28    9     -0.16      0.00
   -3   29    9      0.17      0.00
   -2   29    9     -0.03      0.00
   -1   29    9      0.14      0.00
    9    0   10     -0.29      0.00
    9    1   10     -0.09      0.00
  -13    3   10     -0.09      0.00
  -13    4   10     -0.48      0.00
  -13    5   10      0.00      0.00
    8   11   10      0.11      0.00
  -12   12   10     -0.38      0.00
  -11   16   10     -0.59      0.00
  -10   19   10     -0.24      0.00
   -9   21   10     -0.22      0.00
    5   21   10      0.11      0.00
   -8   23   10     -0.25      0.00
    3   24   10     -0.87      0.00
    2   25   10      0.84      0.00
   -5   26   10      0.20      0.00
    1   26   10      0.47      0.00
   -3   27   10     -0.01      0.00
   -2   27   10      0.27      0.00
   -1   27   10     -0.03      0.00
  -12    7   11      0.02      0.00
    7   10   11     -0.37      0.00
    6   14   11      0.02      0.00
  -10   16   11      0.44      0.00
    5   17   11     -0.05      0.00
    3   21   11      0.15      0.00
   -7   22   11     -0.22      0.00
   -6   23   11     -0.64      0.00
   -5   24   11     -0.25      0.00
    0   24   11     -0.52      0.00
   -2   25   11     -0.30      0.00
  -11    7   12      0.04      0.00
    6    7   12      0.06      0.00
  -10   12   12     -0.21      0.00
    5   12   12     -0.03      0.00
   -9   15   12     -0.17      0.00
    4   15   12     -0.09      0.00
   -7   19   12      0.33      0.00
    2   19   12     -0.20      0.00
   -5   21   12      0.41      0.00
    0   21   12      0.02      0.00
   -3   22   12     -0.20      0.00
   -2   22   12      0.55      0.00
  -10    4   13     -0.10      0.00
  -10    5   13      0.68      0.00
    4    8   13     -0.59      0.00
   -9   10   13      0.24      0.00
    3   12   13     -0.31      0.00
   -8   13   13      0.45      0.00
   -7   15   13      0.36      0.00
    1   16   13     -0.09      0.00
    0   17   13      0.03      0.00
   -4   18   13      0.40      0.00
   -1   18   13      0.02      0.00
   -8    5   14      0.39      0.00
   -8    6   14      0.41      0.00
    2    6   14      0.26      0.00
    2    7   14     -0.29      0.00
   -7    9   14      0.56      0.00
    1   10   14      0.32      0.00
    0   12   14     -0.04      0.00
   -5   13   14      0.12      0.00
   -1   13   14      0.68      0.00
   -3   14   14     -0.27      0.00
   -5    0   15     -0.01      0.00
   -1    0   15     -0.35      0.00
   -5    1   15      0.10      0.00
   -1    1   15     -0.13      0.00
   -5    2   15     -0.17      0.00
   -1    2   15     -0.37      0.00
   -5    3   15      0.12      0.00
   -4    3   15      0.22      0.00
   -2    3   15     -0.51      0.00
   -4    4   15      0.22      0.00
   -3    4   15      1.09      0.00
   -2    4   15      0.30      0.00
   -4    5   15     -0.02      0.00
   -3    5   15     -0.24      0.00
   -2    5   15     -0.28      0.00
    0    0    0      0.00      0.00
# SQUEEZE RESULTS (Version = 190619)
# Note: Data are Listed for all Voids in the P1 Unit Cell
# i.e. Centre of Gravity, Solvent Accessible Volume,
# Recovered number of Electrons in the Void and
# Details about the Squeezed Material
loop_
  _platon_squeeze_void_nr
  _platon_squeeze_void_average_x
  _platon_squeeze_void_average_y
  _platon_squeeze_void_average_z
  _platon_squeeze_void_volume
  _platon_squeeze_void_count_electrons
  _platon_squeeze_void_content
   1  0.000  0.000  0.500       167        17 ' '
   2  0.000  0.500  0.500       167        17 ' '
# Missing Reflections Below sin(th)/lambda = 0.25
loop_
  _platon_missing_refln_index_h
  _platon_missing_refln_index_k
  _platon_missing_refln_index_l
  _platon_missing_refln_theta
    1    0    0     1.808
    1    1    0     1.952
    0    2    0     1.470
    1    2    0     2.331
    0    6    0     4.415
    0    8    0     5.891
    0    0    1     1.796
    1    0    1     2.804
    0    1    1     1.940
   -2    2    4     7.498
_platon_squeeze_void_probe_radius                  1.20
_platon_squeeze_details
)
TITL an1eu            P 1 21/m 1   R = 0.03
CELL   11.5200   27.7000   11.6000     90.00    102.12     90.00
SPGR P21/m
# Solvent Accessible Volume =       333
# Electrons Found in S.A.V. =        33
# Note: Atoms in Void are Labelled as Cxxx and Qxxx for all Others
Q101 0.888 0.500 0.947 !       1.52 eA-3
Q102 0.252 0.028 0.379 !       1.42 eA-3
Q103 0.772 0.390 0.472 !       1.24 eA-3
C104 0.894 0.477 0.448 !       1.23 eA-3
C105 0.083 0.431 0.481 !       1.14 eA-3
Q106 0.317 0.629 0.267 !       1.04 eA-3
Q107 0.941 0.725 0.756 !       0.89 eA-3
Q108 0.140 0.249 0.281 !       0.88 eA-3
Q109 0.136 0.748 0.328 !       0.84 eA-3
Q110 0.051 0.247 0.422 !       0.83 eA-3
Q111 0.232 0.217 0.185 !       0.77 eA-3
Q112 0.993 0.752 0.406 !       0.75 eA-3
Q113 0.772 0.250 0.813 !       0.71 eA-3
Q114 0.925 0.322 0.581 !       0.70 eA-3
Q115 0.934 0.999 0.364 !       0.70 eA-3
Q116 0.969 0.504 0.334 !       0.70 eA-3
Q117 0.404 0.093 0.117 !       0.68 eA-3
Q118 0.781 0.374 0.072 !       0.67 eA-3
Q119 0.424 0.342 0.124 !       0.67 eA-3
Q120 0.106 0.818 0.184 !       0.67 eA-3
Q121 0.317 1.002 0.469 !       0.65 eA-3
Q122 0.036 0.928 0.069 !       0.65 eA-3
Q123 0.499 0.752 0.219 !       0.64 eA-3
Q124 0.333 0.806 0.206 !       0.64 eA-3
Q125 0.315 0.250 0.016 !       0.63 eA-3
Q126 0.161 0.251 0.125 !       0.62 eA-3
Q127 0.301 0.251 0.203 !       0.61 eA-3
Q128 0.213 0.941 0.285 !       0.61 eA-3
Q129 1.003 0.693 0.161 !       0.59 eA-3
Q130 0.909 0.750 0.875 !       0.58 eA-3
Q131 0.719 0.131 0.479 !       0.58 eA-3
Q132 0.251 0.864 0.330 !       0.54 eA-3
Q133 0.609 0.247 0.625 !       0.54 eA-3
Q134 0.970 0.155 0.892 !       0.53 eA-3
Q135 0.664 0.283 0.378 !       0.53 eA-3
Q136 0.098 0.750 0.422 !       0.53 eA-3
Q137 0.580 0.343 0.033 !       0.52 eA-3
Q138 0.736 0.392 0.669 !       0.52 eA-3
Q139 0.413 0.250 0.906 !       0.51 eA-3
Q140 0.552 0.135 0.003 !       0.50 eA-3
)
;
_shelx_fab_checksum              63874
_platon_squeeze_void_probe_radius 1.20
_olex2_submission_special_instructions 'No special instructions were received'
loop_
_space_group_symop_operation_xyz
'x, y, z'
'-x, y+1/2, -z'
'-x, -y, -z'
'x, -y-1/2, z'
loop_
_atom_site_label
_atom_site_type_symbol
_atom_site_fract_x
_atom_site_fract_y
_atom_site_fract_z
_atom_site_U_iso_or_equiv
_atom_site_adp_type
_atom_site_occupancy
_atom_site_site_symmetry_order
_atom_site_calc_flag
_atom_site_refinement_flags_posn
_atom_site_refinement_flags_adp
_atom_site_refinement_flags_occupancy
_atom_site_disorder_assembly
_atom_site_disorder_group
Eu1 Eu 0.22783(2) 0.250000 0.17536(2) 0.01507(6) Uani 1 2 d S T P . .
Eu2 Eu 0.40899(2) 0.37424(2) 0.12515(2) 0.01608(5) Uani 1 1 d . . . . .
O1 O 0.0198(3) 0.250000 0.0748(4) 0.0418(11) Uani 1 2 d S T P A .
O2 O 0.0585(4) 0.250000 0.2634(4) 0.0687(17) Uani 1 2 d S TU P A .
O3 O -0.5692(2) 0.21081(9) 0.1663(2) 0.0245(5) Uani 1 1 d . . . . .
O4 O 0.273(2) 0.3048(7) 0.334(3) 0.025(3) Uani 0.44(3) 1 d . U . A 1
O5 O 0.3867(2) 0.36845(9) 0.3219(2) 0.0286(6) Uani 1 1 d . U . . .
O6 O 0.3346(16) 0.3402(5) 0.9302(9) 0.028(3) Uani 0.44(3) 1 d . U . A 1
O7 O 0.362(2) 0.4184(6) 0.9265(16) 0.026(3) Uani 0.44(3) 1 d . U . A 1
O8 O 0.6254(3) 0.37048(14) 0.2276(3) 0.0523(10) Uani 1 1 d . . . . .
O9 O 0.5811(9) 0.3657(4) 0.0314(9) 0.047(3) Uani 0.477(4) 1 d D U . B 1
O10 O 1.2031(2) 0.33410(9) 0.1062(2) 0.0274(5) Uani 1 1 d . . . . .
O11 O 1.2121(2) 0.41299(10) 0.1148(3) 0.0342(6) Uani 1 1 d . . . . .
O12 O 0.2436(3) 0.250000 -0.0328(3) 0.0260(7) Uani 1 2 d S T P A .
H12 H 0.284497 0.275980 -0.040966 0.039 Uiso 1 1 d R . . . .
O13 O 0.0468(11) 0.250000 0.5048(10) 0.087(4) Uani 0.5 2 d S T P . .
H13A H 0.020969 0.277350 0.521257 0.131 Uiso 0.25 1 d R . . . .
H13B H 0.034229 0.250000 0.430657 0.131 Uiso 0.5 2 d RS T P . .
N1 N -0.3885(9) 0.3013(5) 0.6032(8) 0.072(2) Uani 0.5 1 d . U . A -1
N2 N 0.5397(3) 0.54078(12) 0.8002(3) 0.0316(7) Uani 1 1 d . . . . .
N3 N 1.0113(10) 0.3210(5) -0.3301(9) 0.0710(17) Uani 0.477(4) 1 d . U . B -1
H3 H 1.018918 0.315048 -0.400960 0.085 Uiso 0.477(4) 1 calc R . . B -1
N3A N 1.0020(9) 0.4691(4) -0.2838(8) 0.0710(16) Uani 0.523(4) 1 d . U . B -2
H3A H 1.016806 0.483396 -0.344992 0.085 Uiso 0.523(4) 1 calc R . . B -2
C1 C -0.0144(4) 0.250000 0.1684(5) 0.0278(11) Uani 1 2 d S T P . .
C2 C -0.1447(4) 0.250000 0.1677(5) 0.0295(10) Uani 1 2 d S TU P A .
C3 C -0.1820(6) 0.2673(3) 0.2689(7) 0.0321(15) Uani 0.5 1 d . U . A -1
H3B H -0.126154 0.278968 0.332586 0.039 Uiso 0.5 1 calc R . . A -1
C4 C -0.3017(6) 0.2669(3) 0.2740(7) 0.0285(14) Uani 0.5 1 d . U . A -1
C5 C -0.3838(4) 0.250000 0.1731(4) 0.0220(9) Uani 1 2 d S TU P . .
C6 C -0.3471(6) 0.2373(2) 0.0732(6) 0.0254(16) Uani 0.5 1 d . U . A -1
H6 H -0.402453 0.227932 0.006561 0.030 Uiso 0.5 1 calc R . . A -1
C7 C -0.2268(6) 0.2383(3) 0.0705(7) 0.030(2) Uani 0.5 1 d . U . A -1
H7 H -0.202804 0.230752 0.000955 0.036 Uiso 0.5 1 calc R . . A -1
C8 C -0.3361(8) 0.2799(5) 0.3869(8) 0.0539(18) Uani 0.5 1 d . U . A -1
C9 C -0.4052(7) 0.2555(11) 0.4373(7) 0.063(2) Uani 0.5 1 d . U . A -1
H9 H -0.443254 0.229010 0.396931 0.076 Uiso 0.5 1 calc R . . A -1
C10 C -0.4280(9) 0.2653(5) 0.5461(8) 0.067(2) Uani 0.5 1 d . U . A -1
H10 H -0.474981 0.243899 0.578060 0.080 Uiso 0.5 1 calc R . . A -1
C11 C -0.3221(11) 0.3322(6) 0.5544(10) 0.068(2) Uani 0.5 1 d . U . A -1
H11 H -0.294319 0.360474 0.594157 0.082 Uiso 0.5 1 calc R . . A -1
C12 C -0.2946(10) 0.3227(5) 0.4466(9) 0.0635(19) Uani 0.5 1 d . U . A -1
H12A H -0.249200 0.344421 0.413630 0.076 Uiso 0.5 1 calc R . . A -1
C13 C -0.5145(4) 0.250000 0.1690(4) 0.0182(9) Uani 1 2 d S T P A .
C14 C 0.3251(19) 0.3417(7) 0.3754(17) 0.014(3) Uani 0.44(3) 1 d . U . A 1
C15 C 0.328(2) 0.3533(6) 0.5038(16) 0.019(3) Uani 0.44(3) 1 d . U . A 1
C16 C 0.3945(3) 0.39191(14) 0.5588(3) 0.0272(7) Uani 1 1 d . U . . .
H16 H 0.436164 0.411211 0.515834 0.033 Uiso 0.44(3) 1 calc R . . A 1
H16A H 0.416889 0.415560 0.510851 0.033 Uiso 0.56(3) 1 calc R . . A 2
C17 C 0.3994(3) 0.40222(14) 0.6778(3) 0.0262(7) Uani 1 1 d . U . . .
C18 C 0.3401(17) 0.3731(5) 0.7441(13) 0.020(3) Uani 0.44(3) 1 d . U . A 1
C19 C 0.2796(14) 0.3328(5) 0.6886(9) 0.024(3) Uani 0.44(3) 1 d . U . A 1
H19 H 0.243002 0.311708 0.732241 0.029 Uiso 0.44(3) 1 calc R . . A 1
C20 C 0.2732(13) 0.3237(5) 0.5702(9) 0.022(2) Uani 0.44(3) 1 d . U . A 1
H20 H 0.230927 0.297033 0.535087 0.027 Uiso 0.44(3) 1 calc R . . A 1
C21 C 0.4513(3) 0.44945(13) 0.7224(3) 0.0257(7) Uani 1 1 d . . . . .
C22 C 0.5365(3) 0.45496(14) 0.8260(3) 0.0296(8) Uani 1 1 d . . . . .
H22 H 0.566090 0.428190 0.871123 0.036 Uiso 1 1 calc R . . . .
C23 C 0.5763(3) 0.50069(15) 0.8610(3) 0.0318(8) Uani 1 1 d . . . . .
H23 H 0.632173 0.503804 0.931239 0.038 Uiso 1 1 calc R . . . .
C24 C 0.4615(4) 0.53501(15) 0.6975(4) 0.0375(9) Uani 1 1 d . . . . .
H24 H 0.437155 0.562170 0.651625 0.045 Uiso 1 1 calc R . . . .
C25 C 0.4155(4) 0.49077(15) 0.6569(3) 0.0376(10) Uani 1 1 d . . . . .
H25 H 0.360653 0.488617 0.585801 0.045 Uiso 1 1 calc R . . . .
C26 C 0.3474(17) 0.3794(6) 0.8756(15) 0.023(3) Uani 0.44(3) 1 d . U . A 1
C27 C 0.6580(4) 0.37570(15) 0.1337(5) 0.0415(11) Uani 1 1 d D . . . .
C28 C 0.7872(4) 0.37856(16) 0.1298(4) 0.0387(9) Uani 1 1 d . U . . .
C29 C 0.8175(7) 0.3608(4) 0.0105(9) 0.0381(17) Uani 0.477(4) 1 d . U . B -1
H29 H 0.757966 0.351355 -0.052610 0.046 Uiso 0.477(4) 1 calc R . . B -1
C29A C 0.8227(6) 0.4015(3) 0.0454(7) 0.0323(16) Uani 0.523(4) 1 d . U . B -2
H29A H 0.766331 0.418410 -0.008716 0.039 Uiso 0.523(4) 1 calc R . . B -2
C30 C 0.9361(7) 0.3597(3) 0.0028(8) 0.0346(16) Uani 0.477(4) 1 d . U . B -1
C30A C 0.9393(6) 0.4021(3) 0.0312(7) 0.0299(14) Uani 0.523(4) 1 d . U . B -2
C31 C 1.0242(3) 0.37738(14) 0.1123(4) 0.0298(7) Uani 1 1 d . U . . .
C32 C 0.9866(8) 0.3890(4) 0.2029(9) 0.0377(19) Uani 0.477(4) 1 d . U . B -1
H32 H 1.041714 0.397879 0.270265 0.045 Uiso 0.477(4) 1 calc R . . B -1
C32A C 0.9943(7) 0.3622(3) 0.2208(7) 0.0293(15) Uani 0.523(4) 1 d . U . B -2
H32A H 1.053496 0.351401 0.282805 0.035 Uiso 0.523(4) 1 calc R . . B -2
C33 C 0.8653(8) 0.3894(4) 0.2074(10) 0.042(2) Uani 0.477(4) 1 d . U . B -1
H33 H 0.845729 0.398946 0.277748 0.050 Uiso 0.477(4) 1 calc R . . B -1
C33A C 0.8776(7) 0.3636(3) 0.2331(7) 0.0304(15) Uani 0.523(4) 1 d . U . B -2
H33A H 0.856878 0.355493 0.303968 0.036 Uiso 0.523(4) 1 calc R . . B -2
C34 C 0.9684(10) 0.3448(5) -0.1093(9) 0.0556(15) Uani 0.477(4) 1 d . U . B -1
C34A C 0.9658(9) 0.4253(4) -0.0770(8) 0.0528(14) Uani 0.523(4) 1 d . U . B -2
C35 C 0.9219(11) 0.3038(5) -0.1659(10) 0.0625(17) Uani 0.477(4) 1 d . U . B -1
H35 H 0.873487 0.283808 -0.132064 0.075 Uiso 0.477(4) 1 calc R . . B -1
C35A C 0.9126(9) 0.4725(4) -0.1113(9) 0.0604(16) Uani 0.523(4) 1 d . U . B -2
H35A H 0.870975 0.489793 -0.064511 0.073 Uiso 0.523(4) 1 calc R . . B -2
C36 C 0.9475(12) 0.2922(6) -0.2744(11) 0.0704(18) Uani 0.477(4) 1 d . U . B -1
H36 H 0.919054 0.263214 -0.309789 0.085 Uiso 0.477(4) 1 calc R . . B -1
C36A C 0.9290(10) 0.4890(5) -0.2175(10) 0.0656(18) Uani 0.523(4) 1 d . U . B -2
H36A H 0.886546 0.516393 -0.247725 0.079 Uiso 0.523(4) 1 calc R . . B -2
C37 C 1.0626(11) 0.3594(6) -0.2701(10) 0.0659(16) Uani 0.477(4) 1 d . U . B -1
H37 H 1.114694 0.378106 -0.302448 0.079 Uiso 0.477(4) 1 calc R . . B -1
C37A C 1.0502(10) 0.4251(5) -0.2471(10) 0.0664(16) Uani 0.523(4) 1 d . U . B -2
H37A H 1.094870 0.409399 -0.293884 0.080 Uiso 0.523(4) 1 calc R . . B -2
C38 C 1.0405(12) 0.3718(6) -0.1625(11) 0.0618(15) Uani 0.477(4) 1 d . U . B -1
H38 H 1.075765 0.399436 -0.124978 0.074 Uiso 0.477(4) 1 calc R . . B -1
C38A C 1.0362(10) 0.4029(5) -0.1451(9) 0.0612(15) Uani 0.523(4) 1 d . U . B -2
H38A H 1.072949 0.373536 -0.122008 0.073 Uiso 0.523(4) 1 calc R . . B -2
C39 C 1.1538(3) 0.37484(13) 0.1099(3) 0.0241(7) Uani 1 1 d . . . . .
O14 O 0.5936(12) 0.2952(5) -0.1780(9) 0.132(5) Uani 0.5 1 d . U . . .
H14A H 0.585195 0.313213 -0.238645 0.198 Uiso 0.5 1 d R . . . .
H14B H 0.595685 0.314773 -0.121075 0.198 Uiso 0.5 1 d R . . . .
O4A O 0.2990(19) 0.2979(6) 0.345(2) 0.028(3) Uani 0.56(3) 1 d . U . A 2
O6A O 0.3817(14) 0.3296(4) 0.9391(8) 0.033(2) Uani 0.56(3) 1 d . U . A 2
O7A O 0.3453(15) 0.4075(5) 0.9222(12) 0.0238(19) Uani 0.56(3) 1 d . U . A 2
C14A C 0.3502(15) 0.3365(6) 0.3823(14) 0.017(3) Uani 0.56(3) 1 d . U . A 2
C15A C 0.3566(16) 0.3469(6) 0.5099(13) 0.024(3) Uani 0.56(3) 1 d . U . A 2
C18A C 0.3680(15) 0.3633(5) 0.7490(10) 0.024(3) Uani 0.56(3) 1 d . U . A 2
C19A C 0.3280(18) 0.3193(5) 0.6958(8) 0.037(3) Uani 0.56(3) 1 d . U . A 2
H19A H 0.307302 0.294763 0.742483 0.044 Uiso 0.56(3) 1 calc R . . A 2
C20A C 0.3183(18) 0.3109(5) 0.5786(8) 0.038(3) Uani 0.56(3) 1 d . U . A 2
H20A H 0.286941 0.282051 0.544783 0.046 Uiso 0.56(3) 1 calc R . . A 2
C26A C 0.3623(15) 0.3680(5) 0.8763(11) 0.022(2) Uani 0.56(3) 1 d . U . A 2
O9A O 0.5834(7) 0.3891(3) 0.0500(8) 0.046(2) Uani 0.523(4) 1 d D . . B 2
O15 O 0.215(2) 0.4923(7) 0.843(2) 0.106(8) Uani 0.25 1 d . . . . .
H15A H 0.146715 0.482782 0.807067 0.160 Uiso 0.25 1 d R . . . .
H15B H 0.256585 0.466742 0.854047 0.160 Uiso 0.25 1 d R . . . .
O16 O 0.0444(19) 0.1681(11) 0.4521(17) 0.118(9) Uani 0.25 1 d . . . . .
H16B H -0.014286 0.170289 0.394032 0.177 Uiso 0.25 1 d R . . . .
H16C H 0.016474 0.176159 0.511542 0.177 Uiso 0.25 1 d R . . . .
loop_
_atom_site_aniso_label
_atom_site_aniso_U_11
_atom_site_aniso_U_22
_atom_site_aniso_U_33
_atom_site_aniso_U_23
_atom_site_aniso_U_13
_atom_site_aniso_U_12
Eu1 0.01156(10) 0.02136(11) 0.01303(10) 0.000 0.00424(7) 0.000
Eu2 0.01513(8) 0.02066(9) 0.01374(8) -0.00226(6) 0.00599(6) -0.00277(6)
O1 0.0163(18) 0.076(3) 0.034(2) 0.000 0.0070(16) 0.000
O2 0.019(2) 0.151(5) 0.037(2) 0.000 0.0100(18) 0.000
O3 0.0167(11) 0.0256(13) 0.0319(13) -0.0030(10) 0.0073(10) -0.0033(9)
O4 0.034(8) 0.025(4) 0.014(6) -0.002(4) 0.000(5) -0.005(5)
O5 0.0405(15) 0.0329(13) 0.0148(11) -0.0031(9) 0.0114(10) -0.0112(11)
O6 0.048(7) 0.021(4) 0.017(3) -0.001(3) 0.009(4) -0.012(4)
O7 0.038(7) 0.020(4) 0.019(3) -0.002(3) 0.008(3) -0.006(4)
O8 0.0217(14) 0.083(3) 0.055(2) -0.0313(18) 0.0142(14) -0.0097(15)
O9 0.025(3) 0.073(6) 0.049(4) 0.031(5) 0.019(3) 0.021(5)
O10 0.0186(12) 0.0284(13) 0.0348(14) 0.0071(11) 0.0048(10) 0.0038(10)
O11 0.0205(12) 0.0315(14) 0.0526(18) -0.0036(13) 0.0119(12) 0.0003(11)
O12 0.0305(19) 0.0277(18) 0.0210(17) 0.000 0.0079(14) 0.000
O13 0.067(8) 0.158(14) 0.038(6) 0.000 0.011(6) 0.000
N1 0.058(4) 0.114(5) 0.045(3) -0.008(3) 0.014(3) 0.002(3)
N2 0.0411(19) 0.0253(16) 0.0283(16) -0.0064(13) 0.0073(14) -0.0073(14)
N3 0.063(3) 0.103(4) 0.052(3) -0.001(3) 0.024(3) 0.001(3)
N3A 0.064(3) 0.098(4) 0.053(3) 0.018(3) 0.019(3) 0.009(3)
C1 0.014(2) 0.031(3) 0.040(3) 0.000 0.010(2) 0.000
C2 0.017(2) 0.034(3) 0.039(2) 0.000 0.0078(16) 0.000
C3 0.016(2) 0.043(4) 0.036(3) -0.003(2) 0.003(2) 0.000(2)
C4 0.015(2) 0.040(4) 0.029(2) 0.001(2) 0.0031(17) -0.0002(19)
C5 0.0121(18) 0.024(2) 0.030(2) 0.000 0.0067(15) 0.000
C6 0.016(2) 0.029(4) 0.033(2) -0.004(2) 0.0083(19) -0.0006(19)
C7 0.016(2) 0.042(6) 0.036(3) -0.004(3) 0.0110(17) 0.000(2)
C8 0.034(3) 0.097(5) 0.031(3) -0.006(3) 0.009(2) 0.007(3)
C9 0.048(3) 0.108(6) 0.038(3) -0.003(3) 0.017(2) 0.003(4)
C10 0.056(4) 0.111(5) 0.039(3) -0.004(3) 0.020(3) -0.001(3)
C11 0.059(4) 0.106(5) 0.042(3) -0.011(3) 0.016(3) 0.005(4)
C12 0.053(4) 0.100(5) 0.038(3) -0.011(3) 0.012(3) 0.004(3)
C13 0.016(2) 0.025(2) 0.014(2) 0.000 0.0044(16) 0.000
C14 0.013(6) 0.018(4) 0.010(3) 0.001(2) 0.001(4) 0.006(4)
C15 0.020(7) 0.026(4) 0.012(3) -0.002(3) 0.006(3) -0.005(5)
C16 0.0365(19) 0.0312(17) 0.0154(13) -0.0019(11) 0.0087(13) -0.0144(15)
C17 0.0338(18) 0.0303(17) 0.0150(13) -0.0027(11) 0.0066(12) -0.0124(14)
C18 0.023(6) 0.022(4) 0.016(3) -0.002(2) 0.006(3) -0.003(4)
C19 0.033(6) 0.026(4) 0.016(3) -0.005(3) 0.014(3) -0.010(4)
C20 0.030(6) 0.024(5) 0.016(3) -0.005(3) 0.012(3) -0.009(4)
C21 0.0337(19) 0.0275(18) 0.0175(15) -0.0038(13) 0.0091(14) -0.0090(15)
C22 0.033(2) 0.0279(18) 0.0261(18) -0.0004(15) 0.0030(15) -0.0033(15)
C23 0.0319(19) 0.033(2) 0.0266(18) -0.0052(16) -0.0015(15) -0.0044(16)
C24 0.053(3) 0.028(2) 0.0270(19) 0.0007(16) -0.0023(18) -0.0054(18)
C25 0.056(3) 0.031(2) 0.0213(17) -0.0013(15) -0.0037(17) -0.0096(18)
C26 0.033(7) 0.019(4) 0.017(3) -0.001(3) 0.009(3) -0.007(4)
C27 0.0213(19) 0.036(2) 0.070(3) 0.022(2) 0.017(2) 0.0031(16)
C28 0.0220(16) 0.043(2) 0.052(2) 0.0186(17) 0.0117(14) 0.0042(15)
C29 0.019(3) 0.050(5) 0.045(3) 0.014(3) 0.006(2) -0.003(3)
C29A 0.017(2) 0.041(4) 0.040(3) 0.010(3) 0.006(2) 0.004(2)
C30 0.021(3) 0.048(4) 0.036(2) 0.013(3) 0.0085(18) 0.000(2)
C30A 0.017(2) 0.039(4) 0.034(3) 0.004(2) 0.0060(18) 0.002(2)
C31 0.0164(14) 0.0344(19) 0.0408(17) 0.0099(14) 0.0108(12) 0.0045(13)
C32 0.021(3) 0.050(5) 0.044(3) -0.004(3) 0.011(2) -0.001(3)
C32A 0.020(2) 0.034(4) 0.035(3) 0.007(3) 0.008(2) 0.003(3)
C33 0.023(2) 0.055(6) 0.052(3) -0.001(4) 0.017(2) 0.006(3)
C33A 0.022(2) 0.036(4) 0.036(3) 0.005(3) 0.0118(18) 0.003(3)
C34 0.044(3) 0.087(3) 0.039(2) 0.004(2) 0.015(2) 0.002(3)
C34A 0.042(3) 0.080(3) 0.039(3) 0.016(2) 0.016(2) 0.001(3)
C35 0.057(4) 0.091(4) 0.044(3) 0.000(3) 0.018(3) -0.004(3)
C35A 0.052(3) 0.082(3) 0.048(3) 0.021(3) 0.012(3) 0.003(3)
C36 0.066(4) 0.102(4) 0.047(3) -0.005(3) 0.020(3) -0.005(3)
C36A 0.062(4) 0.087(4) 0.051(3) 0.023(3) 0.018(3) 0.007(3)
C37 0.057(3) 0.099(4) 0.046(3) 0.005(3) 0.021(3) 0.002(3)
C37A 0.060(3) 0.096(4) 0.048(3) 0.014(3) 0.022(3) 0.009(3)
C38 0.053(3) 0.092(4) 0.045(3) 0.008(3) 0.020(2) 0.000(3)
C38A 0.052(3) 0.092(4) 0.044(3) 0.011(3) 0.020(2) 0.007(3)
C39 0.0158(16) 0.0328(19) 0.0255(17) 0.0062(14) 0.0083(13) 0.0019(13)
O14 0.170(11) 0.164(11) 0.050(5) -0.013(6) -0.001(6) 0.076(9)
O4A 0.038(8) 0.032(4) 0.012(5) -0.001(4) 0.003(5) -0.012(5)
O6A 0.059(6) 0.025(3) 0.017(2) 0.000(2) 0.013(3) -0.003(3)
O7A 0.032(5) 0.023(4) 0.017(3) -0.005(3) 0.006(3) -0.005(4)
C14A 0.011(6) 0.027(3) 0.014(2) 0.0005(18) 0.001(3) 0.001(4)
C15A 0.026(8) 0.030(3) 0.015(2) -0.003(2) 0.005(4) -0.009(4)
C18A 0.032(7) 0.028(3) 0.014(2) -0.003(2) 0.009(3) -0.010(4)
C19A 0.060(8) 0.032(4) 0.022(3) -0.006(3) 0.018(4) -0.023(5)
C20A 0.064(9) 0.032(4) 0.022(3) -0.008(3) 0.017(4) -0.024(5)
C26A 0.031(5) 0.022(4) 0.015(2) -0.004(2) 0.008(2) -0.008(3)
O9A 0.018(3) 0.067(6) 0.057(5) 0.036(5) 0.018(3) 0.017(4)
O15 0.129(18) 0.080(13) 0.121(18) 0.048(13) 0.051(15) 0.071(13)
O16 0.083(14) 0.21(3) 0.052(11) 0.031(14) -0.007(10) 0.001(16)
loop_
_atom_type_symbol
_atom_type_description
_atom_type_scat_dispersion_real
_atom_type_scat_dispersion_imag
_atom_type_scat_source
C C 0.0033 0.0016 'International Tables Vol C Tables 4.2.6.8 and 6.1.1.4'
H H 0.0000 0.0000 'International Tables Vol C Tables 4.2.6.8 and 6.1.1.4'
Eu Eu -0.1578 3.6682 'International Tables Vol C Tables 4.2.6.8 and 6.1.1.4'
N N 0.0061 0.0033 'International Tables Vol C Tables 4.2.6.8 and 6.1.1.4'
O O 0.0106 0.0060 'International Tables Vol C Tables 4.2.6.8 and 6.1.1.4'
loop_
_geom_angle_atom_site_label_1
_geom_angle_atom_site_label_2
_geom_angle_atom_site_label_3
_geom_angle
_geom_angle_site_symmetry_1
_geom_angle_site_symmetry_3
_geom_angle_publ_flag
O1 Eu1 O3 141.59(9) . 4_665 ?
O1 Eu1 O3 141.59(9) . 1_655 ?
O1 Eu1 O10 78.99(6) . 4_465 ?
O1 Eu1 O10 78.99(6) . 1_455 ?
O1 Eu1 O12 78.35(13) . . ?
O1 Eu1 H12 87.83(12) . 4_565 ?
O1 Eu1 H12 87.8 . . ?
O1 Eu1 C13 150.69(13) . 1_655 ?
O2 Eu1 O1 52.69(15) . . ?
O2 Eu1 O3 147.22(9) . 4_665 ?
O2 Eu1 O3 147.22(9) . 1_655 ?
O2 Eu1 O10 95.21(7) . 4_465 ?
O2 Eu1 O10 95.21(7) . 1_455 ?
O2 Eu1 O12 131.04(15) . . ?
O2 Eu1 H12 138.20(13) . 4_565 ?
O2 Eu1 H12 138.2 . . ?
O2 Eu1 C13 156.62(14) . 1_655 ?
O3 Eu1 O3 49.37(11) 4_665 1_655 ?
O3 Eu1 H12 72.1 1_655 . ?
O3 Eu1 H12 58.57(9) 1_655 4_565 ?
O3 Eu1 H12 58.6 4_665 . ?
O3 Eu1 H12 72.07(9) 4_665 4_565 ?
O3 Eu1 C13 24.71(5) 4_665 1_655 ?
O3 Eu1 C13 24.71(5) 1_655 1_655 ?
O4 Eu1 O1 114.0(6) . . ?
O4 Eu1 O1 114.0(6) 4_565 . ?
O4 Eu1 O2 74.4(8) 4_565 . ?
O4 Eu1 O2 74.4(8) . . ?
O4 Eu1 O3 104.4(6) 4_565 4_665 ?
O4 Eu1 O3 104.4(6) . 1_655 ?
O4 Eu1 O3 73.1(8) 4_565 1_655 ?
O4 Eu1 O3 73.1(8) . 4_665 ?
O4 Eu1 O4 80.2(13) 4_565 . ?
O4 Eu1 O10 68.6(7) 4_565 4_465 ?
O4 Eu1 O10 148.8(7) . 4_465 ?
O4 Eu1 O10 148.8(7) 4_565 1_455 ?
O4 Eu1 O10 68.6(7) . 1_455 ?
O4 Eu1 O12 135.7(8) . . ?
O4 Eu1 O12 135.7(8) 4_565 . ?
O4 Eu1 H12 118.4(8) 4_565 4_565 ?
O4 Eu1 H12 143.7(8) . 4_565 ?
O4 Eu1 H12 143.7 4_565 . ?
O4 Eu1 H12 118.4 . . ?
O4 Eu1 C13 87.8(7) 4_565 1_655 ?
O4 Eu1 C13 87.8(7) . 1_655 ?
O4 Eu1 O4A 74.5(4) . 4_565 ?
O4 Eu1 O4A 8.7(9) 4_565 4_565 ?
O10 Eu1 O3 115.19(8) 1_455 1_655 ?
O10 Eu1 O3 68.59(8) 1_455 4_665 ?
O10 Eu1 O3 68.59(8) 4_465 1_655 ?
O10 Eu1 O3 115.19(8) 4_465 4_665 ?
O10 Eu1 O10 142.39(13) 4_465 1_455 ?
O10 Eu1 H12 60.00(7) 4_465 4_565 ?
O10 Eu1 H12 60.0 1_455 . ?
O10 Eu1 H12 89.1 4_465 . ?
O10 Eu1 H12 89.08(7) 1_455 4_565 ?
O10 Eu1 C13 92.26(6) 1_455 1_655 ?
O10 Eu1 C13 92.26(6) 4_465 1_655 ?
O12 Eu1 O3 73.01(10) . 4_665 ?
O12 Eu1 O3 73.01(10) . 1_655 ?
O12 Eu1 O10 72.97(6) . 4_465 ?
O12 Eu1 O10 72.97(6) . 1_455 ?
O12 Eu1 H12 17.5 . . ?
O12 Eu1 H12 17.49(2) . 4_565 ?
O12 Eu1 C13 72.34(12) . 1_655 ?
H12 Eu1 H12 29.6 . 4_565 ?
C13 Eu1 H12 63.90(11) 1_655 4_565 ?
C13 Eu1 H12 63.9 1_655 . ?
O4A Eu1 O1 122.1(6) . . ?
O4A Eu1 O1 122.1(6) 4_565 . ?
O4A Eu1 O2 79.4(6) 4_565 . ?
O4A Eu1 O2 79.4(6) . . ?
O4A Eu1 O12 136.9(6) . . ?
O4A Eu1 O12 136.9(6) 4_565 . ?
O4A Eu1 H12 141.1 4_565 . ?
O4A Eu1 H12 119.5 . . ?
O4A Eu1 O4A 68.0(10) 4_565 . ?
O3 Eu2 O6 78.8(4) 4_665 1_554 ?
O3 Eu2 O7 129.7(4) 4_665 1_554 ?
O3 Eu2 O8 79.34(11) 4_665 . ?
O3 Eu2 O9 86.2(2) 4_665 . ?
O3 Eu2 O10 69.61(8) 4_665 1_455 ?
O3 Eu2 O11 119.19(8) 4_665 1_455 ?
O3 Eu2 N2 146.54(10) 4_665 3_666 ?
O3 Eu2 O6A 70.7(3) 4_665 1_554 ?
O3 Eu2 O7A 123.2(3) 4_665 1_554 ?
O5 Eu2 O3 76.65(9) . 4_665 ?
O5 Eu2 O6 141.7(3) . 1_554 ?
O5 Eu2 O7 149.2(5) . 1_554 ?
O5 Eu2 O8 80.76(11) . . ?
O5 Eu2 O9 133.0(2) . . ?
O5 Eu2 O10 76.62(9) . 1_455 ?
O5 Eu2 O11 78.02(10) . 1_455 ?
O5 Eu2 N2 78.30(10) . 3_666 ?
O5 Eu2 O6A 143.1(2) . 1_554 ?
O5 Eu2 O7A 150.5(4) . 1_554 ?
O5 Eu2 O9A 129.5(2) . . ?
O6 Eu2 O7 51.9(3) 1_554 1_554 ?
O6 Eu2 O8 122.7(5) 1_554 . ?
O6 Eu2 O9 73.2(5) 1_554 . ?
O6 Eu2 O10 67.5(3) 1_554 1_455 ?
O6 Eu2 O11 89.0(5) 1_554 1_455 ?
O6 Eu2 N2 133.5(3) 1_554 3_666 ?
O6 Eu2 O6A 14.2(2) 1_554 1_554 ?
O6 Eu2 O7A 44.7(3) 1_554 1_554 ?
O7 Eu2 O10 96.5(5) 1_554 1_455 ?
O8 Eu2 O7 116.2(5) . 1_554 ?
O8 Eu2 O10 144.92(11) . 1_455 ?
O8 Eu2 N2 75.02(12) . 3_666 ?
O9 Eu2 O7 71.6(6) . 1_554 ?
O9 Eu2 O8 53.0(2) . . ?
O9 Eu2 O10 136.8(2) . 1_455 ?
O9 Eu2 O11 146.0(2) . 1_455 ?
O9 Eu2 N2 95.1(3) . 3_666 ?
O9 Eu2 O7A 73.9(4) . 1_554 ?
O11 Eu2 O7 74.6(5) 1_455 1_554 ?
O11 Eu2 O8 147.03(10) 1_455 . ?
O11 Eu2 O10 51.05(9) 1_455 1_455 ?
O11 Eu2 N2 76.17(10) 1_455 3_666 ?
O11 Eu2 O7A 73.2(4) 1_455 1_554 ?
N2 Eu2 O7 81.6(4) 3_666 1_554 ?
N2 Eu2 O10 124.90(10) 3_666 1_455 ?
O6A Eu2 O8 108.9(4) 1_554 . ?
O6A Eu2 O7A 52.8(3) 1_554 1_554 ?
O7A Eu2 O8 121.7(4) 1_554 . ?
O9A Eu2 O8 49.9(2) . . ?
O9A Eu2 O7A 72.2(4) . 1_554 ?
C1 O1 Eu1 92.4(3) . . ?
C1 O1 Eu1 92.4(3) 4_565 . ?
C1 O1 C1 0.0(4) 4_565 . ?
C1 O2 Eu1 94.7(3) . . ?
C1 O2 Eu1 94.7(3) 4_565 . ?
C1 O2 C1 0.0(4) 4_565 . ?
Eu1 O3 Eu1 0.000(9) 4_465 1_455 ?
Eu2 O3 Eu1 111.07(9) 4_465 4_465 ?
Eu2 O3 Eu1 111.07(9) 4_465 1_455 ?
C13 O3 Eu1 95.1(2) . 4_465 ?
C13 O3 Eu1 95.1(2) . 1_455 ?
C13 O3 Eu2 152.2(2) . 4_465 ?
C14 O4 Eu1 148(3) . . ?
C14 O5 Eu2 134.1(10) . . ?
C14A O5 Eu2 134.9(8) . . ?
C26 O6 Eu2 94.3(9) . 1_556 ?
C26 O7 Eu2 89.7(9) . 1_556 ?
C27 O8 Eu2 91.9(3) . . ?
C27 O9 Eu2 91.9(5) . . ?
Eu1 O10 Eu2 109.75(9) 1_655 1_655 ?
C39 O10 Eu1 148.5(2) . 1_655 ?
C39 O10 Eu2 91.4(2) . 1_655 ?
C39 O11 Eu2 96.5(2) . 1_655 ?
Eu1 O12 H12 104.99(5) . 4_565 ?
Eu1 O12 H12 105.0 . . ?
H12 O12 H12 110.5 . 4_565 ?
H13A O13 H13A 126.1 . 4_565 ?
H13A O13 H13B 103.7 . . ?
H13B O13 H13A 103.7 . 4_565 ?
C10 N1 C11 117.8(10) . . ?
C23 N2 Eu2 124.5(2) . 3_666 ?
C23 N2 C24 116.6(3) . . ?
C24 N2 Eu2 118.6(3) . 3_666 ?
C36 N3 H3 121.7 . . ?
C37 N3 H3 121.7 . . ?
C37 N3 C36 116.6(11) . . ?
C36A N3A H3A 121.9 . . ?
C37A N3A H3A 121.9 . . ?
C37A N3A C36A 116.1(10) . . ?
O1 C1 O2 120.2(5) . . ?
O1 C1 C2 120.0(5) . . ?
O2 C1 C2 119.8(5) . . ?
C1 C1 O1 0(10) 4_565 . ?
C1 C1 O2 0(10) 4_565 . ?
C1 C1 C2 0(10) 4_565 . ?
C1 C2 C1 0.0(4) 4_565 . ?
C3 C2 C1 118.3(5) . 4_565 ?
C3 C2 C1 118.3(5) . . ?
C7 C2 C1 122.0(5) . . ?
C7 C2 C1 122.0(5) . 4_565 ?
C7 C2 C3 119.5(5) . . ?
C2 C3 H3B 119.7 . . ?
C4 C3 C2 120.5(7) . . ?
C4 C3 H3B 119.7 . . ?
C3 C4 C5 117.5(6) . . ?
C3 C4 C8 118.9(7) . . ?
C5 C4 C8 123.3(6) . . ?
C4 C5 C13 121.2(5) . . ?
C6 C5 C4 120.9(5) . . ?
C6 C5 C13 117.6(5) . . ?
C5 C6 H6 119.9 . . ?
C5 C6 C7 120.2(6) . . ?
C7 C6 H6 119.9 . . ?
C2 C7 C6 120.8(6) . . ?
C2 C7 H7 119.6 . . ?
C6 C7 H7 119.6 . . ?
C9 C8 C4 125.7(13) . . ?
C9 C8 C12 113.6(13) . . ?
C12 C8 C4 120.7(9) . . ?
C8 C9 H9 117.4 . . ?
C8 C9 C10 125(2) . . ?
C10 C9 H9 117.4 . . ?
N1 C10 C9 122.3(15) . . ?
N1 C10 H10 118.8 . . ?
C9 C10 H10 118.8 . . ?
N1 C11 H11 119.4 . . ?
N1 C11 C12 121.2(13) . . ?
C12 C11 H11 119.4 . . ?
C8 C12 H12A 120.4 . . ?
C11 C12 C8 119.3(12) . . ?
C11 C12 H12A 120.4 . . ?
O3 C13 O3 120.2(4) . 4_565 ?
O3 C13 C5 119.9(2) 4_565 . ?
O3 C13 C5 119.9(2) . . ?
O4 C14 O5 125(2) . . ?
O4 C14 C15 118(2) . . ?
O5 C14 C15 116.9(16) . . ?
C16 C15 C14 120.9(15) . . ?
C20 C15 C14 120.3(12) . . ?
C20 C15 C16 118.6(13) . . ?
C15 C16 H16 119.5 . . ?
C15 C16 C17 121.0(8) . . ?
C17 C16 H16 119.5 . . ?
C17 C16 H16A 119.1 . . ?
C15A C16 H16A 119.1 . . ?
C15A C16 C17 121.7(7) . . ?
C16 C17 C21 116.9(3) . . ?
C16 C17 C18A 116.6(6) . . ?
C18 C17 C16 120.3(7) . . ?
C18 C17 C21 121.9(7) . . ?
C18A C17 C21 126.0(5) . . ?
C17 C18 C19 117.7(11) . . ?
C17 C18 C26 123.9(13) . . ?
C19 C18 C26 118.1(11) . . ?
C18 C19 H19 119.4 . . ?
C20 C19 C18 121.3(10) . . ?
C20 C19 H19 119.4 . . ?
C15 C20 C19 121.0(11) . . ?
C15 C20 H20 119.5 . . ?
C19 C20 H20 119.5 . . ?
C22 C21 C17 123.8(3) . . ?
C25 C21 C17 119.0(3) . . ?
C25 C21 C22 117.2(3) . . ?
C21 C22 H22 120.5 . . ?
C23 C22 C21 119.1(4) . . ?
C23 C22 H22 120.5 . . ?
N2 C23 C22 124.0(3) . . ?
N2 C23 H23 118.0 . . ?
C22 C23 H23 118.0 . . ?
N2 C24 H24 118.4 . . ?
N2 C24 C25 123.1(4) . . ?
C25 C24 H24 118.4 . . ?
C21 C25 H25 120.1 . . ?
C24 C25 C21 119.9(4) . . ?
C24 C25 H25 120.1 . . ?
O6 C26 C18 114.2(12) . . ?
O7 C26 O6 121.9(13) . . ?
O7 C26 C18 123.9(11) . . ?
O8 C27 O9 119.1(6) . . ?
O8 C27 C28 121.4(4) . . ?
O9 C27 C28 117.1(6) . . ?
O9A C27 O8 116.6(6) . . ?
O9A C27 C28 120.0(6) . . ?
C27 C28 C29 114.5(5) . . ?
C29A C28 C27 121.2(5) . . ?
C29A C28 C33A 118.0(5) . . ?
C33 C28 C27 126.7(6) . . ?
C33 C28 C29 118.6(6) . . ?
C33A C28 C27 119.7(5) . . ?
C28 C29 H29 121.1 . . ?
C30 C29 C28 117.8(8) . . ?
C30 C29 H29 121.1 . . ?
C28 C29A H29A 118.0 . . ?
C28 C29A C30A 124.1(7) . . ?
C30A C29A H29A 118.0 . . ?
C29 C30 C31 115.4(8) . . ?
C29 C30 C34 119.6(9) . . ?
C34 C30 C31 124.9(7) . . ?
C29A C30A C31 118.4(6) . . ?
C29A C30A C34A 118.6(7) . . ?
C31 C30A C34A 122.8(6) . . ?
C30A C31 C32A 118.3(5) . . ?
C30A C31 C39 125.0(4) . . ?
C32 C31 C30 119.4(6) . . ?
C32 C31 C39 123.0(5) . . ?
C32A C31 C39 115.1(4) . . ?
C39 C31 C30 117.3(4) . . ?
C31 C32 H32 118.3 . . ?
C31 C32 C33 123.3(9) . . ?
C33 C32 H32 118.3 . . ?
C31 C32A H32A 120.0 . . ?
C33A C32A C31 119.9(7) . . ?
C33A C32A H32A 120.0 . . ?
C28 C33 C32 125.3(10) . . ?
C28 C33 H33 117.3 . . ?
C32 C33 H33 117.3 . . ?
C28 C33A H33A 121.3 . . ?
C32A C33A C28 117.4(7) . . ?
C32A C33A H33A 121.3 . . ?
C35 C34 C30 120.5(10) . . ?
C38 C34 C30 122.3(12) . . ?
C38 C34 C35 117.1(11) . . ?
C35A C34A C30A 117.7(9) . . ?
C38A C34A C30A 122.0(10) . . ?
C38A C34A C35A 120.3(9) . . ?
C34 C35 H35 120.2 . . ?
C34 C35 C36 119.5(12) . . ?
C36 C35 H35 120.2 . . ?
C34A C35A H35A 122.7 . . ?
C36A C35A C34A 114.6(11) . . ?
C36A C35A H35A 122.7 . . ?
N3 C36 C35 122.8(14) . . ?
N3 C36 H36 118.6 . . ?
C35 C36 H36 118.6 . . ?
N3A C36A H36A 116.9 . . ?
C35A C36A N3A 126.1(12) . . ?
C35A C36A H36A 116.9 . . ?
N3 C37 H37 119.1 . . ?
N3 C37 C38 121.9(13) . . ?
C38 C37 H37 119.1 . . ?
N3A C37A H37A 118.2 . . ?
N3A C37A C38A 123.6(11) . . ?
C38A C37A H37A 118.2 . . ?
C34 C38 C37 121.6(14) . . ?
C34 C38 H38 119.2 . . ?
C37 C38 H38 119.2 . . ?
C34A C38A H38A 120.7 . . ?
C37A C38A C34A 118.5(12) . . ?
C37A C38A H38A 120.7 . . ?
O10 C39 Eu2 62.75(18) . 1_655 ?
O10 C39 C31 119.8(3) . . ?
O11 C39 Eu2 58.27(18) . 1_655 ?
O11 C39 O10 121.0(3) . . ?
O11 C39 C31 119.2(3) . . ?
C31 C39 Eu2 175.0(3) . 1_655 ?
H14A O14 H14B 104.4 . . ?
C14A O4A Eu1 145.0(19) . . ?
O5 C14A O4A 126.7(18) . . ?
O5 C14A C15A 117.7(14) . . ?
O4A C14A C15A 115.3(16) . . ?
C16 C15A C14A 121.2(13) . . ?
C16 C15A C20A 120.7(11) . . ?
C20A C15A C14A 118.0(10) . . ?
C17 C18A C26A 124.5(9) . . ?
C19A C18A C17 119.7(9) . . ?
C19A C18A C26A 115.5(8) . . ?
C18A C19A H19A 118.7 . . ?
C20A C19A C18A 122.6(9) . . ?
C20A C19A H19A 118.7 . . ?
C15A C20A H20A 120.8 . . ?
C19A C20A C15A 118.5(10) . . ?
C19A C20A H20A 120.8 . . ?
O6A C26A C18A 116.8(8) . . ?
O7A C26A O6A 120.5(9) . . ?
O7A C26A C18A 122.6(9) . . ?
C27 O9A Eu2 99.5(6) . . ?
H15A O15 H15B 104.5 . . ?
H16B O16 H16C 104.5 . . ?
loop_
_geom_bond_atom_site_label_1
_geom_bond_atom_site_label_2
_geom_bond_distance
_geom_bond_site_symmetry_2
_geom_bond_publ_flag
Eu1 O1 2.435(4) . ?
Eu1 O2 2.384(4) . ?
Eu1 O3 2.600(2) 4_665 ?
Eu1 O3 2.600(2) 1_655 ?
Eu1 O4 2.35(3) 4_565 ?
Eu1 O4 2.35(3) . ?
Eu1 O10 2.461(3) 1_455 ?
Eu1 O10 2.461(3) 4_465 ?
Eu1 O12 2.459(3) . ?
Eu1 H12 2.816(3) 4_565 ?
Eu1 H12 2.8158 . ?
Eu1 C13 2.985(5) 1_655 ?
Eu1 O4A 2.37(2) . ?
Eu1 O4A 2.37(2) 4_565 ?
Eu2 O3 2.406(2) 4_665 ?
Eu2 O5 2.356(2) . ?
Eu2 O6 2.434(10) 1_554 ?
Eu2 O7 2.564(18) 1_554 ?
Eu2 O8 2.529(3) . ?
Eu2 O9 2.464(11) . ?
Eu2 O10 2.586(3) 1_455 ?
Eu2 O11 2.490(3) 1_455 ?
Eu2 N2 2.535(3) 3_666 ?
Eu2 O6A 2.449(8) 1_554 ?
Eu2 O7A 2.491(14) 1_554 ?
Eu2 O9A 2.388(9) . ?
O1 C1 1.230(7) . ?
O1 C1 1.230(7) 4_565 ?
O2 C1 1.238(7) 4_565 ?
O2 C1 1.238(7) . ?
O3 C13 1.253(3) . ?
O4 C14 1.232(15) . ?
O5 C14 1.274(15) . ?
O5 C14A 1.253(12) . ?
O6 C26 1.282(13) . ?
O7 C26 1.224(14) . ?
O8 C27 1.232(6) . ?
O9 C27 1.353(11) . ?
O10 C39 1.269(4) . ?
O11 C39 1.247(4) . ?
O12 H12 0.8759 . ?
O12 H12 0.8759 4_565 ?
O13 H13A 0.8501 . ?
O13 H13A 0.8501 4_565 ?
O13 H13B 0.8418 . ?
N1 C10 1.232(16) . ?
N1 C11 1.350(17) . ?
N2 C23 1.336(5) . ?
N2 C24 1.344(5) . ?
N3 H3 0.8600 . ?
N3 C36 1.339(17) . ?
N3 C37 1.339(18) . ?
N3A H3A 0.8600 . ?
N3A C36A 1.370(15) . ?
N3A C37A 1.369(16) . ?
C1 C1 0.000(13) 4_565 ?
C1 C2 1.500(7) . ?
C2 C3 1.417(9) . ?
C2 C7 1.350(9) . ?
C3 H3B 0.9300 . ?
C3 C4 1.392(9) . ?
C4 C5 1.421(8) . ?
C4 C8 1.489(11) . ?
C5 C6 1.361(8) . ?
C5 C13 1.496(6) . ?
C6 H6 0.9300 . ?
C6 C7 1.393(8) . ?
C7 H7 0.9300 . ?
C8 C9 1.28(2) . ?
C8 C12 1.407(17) . ?
C9 H9 0.9300 . ?
C9 C10 1.368(13) . ?
C10 H10 0.9300 . ?
C11 H11 0.9300 . ?
C11 C12 1.378(14) . ?
C12 H12A 0.9300 . ?
C14 C15 1.517(17) . ?
C15 C16 1.387(16) . ?
C15 C20 1.369(17) . ?
C16 H16 0.9300 . ?
C16 H16A 0.9300 . ?
C16 C17 1.400(5) . ?
C16 C15A 1.400(13) . ?
C17 C18 1.389(14) . ?
C17 C21 1.485(5) . ?
C17 C18A 1.448(11) . ?
C18 C19 1.399(15) . ?
C18 C26 1.521(17) . ?
C19 H19 0.9300 . ?
C19 C20 1.384(11) . ?
C20 H20 0.9300 . ?
C21 C22 1.392(5) . ?
C21 C25 1.388(5) . ?
C22 H22 0.9300 . ?
C22 C23 1.379(5) . ?
C23 H23 0.9300 . ?
C24 H24 0.9300 . ?
C24 C25 1.378(6) . ?
C25 H25 0.9300 . ?
C27 C28 1.501(5) . ?
C27 O9A 1.212(9) . ?
C28 C29 1.575(11) . ?
C28 C29A 1.302(9) . ?
C28 C33 1.170(11) . ?
C28 C33A 1.472(9) . ?
C29 H29 0.9300 . ?
C29 C30 1.388(11) . ?
C29A H29A 0.9300 . ?
C29A C30A 1.388(9) . ?
C30 C31 1.530(10) . ?
C30 C34 1.484(14) . ?
C30A C31 1.387(8) . ?
C30A C34A 1.497(11) . ?
C31 C32 1.260(10) . ?
C31 C32A 1.436(9) . ?
C31 C39 1.501(5) . ?
C32 H32 0.9300 . ?
C32 C33 1.409(12) . ?
C32A H32A 0.9300 . ?
C32A C33A 1.383(10) . ?
C33 H33 0.9300 . ?
C33A H33A 0.9300 . ?
C34 C35 1.363(18) . ?
C34 C38 1.359(17) . ?
C34A C35A 1.462(15) . ?
C34A C38A 1.392(15) . ?
C35 H35 0.9300 . ?
C35 C36 1.389(16) . ?
C35A H35A 0.9300 . ?
C35A C36A 1.364(14) . ?
C36 H36 0.9300 . ?
C36A H36A 0.9300 . ?
C37 H37 0.9300 . ?
C37 C38 1.369(17) . ?
C37A H37A 0.9300 . ?
C37A C38A 1.373(15) . ?
C38 H38 0.9300 . ?
C38A H38A 0.9300 . ?
O14 H14A 0.8507 . ?
O14 H14B 0.8503 . ?
O4A C14A 1.254(12) . ?
O6A C26A 1.282(11) . ?
O7A C26A 1.250(11) . ?
C14A C15A 1.495(14) . ?
C15A C20A 1.405(14) . ?
C18A C19A 1.401(12) . ?
C18A C26A 1.497(12) . ?
C19A H19A 0.9300 . ?
C19A C20A 1.360(11) . ?
C20A H20A 0.9300 . ?
O15 H15A 0.8501 . ?
O15 H15B 0.8500 . ?
O16 H16B 0.8500 . ?
O16 H16C 0.8500 . ?
loop_
_geom_hbond_atom_site_label_D
_geom_hbond_atom_site_label_H
_geom_hbond_atom_site_label_A
_geom_hbond_distance_DH
_geom_hbond_distance_HA
_geom_hbond_distance_DA
_geom_hbond_angle_DHA
_geom_hbond_site_symmetry_A
_geom_hbond_publ_flag
O12 H12 O6 0.88 1.92 2.777(10) 165.4 1_554 yes
O12 H12 O6A 0.88 1.90 2.778(9) 176.1 1_554 yes
O13 H13A O16 0.85 1.76 2.35(3) 124.7 4_565 yes
O13 H13B O2 0.84 2.02 2.831(12) 162.5 . yes
C22 H22 O9A 0.93 2.31 3.128(9) 146.2 1_556 yes
O14 H14B O9 0.85 2.30 3.143(15) 174.1 . yes
O15 H15B O7 0.85 1.89 2.71(3) 161.9 . yes
O15 H15B O7A 0.85 2.01 2.83(2) 164.9 . yes
loop_
_geom_torsion_atom_site_label_1
_geom_torsion_atom_site_label_2
_geom_torsion_atom_site_label_3
_geom_torsion_atom_site_label_4
_geom_torsion
_geom_torsion_site_symmetry_1
_geom_torsion_site_symmetry_2
_geom_torsion_site_symmetry_3
_geom_torsion_site_symmetry_4
_geom_torsion_publ_flag
Eu1 O1 C1 O2 0.000(1) . . . . ?
Eu1 O1 C1 C1 0(100) . . . 4_565 ?
Eu1 O1 C1 C2 180.000(0) . . . . ?
Eu1 O2 C1 O1 0.000(0) . . . . ?
Eu1 O2 C1 C1 0.00(13) . . . 4_565 ?
Eu1 O2 C1 C2 180.000(0) . . . . ?
Eu1 O3 C13 O3 -4.8(5) 4_465 . . 4_565 ?
Eu1 O3 C13 O3 -4.8(5) 1_455 . . 4_565 ?
Eu1 O3 C13 C5 176.3(4) 1_455 . . . ?
Eu1 O3 C13 C5 176.3(4) 4_465 . . . ?
Eu1 O4 C14 O5 2(5) . . . . ?
Eu1 O4 C14 C15 -171(2) . . . . ?
Eu1 O10 C39 Eu2 133.4(4) 1_655 . . 1_655 ?
Eu1 O10 C39 O11 136.4(4) 1_655 . . . ?
Eu1 O10 C39 C31 -41.6(6) 1_655 . . . ?
Eu1 O4A C14A O5 0(4) . . . . ?
Eu1 O4A C14A C15A 173.7(19) . . . . ?
Eu2 O3 C13 O3 155.9(2) 4_465 . . 4_565 ?
Eu2 O3 C13 C5 -23.0(8) 4_465 . . . ?
Eu2 O5 C14 O4 13(3) . . . . ?
Eu2 O5 C14 C15 -174.2(10) . . . . ?
Eu2 O5 C14A O4A -10(3) . . . . ?
Eu2 O5 C14A C15A 176.9(9) . . . . ?
Eu2 O6 C26 O7 -15.5(17) 1_556 . . . ?
Eu2 O6 C26 C18 165.5(13) 1_556 . . . ?
Eu2 O7 C26 O6 14.7(16) 1_556 . . . ?
Eu2 O7 C26 C18 -166.4(15) 1_556 . . . ?
Eu2 O8 C27 O9 -20.1(6) . . . . ?
Eu2 O8 C27 C28 178.0(4) . . . . ?
Eu2 O8 C27 O9A 14.0(7) . . . . ?
Eu2 O9 C27 O8 20.7(6) . . . . ?
Eu2 O9 C27 C28 -176.6(3) . . . . ?
Eu2 O10 C39 O11 3.0(4) 1_655 . . . ?
Eu2 O10 C39 C31 -175.1(3) 1_655 . . . ?
Eu2 O11 C39 O10 -3.1(4) 1_655 . . . ?
Eu2 O11 C39 C31 175.0(3) 1_655 . . . ?
Eu2 N2 C23 C22 171.7(3) 3_666 . . . ?
Eu2 N2 C24 C25 -171.0(4) 3_666 . . . ?
Eu2 O6A C26A O7A -11.2(13) 1_556 . . . ?
Eu2 O6A C26A C18A 165.4(11) 1_556 . . . ?
Eu2 O7A C26A O6A 11.0(13) 1_556 . . . ?
Eu2 O7A C26A C18A -165.4(13) 1_556 . . . ?
O1 C1 C2 C1 0(100) . . . 4_565 ?
O1 C1 C2 C3 -157.4(4) . . . . ?
O1 C1 C2 C7 16.5(4) . . . . ?
O2 C1 C2 C1 0(100) . . . 4_565 ?
O2 C1 C2 C3 22.6(4) . . . . ?
O2 C1 C2 C7 -163.5(4) . . . . ?
O4 C14 C15 C16 174(2) . . . . ?
O4 C14 C15 C20 -1(3) . . . . ?
O5 C14 C15 C16 1(3) . . . . ?
O5 C14 C15 C20 -174.1(16) . . . . ?
O5 C14A C15A C16 4(2) . . . . ?
O5 C14A C15A C20A -178.7(13) . . . . ?
O8 C27 C28 C29 152.4(5) . . . . ?
O8 C27 C28 C29A -153.5(6) . . . . ?
O8 C27 C28 C33 -22.3(10) . . . . ?
O8 C27 C28 C33A 14.7(8) . . . . ?
O8 C27 O9A Eu2 -15.1(7) . . . . ?
O9 C27 C28 C29 -9.9(8) . . . . ?
O9 C27 C28 C33 175.5(9) . . . . ?
N1 C11 C12 C8 -0.4(19) . . . . ?
N2 C24 C25 C21 -1.0(7) . . . . ?
N3 C37 C38 C34 2(2) . . . . ?
N3A C37A C38A C34A 2.4(19) . . . . ?
C1 O1 C1 O2 0(100) 4_565 . . . ?
C1 O1 C1 C2 0(36) 4_565 . . . ?
C1 O2 C1 O1 0(100) 4_565 . . . ?
C1 O2 C1 C2 0(100) 4_565 . . . ?
C1 C1 C2 C3 0(12) 4_565 . . . ?
C1 C1 C2 C7 0(13) 4_565 . . . ?
C1 C2 C3 C4 -178.4(6) . . . . ?
C1 C2 C3 C4 -178.4(6) 4_565 . . . ?
C1 C2 C7 C6 178.2(5) . . . . ?
C1 C2 C7 C6 178.2(5) 4_565 . . . ?
C2 C3 C4 C5 -1.8(10) . . . . ?
C2 C3 C4 C8 172.8(8) . . . . ?
C3 C2 C7 C6 -7.9(9) . . . . ?
C3 C4 C5 C6 -3.7(9) . . . . ?
C3 C4 C5 C13 -177.8(5) . . . . ?
C3 C4 C8 C9 -130.3(13) . . . . ?
C3 C4 C8 C12 51.4(13) . . . . ?
C4 C5 C6 C7 3.4(8) . . . . ?
C4 C5 C13 O3 -113.3(5) . . . . ?
C4 C5 C13 O3 67.9(6) . . . 4_565 ?
C4 C8 C9 C10 173.8(13) . . . . ?
C4 C8 C12 C11 -176.1(10) . . . . ?
C5 C4 C8 C9 43.9(16) . . . . ?
C5 C4 C8 C12 -134.3(9) . . . . ?
C5 C6 C7 C2 2.5(9) . . . . ?
C6 C5 C13 O3 72.5(5) . . . . ?
C6 C5 C13 O3 -106.4(4) . . . 4_565 ?
C7 C2 C3 C4 7.5(9) . . . . ?
C8 C4 C5 C6 -178.0(7) . . . . ?
C8 C4 C5 C13 7.9(9) . . . . ?
C8 C9 C10 N1 5(3) . . . . ?
C9 C8 C12 C11 5.5(17) . . . . ?
C10 N1 C11 C12 -3.0(19) . . . . ?
C11 N1 C10 C9 1(2) . . . . ?
C12 C8 C9 C10 -8(2) . . . . ?
C13 C5 C6 C7 177.7(5) . . . . ?
C14 C15 C16 C17 -178.8(13) . . . . ?
C14 C15 C20 C19 177.3(14) . . . . ?
C15 C16 C17 C18 1.6(14) . . . . ?
C15 C16 C17 C21 -167.8(12) . . . . ?
C16 C15 C20 C19 2(2) . . . . ?
C16 C17 C18 C19 2.1(16) . . . . ?
C16 C17 C18 C26 175.6(10) . . . . ?
C16 C17 C21 C22 -132.3(4) . . . . ?
C16 C17 C21 C25 46.5(5) . . . . ?
C16 C17 C18A C19A -3.9(13) . . . . ?
C16 C17 C18A C26A -176.9(11) . . . . ?
C16 C15A C20A C19A -5(2) . . . . ?
C17 C16 C15A C14A 179.2(11) . . . . ?
C17 C16 C15A C20A 2.2(18) . . . . ?
C17 C18 C19 C20 -3.6(18) . . . . ?
C17 C18 C26 O6 -150.4(13) . . . . ?
C17 C18 C26 O7 31(2) . . . . ?
C17 C21 C22 C23 -178.2(4) . . . . ?
C17 C21 C25 C24 179.1(4) . . . . ?
C17 C18A C19A C20A 0.7(17) . . . . ?
C17 C18A C26A Eu2 -81(3) . . . 1_556 ?
C17 C18A C26A O6A -152.2(11) . . . . ?
C17 C18A C26A O7A 24(2) . . . . ?
C18 C17 C21 C22 58.5(11) . . . . ?
C18 C17 C21 C25 -122.8(10) . . . . ?
C18 C19 C20 C15 1.5(19) . . . . ?
C19 C18 C26 O6 23(2) . . . . ?
C19 C18 C26 O7 -155.9(17) . . . . ?
C20 C15 C16 C17 -4(2) . . . . ?
C21 C17 C18 C19 171.0(9) . . . . ?
C21 C17 C18 C26 -15.5(18) . . . . ?
C21 C17 C18A C19A -175.2(9) . . . . ?
C21 C17 C18A C26A 11.8(18) . . . . ?
C21 C22 C23 N2 -1.2(6) . . . . ?
C22 C21 C25 C24 -2.0(6) . . . . ?
C23 N2 C24 C25 2.8(7) . . . . ?
C24 N2 C23 C22 -1.8(6) . . . . ?
C25 C21 C22 C23 3.0(6) . . . . ?
C26 C18 C19 C20 -177.5(12) . . . . ?
C27 C28 C29 C30 -176.3(7) . . . . ?
C27 C28 C29A C30A -174.5(7) . . . . ?
C27 C28 C33 C32 176.1(9) . . . . ?
C27 C28 C33A C32A 173.4(6) . . . . ?
C28 C27 O9A Eu2 -179.2(4) . . . . ?
C28 C29 C30 C31 -1.4(11) . . . . ?
C28 C29 C30 C34 -177.9(8) . . . . ?
C28 C29A C30A C31 -0.7(12) . . . . ?
C28 C29A C30A C34A 173.4(8) . . . . ?
C29 C28 C33 C32 1.6(16) . . . . ?
C29 C30 C31 C32 3.8(11) . . . . ?
C29 C30 C31 C39 177.4(6) . . . . ?
C29 C30 C34 C35 -48.7(15) . . . . ?
C29 C30 C34 C38 128.5(12) . . . . ?
C29A C28 C33A C32A -18.0(11) . . . . ?
C29A C30A C31 C32A -14.6(10) . . . . ?
C29A C30A C31 C39 -179.6(6) . . . . ?
C29A C30A C34A C35A 46.2(13) . . . . ?
C29A C30A C34A C38A -132.4(11) . . . . ?
C30 C31 C32 C33 -3.7(14) . . . . ?
C30 C31 C39 O10 -65.7(6) . . . . ?
C30 C31 C39 O11 116.1(5) . . . . ?
C30 C34 C35 C36 176.0(11) . . . . ?
C30 C34 C38 C37 -175.2(11) . . . . ?
C30A C31 C32A C33A 12.8(11) . . . . ?
C30A C31 C39 O10 -123.2(6) . . . . ?
C30A C31 C39 O11 58.7(7) . . . . ?
C30A C34A C35A C36A -172.8(10) . . . . ?
C30A C34A C38A C37A 175.9(10) . . . . ?
C31 C30 C34 C35 135.1(11) . . . . ?
C31 C30 C34 C38 -47.7(16) . . . . ?
C31 C30A C34A C35A -140.0(9) . . . . ?
C31 C30A C34A C38A 41.4(14) . . . . ?
C31 C32 C33 C28 0.9(19) . . . . ?
C31 C32A C33A C28 3.2(11) . . . . ?
C32 C31 C39 O10 107.6(8) . . . . ?
C32 C31 C39 O11 -70.5(8) . . . . ?
C32A C31 C39 O10 71.4(6) . . . . ?
C32A C31 C39 O11 -106.7(5) . . . . ?
C33 C28 C29 C30 -1.2(12) . . . . ?
C33A C28 C29A C30A 17.1(12) . . . . ?
C34 C30 C31 C32 -179.9(10) . . . . ?
C34 C30 C31 C39 -6.2(11) . . . . ?
C34 C35 C36 N3 -4(2) . . . . ?
C34A C30A C31 C32A 171.6(8) . . . . ?
C34A C30A C31 C39 6.6(11) . . . . ?
C34A C35A C36A N3A -9.5(18) . . . . ?
C35 C34 C38 C37 2(2) . . . . ?
C35A C34A C38A C37A -2.7(17) . . . . ?
C36 N3 C37 C38 -7(2) . . . . ?
C36A N3A C37A C38A -5.2(18) . . . . ?
C37 N3 C36 C35 8(2) . . . . ?
C37A N3A C36A C35A 9.3(19) . . . . ?
C38 C34 C35 C36 -1.4(19) . . . . ?
C38A C34A C35A C36A 5.8(16) . . . . ?
C39 C31 C32 C33 -177.0(8) . . . . ?
C39 C31 C32A C33A 179.2(6) . . . . ?
O4A C14A C15A C16 -170.0(16) . . . . ?
O4A C14A C15A C20A 7(2) . . . . ?
C14A C15A C20A C19A 177.5(13) . . . . ?
C15A C16 C17 C21 174.5(10) . . . . ?
C15A C16 C17 C18A 2.4(11) . . . . ?
C18A C17 C21 C22 39.0(10) . . . . ?
C18A C17 C21 C25 -142.2(9) . . . . ?
C18A C19A C20A C15A 3.9(18) . . . . ?
C19A C18A C26A Eu2 106(3) . . . 1_556 ?
C19A C18A C26A O6A 34.5(18) . . . . ?
C19A C18A C26A O7A -149.0(13) . . . . ?
C26A C18A C19A C20A 174.4(11) . . . . ?
O9A C27 C28 C29A 9.9(10) . . . . ?
O9A C27 C28 C33A 178.1(8) . . . . ?
loop_
_platon_squeeze_void_nr
_platon_squeeze_void_average_x
_platon_squeeze_void_average_y
_platon_squeeze_void_average_z
_platon_squeeze_void_volume
_platon_squeeze_void_count_electrons
_platon_squeeze_void_content
1 0.000 0.000 0.500 167 17 ' '
2 0.000 0.500 0.500 167 17 ' '
