#------------------------------------------------------------------------------
#$Date: 2020-11-06 14:16:49 +0200 (Fri, 06 Nov 2020) $
#$Revision: 258843 $
#$URL: file:///home/coder/svn-repositories/cod/cif/7/70/54/7705436.cif $
#------------------------------------------------------------------------------
#
# This file is available in the Crystallography Open Database (COD),
# http://www.crystallography.net/
#
# All data on this site have been placed in the public domain by the
# contributors.
#
data_7705436
loop_
_publ_author_name
'Zhang, Chengcheng'
'Ma, Xiufang'
'Cen, Peipei'
'Jin, Xiaoyong'
'Yang, Jinhui'
'Zhang, Yi-Quan'
'Ferrando-Soria, Jes\'us'
'Pardo, Emilio'
'Liu, Xiangyu'
_publ_section_title
;
 A series of lanthanide(III) metal-organic frameworks derived from a
 pyridyl-dicarboxylate ligand: single-molecule magnet behaviour and
 luminescence properties.
;
_journal_issue                   40
_journal_name_full
'Dalton transactions (Cambridge, England : 2003)'
_journal_page_first              14123
_journal_page_last               14132
_journal_paper_doi               10.1039/d0dt02736g
_journal_volume                  49
_journal_year                    2020
_chemical_formula_moiety         '0.5(C130 H78 N10 O42 Tb6), H4 O2'
_chemical_formula_sum            'C65 H43 N5 O23 Tb3'
_chemical_formula_weight         1738.80
_space_group_crystal_system      monoclinic
_space_group_IT_number           11
_space_group_name_Hall           '-P 2yb'
_space_group_name_H-M_alt        'P 1 21/m 1'
_atom_sites_solution_hydrogens   mixed
_atom_sites_solution_primary     dual
_audit_creation_date             2020-07-22
_audit_creation_method
;
Olex2 1.2
(compiled 2018.05.29 svn.r3508 for OlexSys, GUI svn.r5506)
;
_audit_update_record
;
2020-07-29 deposited with the CCDC.	2020-09-15 downloaded from the CCDC.
;
_cell_angle_alpha                90
_cell_angle_beta                 101.9300(10)
_cell_angle_gamma                90
_cell_formula_units_Z            2
_cell_length_a                   11.4772(5)
_cell_length_b                   27.6587(13)
_cell_length_c                   11.5564(5)
_cell_measurement_reflns_used    9997
_cell_measurement_temperature    296.0
_cell_measurement_theta_max      27.48
_cell_measurement_theta_min      2.71
_cell_volume                     3589.3(3)
_computing_molecular_graphics    'Olex2 (Dolomanov et al., 2009)'
_computing_publication_material  'Olex2 (Dolomanov et al., 2009)'
_computing_structure_refinement  'ShelXL (Sheldrick, 2015)'
_computing_structure_solution    'ShelXT (Sheldrick, 2015)'
_diffrn_ambient_temperature      296.0
_diffrn_measured_fraction_theta_full 0.998
_diffrn_measured_fraction_theta_max 0.997
_diffrn_measurement_device_type  'Bruker APEX-II CCD'
_diffrn_measurement_method       '\f and \w scans'
_diffrn_radiation_type           MoK\a
_diffrn_radiation_wavelength     0.71073
_diffrn_reflns_av_R_equivalents  0.0464
_diffrn_reflns_av_unetI/netI     0.0232
_diffrn_reflns_Laue_measured_fraction_full 0.998
_diffrn_reflns_Laue_measured_fraction_max 0.997
_diffrn_reflns_limit_h_max       14
_diffrn_reflns_limit_h_min       -14
_diffrn_reflns_limit_k_max       35
_diffrn_reflns_limit_k_min       -35
_diffrn_reflns_limit_l_max       15
_diffrn_reflns_limit_l_min       -15
_diffrn_reflns_number            83567
_diffrn_reflns_point_group_measured_fraction_full 0.998
_diffrn_reflns_point_group_measured_fraction_max 0.997
_diffrn_reflns_theta_full        25.242
_diffrn_reflns_theta_max         27.521
_diffrn_reflns_theta_min         1.957
_diffrn_standards_number         0
_exptl_absorpt_coefficient_mu    2.999
_exptl_absorpt_correction_T_max  0.7456
_exptl_absorpt_correction_T_min  0.6837
_exptl_absorpt_correction_type   multi-scan
_exptl_absorpt_process_details
;
 SADABS 2016/2: Krause, L., Herbst-Irmer, R., Sheldrick G.M. & Stalke D.,
 J. Appl. Cryst. 48 (2015) 3-10
;
_exptl_crystal_colour            colourless
_exptl_crystal_colour_primary    colourless
_exptl_crystal_density_diffrn    1.609
_exptl_crystal_description       block
_exptl_crystal_F_000             1694
_exptl_crystal_size_max          0.15
_exptl_crystal_size_mid          0.11
_exptl_crystal_size_min          0.1
_refine_diff_density_max         1.072
_refine_diff_density_min         -0.892
_refine_diff_density_rms         0.104
_refine_ls_extinction_method     none
_refine_ls_goodness_of_fit_ref   1.079
_refine_ls_hydrogen_treatment    constr
_refine_ls_matrix_type           full
_refine_ls_number_parameters     698
_refine_ls_number_reflns         8383
_refine_ls_number_restraints     857
_refine_ls_restrained_S_all      1.060
_refine_ls_R_factor_all          0.0316
_refine_ls_R_factor_gt           0.0266
_refine_ls_shift/su_max          0.004
_refine_ls_shift/su_mean         0.000
_refine_ls_structure_factor_coef Fsqd
_refine_ls_weighting_details
'w=1/[\s^2^(Fo^2^)+(0.0311P)^2^+6.9668P] where P=(Fo^2^+2Fc^2^)/3'
_refine_ls_weighting_scheme      calc
_refine_ls_wR_factor_gt          0.0667
_refine_ls_wR_factor_ref         0.0692
_reflns_Friedel_coverage         0.000
_reflns_number_gt                7564
_reflns_number_total             8383
_reflns_threshold_expression     'I > 2\s(I)'
_cod_data_source_file            d0dt02736g16.cif
_cod_data_source_block           an1tb4_sq
_cod_depositor_comments
'Adding full bibliography for 7705434--7705437.cif.'
_cod_database_code               7705436
_shelx_shelxl_version_number     2018/3
_shelx_space_group_comment
;
The symmetry employed for this shelxl refinement is uniquely defined
by the following loop, which should always be used as a source of
symmetry information in preference to the above space-group names.
They are only intended as comments.
;
_shelx_estimated_absorpt_t_max   0.754
_shelx_estimated_absorpt_t_min   0.662
_olex2_refinement_description
;
1. Fixed Uiso
 At 1.2 times of:
  All C(H) groups, All C(H,H) groups, All N(H) groups
 At 1.5 times of:
  All O(H,H) groups
2. Restrained distances
 O2A-C7 \\sim O2-C7
 with sigma of 0.02
 O1-C7 \\sim O1A-C7
 with sigma of 0.02
 O1-O2 \\sim O1A-O2A
 with sigma of 0.02
 Tb1-O2A \\sim Tb1-O2
 with sigma of 0.02
 Tb1-O1 \\sim Tb1-O1A
 with sigma of 0.02
3. Uiso/Uaniso restraints and constraints
O1 \\sim O1A \\sim O2 \\sim O2A: within 2A with sigma of 0.01 and sigma for
terminal atoms of 0.02
O6A: within 2A with sigma of 0.01 and sigma for terminal atoms of 0.02
C34 \\sim C35 \\sim C36 \\sim N3 \\sim C37 \\sim C38 \\sim C9 \\sim C10 \\sim
N1 \\sim C11 \\sim C12 \\sim C12A \\sim C11A \\sim N1A \\sim C10A \\sim C9A
\\sim C8A \\sim C8: within 3.8A with sigma of 0.01 and sigma for terminal atoms
of 0.02
Uanis(O6A) \\sim Ueq: with sigma of 0.01 and sigma for terminal atoms of 0.02
4. Rigid body (RIGU) restrains
 N3, C27, C28, C29, C30, C31, C32, C34, C35, C36, C37, C38
 with sigma for 1-2 distances of 0.001 and sigma for 1-3 distances of 0.002
 N1, C1, C2, C3, C4, C5, C6, C8, C9, C10, C11, C12
 with sigma for 1-2 distances of 0.001 and sigma for 1-3 distances of 0.002
 N1A, C1, C2A, C3A, C4, C5A, C6A, C8A, C9A, C10A, C11A, C12A
 with sigma for 1-2 distances of 0.001 and sigma for 1-3 distances of 0.002
 O5, O6, O7, O8, C14, C15, C16, C17, C18, C19, C20, C26
 with sigma for 1-2 distances of 0.001 and sigma for 1-3 distances of 0.002
 O5, O6A, O7A, O8A, C14A, C15, C16, C17A, C18A, C19A, C20A, C21A
 with sigma for 1-2 distances of 0.001 and sigma for 1-3 distances of 0.002
 O1A, O2A, C7
 with sigma for 1-2 distances of 0.001 and sigma for 1-3 distances of 0.002
 O1, O2, C7
 with sigma for 1-2 distances of 0.001 and sigma for 1-3 distances of 0.002
5. Others
 Sof(N1A)=Sof(H1A)=Sof(C2A)=Sof(H2A)=Sof(C3A)=Sof(C5A)=Sof(H5A)=Sof(C6A)=
 Sof(H6A)=Sof(C8A)=Sof(C9A)=Sof(H9A)=Sof(C10A)=Sof(H10A)=Sof(C11A)=Sof(H11A)=
 Sof(C12A)=Sof(H12C)=1-FVAR(1)
 Sof(N1)=Sof(H1)=Sof(C2)=Sof(H2)=Sof(C3)=Sof(C5)=Sof(H5)=Sof(C6)=Sof(H6)=
 Sof(C8)=Sof(C9)=Sof(H9)=Sof(C10)=Sof(H10)=Sof(C11)=Sof(H11)=Sof(C12)=Sof(H12)=
 FVAR(1)
 Sof(O6A)=Sof(O7A)=Sof(O8A)=Sof(C14A)=Sof(H15A)=Sof(C17A)=Sof(C18A)=Sof(H18A)=
 Sof(C19A)=Sof(H19A)=Sof(C20A)=Sof(C21A)=1-FVAR(2)
 Sof(O6)=Sof(O7)=Sof(O8)=Sof(C14)=Sof(H15)=Sof(C17)=Sof(C18)=Sof(H18)=Sof(C19)=
 Sof(H19)=Sof(C20)=Sof(C26)=FVAR(2)
 Sof(O1A)=Sof(O2A)=1-FVAR(3)
 Sof(O1)=Sof(O2)=FVAR(3)
 Fixed Sof: H12A(0.5) H12B(0.5) N3(0.5) C28(0.5) H28(0.5) C29(0.5) C31(0.5)
 H31(0.5) C32(0.5) H32(0.5) C34(0.5) C35(0.5) H35(0.5) C36(0.5) H36(0.5)
 C37(0.5) H37(0.5) C38(0.5) H38(0.5) O13(0.25) H13A(0.25) H13B(0.25) O14(0.5)
 H14A(0.5) H14B(0.5) O15(0.25) H15B(0.25) H15C(0.25)
6.a Riding coordinates:
 O13(H13A,H13B), O14(H14A,H14B), O15(H15B,H15C)
6.b Rotating group:
 O12(H12A,H12B)
6.c Aromatic/amide H refined with riding coordinates:
 N1(H1), N1A(H1A), C2(H2), C2A(H2A), C5(H5), C5A(H5A), C6(H6), C6A(H6A),
 C9(H9), C9A(H9A), C10(H10), C10A(H10A), C11(H11), C11A(H11A), C12(H12),
 C12A(H12C), C15(H15), C15(H15A), C18(H18), C18A(H18A), C19(H19), C19A(H19A),
 C22(H22), C23(H23), C24(H24), C25(H25), C28(H28), C31(H31), C32(H32), C35(H35),
  C36(H36), C37(H37), C38(H38)
;
_shelx_res_file
;
TITL an1tb4_a.res in P2(1)/m
    an1tb4_sq.res
    created by SHELXL-2018/3 at 12:54:27 on 22-Jul-2020
REM Old TITL An1Tb4 in P2(1)/m
REM SHELXT solution in P2(1)/m: R1 0.098, Rweak 0.006, Alpha 0.078
REM <I/s> 3.024 for 16 systematic absences, Orientation as input
REM Formula found by SHELXT: C57 N10 O21 Tb3
CELL 0.71073 11.4772 27.6587 11.5564 90 101.93 90
ZERR 2 0.0005 0.0013 0.0005 0 0.001 0
LATT 1
SYMM -X,0.5+Y,-Z
SFAC C H N O Tb
UNIT 130 86 10 46 6
EQIV $1 +X,1.5-Y,+Z
EQIV $2 1+X,+Y,+Z
EQIV $3 +X,+Y,1+Z
EQIV $4 -1+X,1.5-Y,+Z
EQIV $5 -1+X,+Y,+Z
EQIV $6 +X,1.5-Y,1+Z
EQIV $7 -1+X,+Y,1+Z
EQIV $8 1-X,1-Y,-Z
EQIV $9 +X,+Y,-1+Z
SADI O2A C7 O2 C7
SADI O1 C7 O1A C7
SADI O1 O2 O1A O2A
SADI Tb1 O2A Tb1 O2
SADI Tb1 O1 Tb1 O1A
SIMU 0.01 0.02 2 O1 > O2A
SIMU 0.01 0.02 2 O6A
SIMU 0.01 0.02 3.8 C34 C35 C36 N3 C37 C38 C9 C10 N1 C11 C12 C12A C11A N1A =
 C10A C9A C8A C8
RIGU 0.001 0.002 N3 C27 > C32 C34 > C38
RIGU 0.001 0.002 N1 C1 C2 C3 C4 C5 C6 C8 C9 C10 C11 C12
RIGU 0.001 0.002 N1A C1 C2A C3A C4 C5A C6A C8A C9A C10A C11A C12A
RIGU 0.001 0.002 O5 O6 O7 O8 C14 C15 C16 C17 C18 C19 C20 C26
RIGU 0.001 0.002 O5 O6A O7A O8A C14A C15 C16 C17A C18A C19A C20A C21A
RIGU 0.001 0.002 O1A O2A C7
RIGU 0.001 0.002 O1 O2 C7
ISOR 0.01 0.02 O6A

L.S. 10 0 9
PLAN  2
SIZE 0.1 0.11 0.15
TEMP 22.85
HTAB O12 O8_$3
HTAB O12 O8_$6
HTAB O12 O8A_$3
HTAB O12 O8A_$6
HTAB N1A O13_$7
HTAB C24 O7A_$8
HTAB C25 O1_$9
HTAB O14 O1A
FREE Tb2 C33
FREE Tb2 C33_$1
FREE Tb2 C39_$5
FREE Tb2 C39_$4
FREE Tb1 C7
FREE Tb1 C13_$2
FREE Tb1 C26_$3
BOND $H
CONF
MORE -1
ABIN
fmap 2 53
acta
OMIT 1 0 1
OMIT 0 2 1
OMIT 1 2 0
OMIT 0 2 2
OMIT 0 1 1
OMIT 0 6 0
OMIT 1 0 0
OMIT 1 0 2
OMIT 0 2 0
OMIT -2 2 4
OMIT 1 6 0
REM <olex2.extras>
REM <HklSrc "%.\\An1Tb4_sq.hkl">
REM </olex2.extras>

WGHT    0.031100    6.966800
FVAR       0.18700   0.54644   0.59664   0.56060
TB1   5    0.589186    0.626374    0.872400    11.00000    0.01596    0.02285 =
         0.01507   -0.00245    0.00588   -0.00281
TB2   5    0.768302    0.750000    0.821685    10.50000    0.01223    0.02381 =
         0.01397    0.00000    0.00406    0.00000
PART 1
O1    4    0.414014    0.612646    0.949435    41.00000    0.02133    0.05661 =
         0.05880    0.02510    0.01646    0.00088
PART 0
PART 2
O1A   4    0.419585    0.633768    0.965375   -41.00000    0.02265    0.06116 =
         0.05012    0.02827    0.01514    0.00521
PART 0
PART 1
O2    4    0.374695    0.636032    0.764264    41.00000    0.02581    0.02428 =
         0.04566   -0.00699    0.01236   -0.00853
PART 0
PART 2
O2A   4    0.374601    0.621247    0.774296   -41.00000    0.02127    0.04095 =
         0.05885   -0.00552    0.01463   -0.00875
PART 0
O3    4   -0.206154    0.666796    0.890112    11.00000    0.01932    0.03122 =
         0.03367    0.00622    0.00483    0.00347
O4    4   -0.215352    0.587743    0.882186    11.00000    0.02014    0.03497 =
         0.05297   -0.00532    0.01291   -0.00012
O5    4    0.610738    0.631880    0.677008    11.00000    0.03822    0.03336 =
         0.01721   -0.00302    0.01068   -0.00995
PART 1
O6    4    0.699230    0.702451    0.656066    31.00000    0.03582    0.03334 =
         0.01940   -0.00540    0.00724   -0.01182
PART 0
PART 2
O6A   4    0.726148    0.695538    0.660216   -31.00000    0.02875    0.02594 =
         0.01532   -0.00440    0.00682   -0.00336
PART 0
PART 1
O7    4    0.652025    0.592445    0.072748    31.00000    0.03222    0.02538 =
         0.02046   -0.00601    0.00512   -0.00636
PART 0
PART 2
O7A   4    0.634433    0.580871    0.069667   -31.00000    0.03428    0.01866 =
         0.01928   -0.00214    0.00818   -0.00968
PART 0
PART 1
O8    4    0.618558    0.670713    0.057527    31.00000    0.06310    0.02696 =
         0.01898   -0.00219    0.01497   -0.00538
PART 0
PART 2
O8A   4    0.661555    0.659415    0.065757   -31.00000    0.04586    0.01879 =
         0.01788    0.00054    0.00855   -0.01041
PART 0
O9    4    0.936486    0.750000    0.734358    10.50000    0.01800    0.13392 =
         0.03204    0.00000    0.00727    0.00000
O10   4    0.975091    0.750000    0.923600    10.50000    0.01451    0.07327 =
         0.03788    0.00000    0.00763    0.00000
O11   4    1.567099    0.789211    0.831689    11.00000    0.01660    0.02772 =
         0.03040   -0.00269    0.00607   -0.00148
O12   4    0.753679    0.750000    1.027689    10.50000    0.02767    0.03116 =
         0.02198    0.00000    0.00680    0.00000
AFIX   7
H12A  2    0.723193    0.721488    1.051113    10.50000   -1.50000
H12B  2    0.698828    0.772126    1.044166    10.50000   -1.50000
AFIX   0
PART -1
N1    3   -0.003033    0.530919    1.280955    21.00000    0.07513    0.10480 =
         0.06116    0.02290    0.02282    0.01408
AFIX  43
H1    2   -0.015479    0.516747    1.343524    21.00000   -1.20000
AFIX   0
PART 0
PART -2
N1A   3   -0.012463    0.677712    1.330293   -21.00000    0.06968    0.11089 =
         0.05868   -0.00004    0.03199    0.00267
AFIX  43
H1A   2   -0.018593    0.683192    1.402045   -21.00000   -1.20000
AFIX   0
PART 0
N2    3    0.461353    0.458085    0.199126    11.00000    0.03649    0.02723 =
         0.02872   -0.00391    0.00514   -0.00486
PART -1
N3    3    1.386602    0.800106    0.395655    10.50000    0.05476    0.13782 =
         0.04812    0.01234    0.00996   -0.00172
PART 0
C1    1    0.211256    0.621747    0.866553    11.00000    0.02297    0.04081 =
         0.05589    0.01643    0.01310    0.00786
PART -1
C2    1    0.175593    0.599476    0.953239    21.00000    0.02101    0.05051 =
         0.04539    0.01447    0.00865    0.00795
AFIX  43
H2    2    0.232396    0.583547    1.009355    21.00000   -1.20000
AFIX   0
PART 0
PART -2
C2A   1    0.180868    0.638732    0.985656   -21.00000    0.01707    0.04343 =
         0.04979    0.01143    0.00677   -0.00018
AFIX  43
H2A   2    0.240636    0.647767    1.049266   -21.00000   -1.20000
AFIX   0
PART 0
PART -1
C3    1    0.058261    0.598287    0.966118    21.00000    0.02089    0.04436 =
         0.03743    0.00747    0.00791    0.00645
PART 0
PART -2
C3A   1    0.060835    0.639955    0.993837   -21.00000    0.01795    0.04924 =
         0.03798    0.01473    0.00765    0.00297
PART 0
C4    1   -0.026609    0.623250    0.883950    11.00000    0.01765    0.03678 =
         0.04179    0.01074    0.00991    0.00532
PART -1
C5    1    0.004371    0.637134    0.775497    21.00000    0.02047    0.03820 =
         0.03411    0.00765    0.00562    0.00395
AFIX  43
H5    2   -0.054871    0.646827    0.712107    21.00000   -1.20000
AFIX   0
PART 0
PART -2
C5A   1    0.012001    0.611658    0.792986   -21.00000    0.02399    0.05745 =
         0.04758   -0.00439    0.01332   -0.00330
AFIX  43
H5A   2   -0.043368    0.602561    0.725874   -21.00000   -1.20000
AFIX   0
PART 0
PART -1
C6    1    0.121049    0.636322    0.763784    21.00000    0.02212    0.03776 =
         0.03861    0.00392    0.01096    0.00312
AFIX  43
H6    2    0.141940    0.644761    0.692865    21.00000   -1.20000
AFIX   0
PART 0
PART -2
C6A   1    0.132061    0.611572    0.786331   -21.00000    0.02559    0.04834 =
         0.05465    0.00089    0.01824    0.00530
AFIX  43
H6A   2    0.151368    0.603032    0.714754   -21.00000   -1.20000
AFIX   0
PART 0
C7    1    0.341078    0.624818    0.862724    11.00000    0.02226    0.03336 =
         0.05794    0.01250    0.01590    0.00439
PART -1
C8    1    0.031370    0.574939    1.075463    21.00000    0.04893    0.08536 =
         0.04373    0.01875    0.01851    0.00645
PART 0
PART -2
C8A   1    0.030203    0.654009    1.107763   -21.00000    0.05114    0.09343 =
         0.04406    0.00648    0.02017    0.00550
PART 0
PART -1
C9    1    0.086083    0.527981    1.110452    21.00000    0.05753    0.08816 =
         0.05485    0.02510    0.01672    0.00853
AFIX  43
H9    2    0.129715    0.511027    1.064346    21.00000   -1.20000
AFIX   0
PART 0
PART -2
C9A   1    0.076990    0.695482    1.163012   -21.00000    0.06311    0.09604 =
         0.04798    0.00286    0.02243   -0.00011
AFIX  43
H9A   2    0.125754    0.715374    1.128701   -21.00000   -1.20000
AFIX   0
PART 0
PART -1
C10   1    0.068009    0.511166    1.215643    21.00000    0.07106    0.09452 =
         0.05814    0.02709    0.02151    0.01124
AFIX  43
H10   2    0.108887    0.483276    1.245074    21.00000   -1.20000
AFIX   0
PART 0
PART -2
C10A  1    0.050265    0.707283    1.271220   -21.00000    0.07283    0.10853 =
         0.05437   -0.00465    0.02709   -0.00474
AFIX  43
H10A  2    0.076469    0.736862    1.305170   -21.00000   -1.20000
AFIX   0
PART 0
PART -1
C11   1   -0.055564    0.574548    1.245097    21.00000    0.06683    0.10342 =
         0.05419    0.01930    0.02704    0.01307
AFIX  43
H11   2   -0.102294    0.589712    1.291155    21.00000   -1.20000
AFIX   0
PART 0
PART -2
C11A  1   -0.064122    0.639378    1.268715   -21.00000    0.06288    0.10580 =
         0.05204    0.00846    0.02599    0.00421
AFIX  43
H11A  2   -0.115398    0.620013    1.301150   -21.00000   -1.20000
AFIX   0
PART 0
PART -1
C12   1   -0.040182    0.595983    1.142812    21.00000    0.05926    0.09720 =
         0.05011    0.01500    0.02384    0.01124
AFIX  43
H12   2   -0.078440    0.625017    1.118670    21.00000   -1.20000
AFIX   0
PART 0
PART -2
C12A  1   -0.043093    0.628105    1.159210   -21.00000    0.05870    0.09889 =
         0.05025    0.01067    0.02434    0.00367
AFIX  43
H12C  2   -0.081318    0.601436    1.119386   -21.00000   -1.20000
AFIX   0
PART 0
C13   1   -0.157052    0.625823    0.886758    11.00000    0.01821    0.03774 =
         0.02329    0.00576    0.00729    0.00305
PART 1
C14   1    0.642460    0.653829    0.488138    31.00000    0.03059    0.03241 =
         0.01754   -0.00402    0.00613   -0.00858
PART 0
PART 2
C14A  1    0.668330    0.645472    0.492546   -31.00000    0.02008    0.02261 =
         0.01385   -0.00022    0.00509    0.00200
PART 0
C15   1    0.603989    0.607949    0.439232    11.00000    0.03938    0.03190 =
         0.01756   -0.00223    0.01020   -0.01227
PART 1
AFIX  43
H15   2    0.581752    0.584366    0.487804    31.00000   -1.20000
AFIX  43
PART 0
PART 2
H15A  2    0.562217    0.588674    0.482623   -31.00000   -1.20000
AFIX   0
PART 0
C16   1    0.598750    0.597393    0.319869    11.00000    0.03694    0.03017 =
         0.01732   -0.00247    0.00687   -0.01262
PART 1
C17   1    0.630122    0.636696    0.247160    31.00000    0.02971    0.02706 =
         0.01889   -0.00212    0.00975   -0.00561
PART 0
PART 2
C17A  1    0.659291    0.625815    0.254145   -31.00000    0.01895    0.01545 =
         0.01631    0.00038    0.00265    0.00318
PART 0
PART 1
C18   1    0.671906    0.681080    0.300118    31.00000    0.07732    0.03178 =
         0.02330   -0.00441    0.02049   -0.02379
AFIX  43
H18   2    0.695380    0.705226    0.253788    31.00000   -1.20000
AFIX   0
PART 0
PART 2
C18A  1    0.717359    0.666376    0.308807   -31.00000    0.03119    0.01855 =
         0.01644   -0.00117    0.00970   -0.00441
AFIX  43
H18A  2    0.752657    0.687757    0.264273   -31.00000   -1.20000
AFIX   0
PART 0
PART 1
C19   1    0.678723    0.689454    0.418097    31.00000    0.07587    0.03708 =
         0.02417   -0.00976    0.01698   -0.02869
AFIX  43
H19   2    0.707482    0.718843    0.451344    31.00000   -1.20000
AFIX   0
PART 0
PART 2
C19A  1    0.724246    0.675889    0.426953   -31.00000    0.02937    0.02152 =
         0.01715   -0.00433    0.00838   -0.00456
AFIX  43
H19A  2    0.766319    0.702638    0.462165   -31.00000   -1.20000
AFIX   0
PART 0
PART 1
C20   1    0.650181    0.664032    0.617706    31.00000    0.02113    0.02907 =
         0.01582   -0.00145    0.00334   -0.00347
PART 0
PART 2
C20A  1    0.669719    0.658053    0.621183   -31.00000    0.01565    0.01917 =
         0.01318    0.00017    0.00270    0.00602
PART 0
C21   1    0.548285    0.550153    0.275715    11.00000    0.03318    0.03088 =
         0.02003   -0.00359    0.00942   -0.00625
PART 2
C21A  1    0.650308    0.619592    0.120498   -31.00000    0.03261    0.01745 =
         0.01666   -0.00003    0.00697   -0.00805
PART 0
C22   1    0.583821    0.508895    0.342450    11.00000    0.05215    0.03419 =
         0.02350   -0.00183   -0.00536   -0.00948
AFIX  43
H22   2    0.637737    0.511414    0.414307    11.00000   -1.20000
AFIX   0
C23   1    0.539549    0.464445    0.302580    11.00000    0.05875    0.02992 =
         0.02982    0.00089   -0.00045   -0.00231
AFIX  43
H23   2    0.564618    0.437445    0.349041    11.00000   -1.20000
AFIX   0
C24   1    0.424625    0.497753    0.137654    11.00000    0.03632    0.02988 =
         0.02917   -0.00566    0.00061   -0.00474
AFIX  43
H24   2    0.369099    0.494329    0.067111    11.00000   -1.20000
AFIX   0
C25   1    0.463776    0.543775    0.171990    11.00000    0.03412    0.03081 =
         0.02729   -0.00187    0.00334   -0.00333
AFIX  43
H25   2    0.433757    0.570321    0.125967    11.00000   -1.20000
AFIX   0
PART 1
C26   1    0.635714    0.631920    0.120270    31.00000    0.02655    0.02375 =
         0.01809   -0.00515    0.00748   -0.01182
PART 0
C27   1    1.140773    0.750000    0.830125    10.50000    0.01643    0.03292 =
         0.03839    0.00000    0.00875    0.00000
PART -1
C28   1    1.179055    0.766180    0.728202    10.50000    0.01668    0.04596 =
         0.03673    0.00443    0.00615    0.00243
AFIX  43
H28   2    1.123120    0.776997    0.663317    10.50000   -1.20000
AFIX   0
C29   1    1.297619    0.766181    0.723468    10.50000    0.01577    0.04669 =
         0.03252   -0.00327    0.00349   -0.00238
PART 0
C30   1    1.380696    0.750000    0.825871    10.50000    0.01480    0.02550 =
         0.03383    0.00000    0.00863    0.00000
PART -1
C31   1    1.343469    0.737759    0.926319    10.50000    0.01456    0.03376 =
         0.03495    0.00444    0.00760   -0.00270
AFIX  43
H31   2    1.398849    0.728764    0.993518    10.50000   -1.20000
AFIX   0
C32   1    1.221682    0.738656    0.928920    10.50000    0.01689    0.04498 =
         0.03649    0.00375    0.01171    0.00107
AFIX  43
H32   2    1.196746    0.731448    0.998578    10.50000   -1.20000
AFIX   0
PART 0
C33   1    1.010172    0.750000    0.830040    10.50000    0.01713    0.02963 =
         0.03675    0.00000    0.00981    0.00000
PART -1
C34   1    1.333681    0.778655    0.610401    10.50000    0.02975    0.12348 =
         0.03507    0.01025    0.00800   -0.00382
C35   1    1.293534    0.821869    0.549284    10.50000    0.05250    0.12474 =
         0.04212    0.01371    0.00843   -0.00286
AFIX  43
H35   2    1.248733    0.843628    0.583320    10.50000   -1.20000
AFIX   0
C36   1    1.318756    0.832413    0.442070    10.50000    0.06112    0.12991 =
         0.04742    0.01598    0.01412   -0.00349
AFIX  43
H36   2    1.290801    0.860599    0.401868    10.50000   -1.20000
AFIX   0
C37   1    1.426484    0.765251    0.451568    10.50000    0.05497    0.13457 =
         0.04450    0.00895    0.01880    0.00310
AFIX  43
H37   2    1.483024    0.748588    0.419964    10.50000   -1.20000
AFIX   0
C38   1    1.402861    0.744048    0.560123    10.50000    0.04893    0.13159 =
         0.04062    0.00776    0.01494    0.00456
AFIX  43
H38   2    1.427810    0.713850    0.591025    10.50000   -1.20000
AFIX   0
PART 0
C39   1    1.512287    0.750000    0.829743    10.50000    0.01327    0.02751 =
         0.01684    0.00000    0.00482    0.00000

O13   4    0.951576    0.750000    0.494002    10.25000    0.04258    0.15537 =
         0.03038    0.00000    0.00243    0.00000
AFIX   3
H13A  2    0.956376    0.750000    0.567652    10.25000   -1.50000
H13B  2    0.892196    0.732530    0.466392    10.25000   -1.50000
AFIX   0

O14   4    0.401584    0.702249    1.174975    10.50000    0.27226    0.22908 =
         0.04779   -0.00094    0.00652    0.16520
AFIX   3
H14A  2    0.406644    0.677409    1.132975    10.50000   -1.50000
H14B  2    0.394464    0.693459    1.243645    10.50000   -1.50000
AFIX   0

O15   4    0.213281    0.491830    0.839989    10.25000    0.13095    0.10872 =
         0.15189    0.05635    0.06338    0.07290
AFIX   3
H15B  2    0.255921    0.466810    0.838529    10.25000   -1.50000
H15C  2    0.152301    0.490390    0.784009    10.25000   -1.50000
AFIX   0
HKLF 4




REM  an1tb4_a.res in P2(1)/m
REM wR2 = 0.0692, GooF = S = 1.079, Restrained GooF = 1.060 for all data
REM R1 = 0.0266 for 7564 Fo > 4sig(Fo) and 0.0316 for all 8383 data
REM 698 parameters refined using 857 restraints

END

WGHT      0.0311      6.9777

REM Highest difference peak  1.072,  deepest hole -0.892,  1-sigma level  0.104
Q1    1   0.1224  0.5008  1.0511  11.00000  0.05    1.07
Q2    1  -0.0524  0.6673  1.5463  11.00000  0.05    0.91
;
_shelx_res_checksum              21253
_shelx_fab_file
;
    2    0    0     -8.01      0.00
    3    0    0     -3.93      0.00
    4    0    0      0.82      0.00
    5    0    0     -3.31      0.00
    6    0    0     -5.34      0.00
    7    0    0     -1.82      0.00
    8    0    0      0.39      0.00
    9    0    0      0.99      0.00
   10    0    0      0.19      0.00
   11    0    0     -0.94      0.00
   12    0    0     -0.47      0.00
   13    0    0      0.65      0.00
   14    0    0      0.56      0.00
    1    1    0      5.21      0.00
    2    1    0      0.65      0.00
    3    1    0     -3.12      0.00
    4    1    0     -1.68      0.00
    5    1    0      0.14      0.00
    6    1    0      0.28      0.00
    7    1    0      0.21      0.00
    8    1    0      0.19      0.00
    9    1    0      0.05      0.00
   10    1    0      0.28      0.00
   11    1    0      0.63      0.00
   12    1    0      0.20      0.00
   13    1    0     -0.47      0.00
   14    1    0     -0.26      0.00
    2    2    0     -5.54      0.00
    3    2    0     -2.66      0.00
    4    2    0     -0.29      0.00
    5    2    0     -3.35      0.00
    6    2    0     -4.04      0.00
    7    2    0     -0.89      0.00
    8    2    0      0.59      0.00
    9    2    0      0.93      0.00
   10    2    0      0.12      0.00
   11    2    0     -0.77      0.00
   12    2    0     -0.26      0.00
   13    2    0      0.21      0.00
   14    2    0     -0.14      0.00
    1    3    0     10.31      0.00
    2    3    0      1.34      0.00
    3    3    0     -5.29      0.00
    4    3    0     -2.41      0.00
    5    3    0      0.50      0.00
    6    3    0      0.49      0.00
    7    3    0      0.63      0.00
    8    3    0      0.49      0.00
    9    3    0     -0.02      0.00
   10    3    0      0.48      0.00
   11    3    0      1.21      0.00
   12    3    0      0.29      0.00
   13    3    0     -1.11      0.00
   14    3    0     -0.56      0.00
    0    4    0      4.75      0.00
    1    4    0      1.72      0.00
    2    4    0      0.03      0.00
    3    4    0     -0.03      0.00
    4    4    0     -2.07      0.00
    5    4    0     -2.76      0.00
    6    4    0     -1.32      0.00
    7    4    0      0.48      0.00
    8    4    0      0.50      0.00
    9    4    0      0.42      0.00
   10    4    0     -0.26      0.00
   11    4    0     -0.56      0.00
   12    4    0      0.13      0.00
   13    4    0     -0.62      0.00
   14    4    0     -1.40      0.00
    1    5    0      5.74      0.00
    2    5    0      1.15      0.00
    3    5    0     -0.73      0.00
    4    5    0      0.21      0.00
    5    5    0      0.03      0.00
    6    5    0     -0.28      0.00
    7    5    0      0.71      0.00
    8    5    0      0.38      0.00
    9    5    0     -0.26      0.00
   10    5    0      0.35      0.00
   11    5    0      0.75      0.00
   12    5    0      0.09      0.00
   13    5    0     -0.91      0.00
   14    5    0     -0.30      0.00
    2    6    0      3.66      0.00
    3    6    0      1.26      0.00
    4    6    0     -2.24      0.00
    5    6    0     -0.95      0.00
    6    6    0      0.63      0.00
    7    6    0      0.64      0.00
    8    6    0     -0.11      0.00
    9    6    0     -0.29      0.00
   10    6    0     -0.55      0.00
   11    6    0     -0.32      0.00
   12    6    0      0.60      0.00
   13    6    0     -0.68      0.00
   14    6    0     -1.62      0.00
    1    7    0     -1.99      0.00
    2    7    0      1.59      0.00
    3    7    0      5.46      0.00
    4    7    0      1.98      0.00
    5    7    0     -1.71      0.00
    6    7    0     -1.33      0.00
    7    7    0      0.44      0.00
    8    7    0     -0.19      0.00
    9    7    0     -0.38      0.00
   10    7    0      0.44      0.00
   11    7    0      0.05      0.00
   12    7    0     -0.12      0.00
   13    7    0     -0.19      0.00
   14    7    0      0.20      0.00
    0    8    0     -8.86      0.00
    1    8    0     -3.47      0.00
    2    8    0      2.04      0.00
    3    8    0      0.37      0.00
    4    8    0     -0.84      0.00
    5    8    0      0.73      0.00
    6    8    0      0.78      0.00
    7    8    0      0.06      0.00
    8    8    0     -0.24      0.00
    9    8    0     -0.40      0.00
   10    8    0     -0.11      0.00
   11    8    0      0.22      0.00
   12    8    0      1.05      0.00
   13    8    0      0.33      0.00
   14    8    0     -0.39      0.00
    1    9    0     -4.60      0.00
    2    9    0      3.52      0.00
    3    9    0      8.05      0.00
    4    9    0      1.48      0.00
    5    9    0     -2.42      0.00
    6    9    0     -0.91      0.00
    7    9    0      0.33      0.00
    8    9    0     -0.73      0.00
    9    9    0     -0.36      0.00
   10    9    0      0.50      0.00
   11    9    0     -0.54      0.00
   12    9    0     -0.58      0.00
   13    9    0     -0.01      0.00
   14    9    0      0.22      0.00
    0   10    0     -2.76      0.00
    1   10    0     -2.18      0.00
    2   10    0     -1.27      0.00
    3   10    0     -0.20      0.00
    4   10    0      0.43      0.00
    5   10    0      0.49      0.00
    6   10    0     -0.38      0.00
    7   10    0     -0.35      0.00
    8   10    0     -0.02      0.00
    9   10    0     -0.41      0.00
   10   10    0      0.35      0.00
   11   10    0      0.45      0.00
   12   10    0      0.83      0.00
   13   10    0      1.17      0.00
   14   10    0      0.95      0.00
    1   11    0     -2.01      0.00
    2   11    0      4.63      0.00
    3   11    0      6.34      0.00
    4   11    0      0.75      0.00
    5   11    0     -1.06      0.00
    6   11    0      0.33      0.00
    7   11    0      0.22      0.00
    8   11    0     -0.80      0.00
    9   11    0     -0.44      0.00
   10   11    0      0.03      0.00
   11   11    0     -0.84      0.00
   12   11    0     -0.97      0.00
   13   11    0     -0.45      0.00
    0   12    0      0.70      0.00
    1   12    0     -0.88      0.00
    2   12    0     -1.19      0.00
    3   12    0      1.02      0.00
    4   12    0      0.38      0.00
    5   12    0     -1.04      0.00
    6   12    0     -1.25      0.00
    7   12    0     -0.52      0.00
    8   12    0     -0.36      0.00
    9   12    0     -0.86      0.00
   10   12    0      0.24      0.00
   11   12    0      0.09      0.00
   12   12    0     -0.02      0.00
   13   12    0      0.92      0.00
    1   13    0      0.26      0.00
    2   13    0      2.67      0.00
    3   13    0      2.88      0.00
    4   13    0      0.85      0.00
    5   13    0      0.09      0.00
    6   13    0      0.21      0.00
    7   13    0     -0.18      0.00
    8   13    0     -0.29      0.00
    9   13    0     -0.57      0.00
   10   13    0     -0.68      0.00
   11   13    0     -0.42      0.00
   12   13    0     -0.49      0.00
   13   13    0     -0.56      0.00
    0   14    0      0.32      0.00
    1   14    0      0.03      0.00
    2   14    0      0.99      0.00
    3   14    0      1.62      0.00
    4   14    0     -0.68      0.00
    5   14    0     -1.45      0.00
    6   14    0     -0.67      0.00
    7   14    0     -0.54      0.00
    8   14    0     -0.74      0.00
    9   14    0     -0.59      0.00
   10   14    0      0.38      0.00
   11   14    0      0.00      0.00
   12   14    0     -0.28      0.00
   13   14    0      0.38      0.00
    1   15    0      0.00      0.00
    2   15    0     -0.21      0.00
    3   15    0      0.81      0.00
    4   15    0      1.22      0.00
    5   15    0     -0.17      0.00
    6   15    0     -0.61      0.00
    7   15    0      0.06      0.00
    8   15    0      0.59      0.00
    9   15    0     -0.56      0.00
   10   15    0     -1.05      0.00
   11   15    0      0.28      0.00
   12   15    0      0.37      0.00
   13   15    0     -0.35      0.00
    0   16    0     -1.36      0.00
    1   16    0      0.00      0.00
    2   16    0      1.41      0.00
    3   16    0      0.13      0.00
    4   16    0     -1.25      0.00
    5   16    0     -0.11      0.00
    6   16    0      0.47      0.00
    7   16    0     -0.61      0.00
    8   16    0     -0.45      0.00
    9   16    0      0.68      0.00
   10   16    0      0.76      0.00
   11   16    0      0.12      0.00
   12   16    0      0.25      0.00
   13   16    0      0.34      0.00
    1   17    0     -0.52      0.00
    2   17    0     -0.80      0.00
    3   17    0      0.60      0.00
    4   17    0      0.94      0.00
    5   17    0     -0.57      0.00
    6   17    0     -0.16      0.00
    7   17    0      0.95      0.00
    8   17    0      0.89      0.00
    9   17    0     -0.43      0.00
   10   17    0     -0.89      0.00
   11   17    0      0.27      0.00
   12   17    0      0.37      0.00
    0   18    0     -1.74      0.00
    1   18    0     -0.26      0.00
    2   18    0      0.35      0.00
    3   18    0     -1.06      0.00
    4   18    0     -0.48      0.00
    5   18    0      1.08      0.00
    6   18    0      0.60      0.00
    7   18    0     -0.76      0.00
    8   18    0      0.02      0.00
    9   18    0      1.27      0.00
   10   18    0      0.27      0.00
   11   18    0     -0.45      0.00
   12   18    0      0.37      0.00
    1   19    0      0.10      0.00
    2   19    0      0.16      0.00
    3   19    0      0.04      0.00
    4   19    0     -0.32      0.00
    5   19    0     -0.43      0.00
    6   19    0      0.71      0.00
    7   19    0      0.79      0.00
    8   19    0     -0.04      0.00
    9   19    0     -0.08      0.00
   10   19    0     -0.16      0.00
   11   19    0     -0.21      0.00
   12   19    0     -0.25      0.00
    0   20    0     -1.12      0.00
    1   20    0     -0.40      0.00
    2   20    0     -0.13      0.00
    3   20    0     -0.32      0.00
    4   20    0      0.49      0.00
    5   20    0      0.70      0.00
    6   20    0      0.09      0.00
    7   20    0     -0.34      0.00
    8   20    0      0.11      0.00
    9   20    0      0.54      0.00
   10   20    0     -0.49      0.00
   11   20    0     -1.02      0.00
   12   20    0     -0.12      0.00
    1   21    0      0.82      0.00
    2   21    0      0.25      0.00
    3   21    0     -1.38      0.00
    4   21    0     -1.13      0.00
    5   21    0      0.06      0.00
    6   21    0      0.53      0.00
    7   21    0     -0.52      0.00
    8   21    0     -0.92      0.00
    9   21    0      0.60      0.00
   10   21    0      0.71      0.00
   11   21    0     -0.30      0.00
    0   22    0     -1.04      0.00
    1   22    0     -0.78      0.00
    2   22    0     -0.02      0.00
    3   22    0      0.63      0.00
    4   22    0      0.18      0.00
    5   22    0     -0.43      0.00
    6   22    0      0.20      0.00
    7   22    0      0.58      0.00
    8   22    0     -0.21      0.00
    9   22    0     -0.38      0.00
   10   22    0     -0.16      0.00
   11   22    0     -0.48      0.00
    1   23    0      0.85      0.00
    2   23    0     -0.50      0.00
    3   23    0     -1.77      0.00
    4   23    0     -0.12      0.00
    5   23    0      0.70      0.00
    6   23    0     -0.11      0.00
    7   23    0     -0.88      0.00
    8   23    0     -0.40      0.00
    9   23    0      0.93      0.00
   10   23    0      0.61      0.00
   11   23    0     -0.12      0.00
    0   24    0     -0.95      0.00
    1   24    0     -0.77      0.00
    2   24    0      0.11      0.00
    3   24    0      0.25      0.00
    4   24    0     -0.96      0.00
    5   24    0     -0.92      0.00
    6   24    0      0.59      0.00
    7   24    0      0.73      0.00
    8   24    0     -0.87      0.00
    9   24    0     -0.75      0.00
   10   24    0      0.62      0.00
    1   25    0      0.59      0.00
    2   25    0     -0.76      0.00
    3   25    0     -0.81      0.00
    4   25    0      1.17      0.00
    5   25    0      0.61      0.00
    6   25    0     -0.40      0.00
    7   25    0      0.07      0.00
    8   25    0      0.59      0.00
    9   25    0      0.21      0.00
   10   25    0     -0.52      0.00
    0   26    0     -0.19      0.00
    1   26    0      0.03      0.00
    2   26    0      0.30      0.00
    3   26    0     -0.67      0.00
    4   26    0     -1.43      0.00
    5   26    0     -0.51      0.00
    6   26    0      0.37      0.00
    7   26    0      0.02      0.00
    8   26    0     -1.06      0.00
    9   26    0     -0.47      0.00
   10   26    0      0.62      0.00
    1   27    0      0.45      0.00
    2   27    0     -0.29      0.00
    3   27    0     -0.06      0.00
    4   27    0      0.76      0.00
    5   27    0     -0.45      0.00
    6   27    0     -0.52      0.00
    7   27    0      0.68      0.00
    8   27    0      0.66      0.00
    9   27    0     -0.63      0.00
    0   28    0      0.08      0.00
    1   28    0      0.43      0.00
    2   28    0      0.41      0.00
    3   28    0     -0.87      0.00
    4   28    0     -0.68      0.00
    5   28    0      0.29      0.00
    6   28    0      0.04      0.00
    7   28    0     -0.11      0.00
    8   28    0     -0.18      0.00
    9   28    0      0.20      0.00
    1   29    0      0.33      0.00
    2   29    0      0.34      0.00
    3   29    0      0.06      0.00
    4   29    0     -0.35      0.00
    5   29    0     -0.99      0.00
    6   29    0     -0.34      0.00
    7   29    0      0.39      0.00
    8   29    0      0.13      0.00
    0   30    0     -0.44      0.00
    1   30    0     -0.03      0.00
    2   30    0      0.30      0.00
    3   30    0     -0.31      0.00
    4   30    0      0.41      0.00
    5   30    0      0.93      0.00
    6   30    0      0.24      0.00
    7   30    0      0.53      0.00
    8   30    0      0.60      0.00
    1   31    0     -0.05      0.00
    2   31    0      0.45      0.00
    3   31    0      0.00      0.00
    4   31    0     -0.62      0.00
    5   31    0     -0.34      0.00
    6   31    0      0.13      0.00
    7   31    0     -0.04      0.00
    0   32    0     -0.46      0.00
    1   32    0     -0.36      0.00
    2   32    0      0.07      0.00
    3   32    0      0.05      0.00
    4   32    0      0.71      0.00
    5   32    0      0.99      0.00
    6   32    0      0.46      0.00
    1   33    0     -0.54      0.00
    2   33    0     -0.05      0.00
    3   33    0     -0.23      0.00
    4   33    0     -0.50      0.00
    5   33    0      0.18      0.00
    0   34    0      0.09      0.00
    1   34    0     -0.30      0.00
    2   34    0     -0.34      0.00
    3   34    0     -0.31      0.00
    4   34    0      0.17      0.00
    1   35    0     -0.52      0.00
    2   35    0     -0.33      0.00
    3   35    0     -0.35      0.00
  -14    0    1     -0.07      0.00
  -13    0    1     -0.13      0.00
  -12    0    1     -0.42      0.00
  -11    0    1      0.21      0.00
  -10    0    1      0.48      0.00
   -9    0    1     -0.47      0.00
   -8    0    1     -0.19      0.00
   -7    0    1      1.54      0.00
   -6    0    1      5.46      0.00
   -5    0    1      5.59      0.00
   -4    0    1      0.67      0.00
   -3    0    1     -1.44      0.00
   -2    0    1      1.83      0.00
   -1    0    1    -11.63      0.00
    2    0    1      7.42      0.00
    3    0    1      8.86      0.00
    4    0    1      0.45      0.00
    5    0    1      0.68      0.00
    6    0    1      3.40      0.00
    7    0    1      1.82      0.00
    8    0    1     -0.05      0.00
    9    0    1     -0.87      0.00
   10    0    1     -0.72      0.00
   11    0    1      0.80      0.00
   12    0    1      1.25      0.00
   13    0    1     -0.50      0.00
   14    0    1     -1.11      0.00
  -14    1    1     -0.29      0.00
  -13    1    1     -0.23      0.00
  -12    1    1      0.25      0.00
  -11    1    1      0.52      0.00
  -10    1    1      0.42      0.00
   -9    1    1      0.19      0.00
   -8    1    1      0.12      0.00
   -7    1    1      0.37      0.00
   -6    1    1      0.53      0.00
   -5    1    1      0.04      0.00
   -4    1    1     -1.48      0.00
   -3    1    1     -2.43      0.00
   -2    1    1     -0.19      0.00
   -1    1    1      3.53      0.00
    1    1    1     -5.11      0.00
    2    1    1     -1.47      0.00
    3    1    1      2.92      0.00
    4    1    1      1.94      0.00
    5    1    1      0.03      0.00
    6    1    1     -0.12      0.00
    7    1    1     -0.11      0.00
    8    1    1     -0.29      0.00
    9    1    1     -0.03      0.00
   10    1    1     -0.03      0.00
   11    1    1     -0.52      0.00
   12    1    1     -0.26      0.00
   13    1    1      0.57      0.00
   14    1    1      0.36      0.00
  -14    2    1      0.55      0.00
  -13    2    1      0.28      0.00
  -12    2    1     -0.42      0.00
  -11    2    1      0.06      0.00
  -10    2    1      0.45      0.00
   -9    2    1     -0.34      0.00
   -8    2    1     -0.42      0.00
   -7    2    1      0.49      0.00
   -6    2    1      4.21      0.00
   -5    2    1      5.34      0.00
   -4    2    1      1.12      0.00
   -3    2    1     -2.16      0.00
   -2    2    1      0.32      0.00
   -1    2    1     -7.28      0.00
    1    2    1    -15.57      0.00
    2    2    1      5.47      0.00
    3    2    1      7.00      0.00
    4    2    1      1.51      0.00
    5    2    1      1.13      0.00
    6    2    1      2.33      0.00
    7    2    1      1.05      0.00
    8    2    1     -0.14      0.00
    9    2    1     -0.89      0.00
   10    2    1     -0.68      0.00
   11    2    1      0.76      0.00
   12    2    1      0.97      0.00
   13    2    1     -0.22      0.00
   14    2    1     -0.42      0.00
  -14    3    1     -0.54      0.00
  -13    3    1     -0.54      0.00
  -12    3    1      0.39      0.00
  -11    3    1      0.86      0.00
  -10    3    1      0.72      0.00
   -9    3    1      0.38      0.00
   -8    3    1      0.31      0.00
   -7    3    1      0.80      0.00
   -6    3    1      0.98      0.00
   -5    3    1      0.42      0.00
   -4    3    1     -1.91      0.00
   -3    3    1     -3.84      0.00
   -2    3    1     -0.46      0.00
   -1    3    1      6.56      0.00
    0    3    1     -0.08      0.00
    1    3    1    -10.24      0.00
    2    3    1     -2.98      0.00
    3    3    1      4.99      0.00
    4    3    1      3.04      0.00
    5    3    1     -0.02      0.00
    6    3    1     -0.14      0.00
    7    3    1     -0.58      0.00
    8    3    1     -0.80      0.00
    9    3    1      0.15      0.00
   10    3    1      0.07      0.00
   11    3    1     -1.05      0.00
   12    3    1     -0.47      0.00
   13    3    1      1.33      0.00
   14    3    1      0.83      0.00
  -14    4    1      1.56      0.00
  -13    4    1      0.98      0.00
  -12    4    1     -0.35      0.00
  -11    4    1     -0.07      0.00
  -10    4    1      0.51      0.00
   -9    4    1      0.20      0.00
   -8    4    1     -0.33      0.00
   -7    4    1     -0.95      0.00
   -6    4    1      1.71      0.00
   -5    4    1      4.12      0.00
   -4    4    1      1.75      0.00
   -3    4    1     -3.07      0.00
   -2    4    1     -2.89      0.00
   -1    4    1     -0.02      0.00
    0    4    1     -3.02      0.00
    1    4    1     -3.01      0.00
    2    4    1      0.93      0.00
    3    4    1      2.68      0.00
    4    4    1      2.84      0.00
    5    4    1      1.39      0.00
    6    4    1      0.11      0.00
    7    4    1     -0.17      0.00
    8    4    1      0.00      0.00
    9    4    1     -0.56      0.00
   10    4    1     -0.24      0.00
   11    4    1      0.83      0.00
   12    4    1      0.37      0.00
   13    4    1      0.30      0.00
   14    4    1      0.92      0.00
  -14    5    1     -0.12      0.00
  -13    5    1     -0.39      0.00
  -12    5    1      0.10      0.00
  -11    5    1      0.31      0.00
  -10    5    1      0.45      0.00
   -9    5    1      0.29      0.00
   -8    5    1      0.23      0.00
   -7    5    1      0.49      0.00
   -6    5    1      0.07      0.00
   -5    5    1      0.48      0.00
   -4    5    1      0.74      0.00
   -3    5    1      0.17      0.00
   -2    5    1     -0.17      0.00
   -1    5    1      2.44      0.00
    0    5    1     -1.13      0.00
    1    5    1     -6.30      0.00
    2    5    1     -2.00      0.00
    3    5    1      0.84      0.00
    4    5    1      0.28      0.00
    5    5    1      0.65      0.00
    6    5    1      0.68      0.00
    7    5    1     -1.06      0.00
    8    5    1     -0.88      0.00
    9    5    1      0.64      0.00
   10    5    1      0.22      0.00
   11    5    1     -0.76      0.00
   12    5    1     -0.31      0.00
   13    5    1      1.11      0.00
   14    5    1      0.66      0.00
  -14    6    1      1.50      0.00
  -13    6    1      0.89      0.00
  -12    6    1     -0.39      0.00
  -11    6    1     -0.13      0.00
  -10    6    1      0.34      0.00
   -9    6    1      0.64      0.00
   -8    6    1      0.44      0.00
   -7    6    1     -0.81      0.00
   -6    6    1     -0.17      0.00
   -5    6    1      1.53      0.00
   -4    6    1      1.47      0.00
   -3    6    1     -2.04      0.00
   -2    6    1     -4.22      0.00
   -1    6    1      2.46      0.00
    0    6    1      8.89      0.00
    1    6    1      4.40      0.00
    2    6    1     -2.00      0.00
    3    6    1     -0.70      0.00
    4    6    1      2.10      0.00
    5    6    1      0.37      0.00
    6    6    1     -1.19      0.00
    7    6    1     -0.39      0.00
    8    6    1      0.27      0.00
    9    6    1      0.04      0.00
   10    6    1      0.39      0.00
   11    6    1      0.79      0.00
   12    6    1     -0.36      0.00
   13    6    1      0.24      0.00
   14    6    1      1.41      0.00
  -14    7    1      0.53      0.00
  -13    7    1     -0.05      0.00
  -12    7    1     -0.25      0.00
  -11    7    1     -0.19      0.00
  -10    7    1      0.45      0.00
   -9    7    1      0.18      0.00
   -8    7    1     -0.32      0.00
   -7    7    1     -0.22      0.00
   -6    7    1     -1.04      0.00
   -5    7    1     -0.44      0.00
   -4    7    1      2.12      0.00
   -3    7    1      4.92      0.00
   -2    7    1      1.73      0.00
   -1    7    1     -3.32      0.00
    0    7    1     -2.97      0.00
    1    7    1      0.34      0.00
    2    7    1     -0.59      0.00
    3    7    1     -4.73      0.00
    4    7    1     -2.26      0.00
    5    7    1      2.30      0.00
    6    7    1      1.89      0.00
    7    7    1     -1.05      0.00
    8    7    1     -0.44      0.00
    9    7    1      0.94      0.00
   10    7    1      0.02      0.00
   11    7    1     -0.17      0.00
   12    7    1     -0.02      0.00
   13    7    1      0.17      0.00
   14    7    1      0.10      0.00
  -14    8    1      0.19      0.00
  -13    8    1     -0.23      0.00
  -12    8    1     -0.71      0.00
  -11    8    1     -0.34      0.00
  -10    8    1     -0.38      0.00
   -9    8    1      0.27      0.00
   -8    8    1      0.76      0.00
   -7    8    1      0.14      0.00
   -6    8    1     -0.79      0.00
   -5    8    1     -1.09      0.00
   -4    8    1      0.45      0.00
   -3    8    1      0.56      0.00
   -2    8    1     -1.74      0.00
   -1    8    1      1.22      0.00
    0    8    1      7.39      0.00
    1    8    1      5.24      0.00
    2    8    1     -0.32      0.00
    3    8    1     -1.05      0.00
    4    8    1     -0.05      0.00
    5    8    1     -0.70      0.00
    6    8    1     -0.49      0.00
    7    8    1      0.21      0.00
    8    8    1     -0.09      0.00
    9    8    1      0.18      0.00
   10    8    1      0.44      0.00
   11    8    1      0.19      0.00
   12    8    1     -1.06      0.00
   13    8    1     -0.63      0.00
  -14    9    1      0.62      0.00
  -13    9    1     -0.25      0.00
  -12    9    1     -0.84      0.00
  -11    9    1     -0.48      0.00
  -10    9    1      0.62      0.00
   -9    9    1     -0.06      0.00
   -8    9    1     -1.15      0.00
   -7    9    1     -0.47      0.00
   -6    9    1     -0.34      0.00
   -5    9    1     -0.76      0.00
   -4    9    1      0.89      0.00
   -3    9    1      6.52      0.00
   -2    9    1      5.27      0.00
   -1    9    1     -4.04      0.00
    0    9    1     -4.31      0.00
    1    9    1      2.36      0.00
    2    9    1     -0.73      0.00
    3    9    1     -6.72      0.00
    4    9    1     -2.64      0.00
    5    9    1      2.57      0.00
    6    9    1      1.74      0.00
    7    9    1     -0.76      0.00
    8    9    1     -0.04      0.00
    9    9    1      0.63      0.00
   10    9    1     -0.22      0.00
   11    9    1      0.54      0.00
   12    9    1      0.51      0.00
   13    9    1     -0.31      0.00
  -14   10    1     -1.00      0.00
  -13   10    1     -1.14      0.00
  -12   10    1     -0.72      0.00
  -11   10    1     -0.28      0.00
  -10   10    1     -0.74      0.00
   -9   10    1      0.01      0.00
   -8   10    1      0.59      0.00
   -7   10    1      0.64      0.00
   -6   10    1     -0.28      0.00
   -5   10    1     -1.40      0.00
   -4   10    1     -0.07      0.00
   -3   10    1      1.61      0.00
   -2   10    1      1.18      0.00
   -1   10    1      0.40      0.00
    0   10    1      1.89      0.00
    1   10    1      3.33      0.00
    2   10    1      2.47      0.00
    3   10    1     -0.50      0.00
    4   10    1     -1.53      0.00
    5   10    1     -0.30      0.00
    6   10    1      1.21      0.00
    7   10    1      0.78      0.00
    8   10    1     -0.57      0.00
    9   10    1      0.26      0.00
   10   10    1      0.20      0.00
   11   10    1     -0.34      0.00
   12   10    1     -0.93      0.00
   13   10    1     -1.15      0.00
  -14   11    1      0.30      0.00
  -13   11    1     -0.73      0.00
  -12   11    1     -1.31      0.00
  -11   11    1     -0.64      0.00
  -10   11    1      0.38      0.00
   -9   11    1     -0.48      0.00
   -8   11    1     -1.64      0.00
   -7   11    1     -0.35      0.00
   -6   11    1      1.32      0.00
   -5   11    1      0.21      0.00
   -4   11    1     -0.48      0.00
   -3   11    1      4.97      0.00
   -2   11    1      7.17      0.00
   -1   11    1     -0.74      0.00
    0   11    1     -4.07      0.00
    1   11    1      0.11      0.00
    2   11    1     -1.29      0.00
    3   11    1     -4.68      0.00
    4   11    1     -2.21      0.00
    5   11    1      0.64      0.00
    6   11    1      0.60      0.00
    7   11    1     -0.08      0.00
    8   11    1      0.04      0.00
    9   11    1      0.09      0.00
   10   11    1      0.11      0.00
   11   11    1      1.08      0.00
   12   11    1      0.91      0.00
   13   11    1     -0.03      0.00
  -13   12    1     -0.97      0.00
  -12   12    1     -0.22      0.00
  -11   12    1      0.13      0.00
  -10   12    1     -0.29      0.00
   -9   12    1      0.60      0.00
   -8   12    1      0.78      0.00
   -7   12    1      0.62      0.00
   -6   12    1      0.55      0.00
   -5   12    1      0.48      0.00
   -4   12    1      0.52      0.00
   -3   12    1      0.05      0.00
   -2   12    1      0.76      0.00
   -1   12    1      0.40      0.00
    0   12    1     -0.77      0.00
    1   12    1      0.79      0.00
    2   12    1      1.55      0.00
    3   12    1     -1.25      0.00
    4   12    1     -1.27      0.00
    5   12    1      0.85      0.00
    6   12    1      1.74      0.00
    7   12    1      0.93      0.00
    8   12    1     -0.08      0.00
    9   12    1      0.73      0.00
   10   12    1      0.10      0.00
   11   12    1     -0.28      0.00
   12   12    1      0.03      0.00
   13   12    1     -0.62      0.00
  -13   13    1     -0.62      0.00
  -12   13    1     -0.83      0.00
  -11   13    1     -0.31      0.00
  -10   13    1     -0.11      0.00
   -9   13    1     -0.68      0.00
   -8   13    1     -1.16      0.00
   -7   13    1     -0.26      0.00
   -6   13    1      1.41      0.00
   -5   13    1      0.66      0.00
   -4   13    1     -0.43      0.00
   -3   13    1      2.38      0.00
   -2   13    1      4.66      0.00
   -1   13    1      0.98      0.00
    0   13    1     -2.56      0.00
    1   13    1     -1.42      0.00
    2   13    1     -0.47      0.00
    3   13    1     -1.44      0.00
    4   13    1     -1.82      0.00
    5   13    1     -0.80      0.00
    6   13    1      0.53      0.00
    7   13    1      0.89      0.00
    8   13    1     -0.12      0.00
    9   13    1     -0.15      0.00
   10   13    1      0.79      0.00
   11   13    1      0.86      0.00
   12   13    1      0.39      0.00
   13   13    1      0.17      0.00
  -13   14    1     -0.44      0.00
  -12   14    1     -0.03      0.00
  -11   14    1      0.15      0.00
  -10   14    1     -0.14      0.00
   -9   14    1      0.70      0.00
   -8   14    1      0.83      0.00
   -7   14    1      0.30      0.00
   -6   14    1      0.52      0.00
   -5   14    1      1.63      0.00
   -4   14    1      1.31      0.00
   -3   14    1     -1.18      0.00
   -2   14    1     -1.11      0.00
   -1   14    1      0.35      0.00
    0   14    1     -0.12      0.00
    1   14    1     -0.71      0.00
    2   14    1     -1.26      0.00
    3   14    1     -1.63      0.00
    4   14    1      0.37      0.00
    5   14    1      1.06      0.00
    6   14    1      0.35      0.00
    7   14    1      0.70      0.00
    8   14    1      0.85      0.00
    9   14    1      0.57      0.00
   10   14    1     -0.46      0.00
   11   14    1     -0.31      0.00
   12   14    1      0.41      0.00
   13   14    1     -0.04      0.00
  -13   15    1     -0.28      0.00
  -12   15    1      0.00      0.00
  -11   15    1      0.19      0.00
  -10   15    1     -0.52      0.00
   -9   15    1     -0.54      0.00
   -8   15    1      0.11      0.00
   -7   15    1      0.24      0.00
   -6   15    1      0.30      0.00
   -5   15    1     -0.02      0.00
   -4   15    1      0.58      0.00
   -3   15    1      0.99      0.00
   -2   15    1      0.42      0.00
   -1   15    1     -0.11      0.00
    0   15    1     -0.75      0.00
    1   15    1     -0.49      0.00
    2   15    1      0.63      0.00
    3   15    1     -0.03      0.00
    4   15    1     -1.33      0.00
    5   15    1     -0.32      0.00
    6   15    1      0.97      0.00
    7   15    1      0.71      0.00
    8   15    1     -0.61      0.00
    9   15    1     -0.07      0.00
   10   15    1      1.12      0.00
   11   15    1      0.09      0.00
   12   15    1     -0.56      0.00
   13   15    1      0.07      0.00
  -13   16    1     -0.38      0.00
  -12   16    1     -0.33      0.00
  -11   16    1     -0.04      0.00
  -10   16    1     -0.44      0.00
   -9   16    1     -0.33      0.00
   -8   16    1      0.21      0.00
   -7   16    1      0.17      0.00
   -6   16    1     -0.09      0.00
   -5   16    1      0.54      0.00
   -4   16    1      1.00      0.00
   -3   16    1     -0.15      0.00
   -2   16    1     -1.00      0.00
   -1   16    1      0.20      0.00
    0   16    1      1.31      0.00
    1   16    1     -0.19      0.00
    2   16    1     -1.79      0.00
    3   16    1     -0.37      0.00
    4   16    1      1.62      0.00
    5   16    1      0.15      0.00
    6   16    1     -1.26      0.00
    7   16    1      0.44      0.00
    8   16    1      1.11      0.00
    9   16    1     -0.48      0.00
   10   16    1     -1.16      0.00
   11   16    1     -0.40      0.00
   12   16    1     -0.13      0.00
  -13   17    1     -0.52      0.00
  -12   17    1     -0.09      0.00
  -11   17    1      0.10      0.00
  -10   17    1     -0.69      0.00
   -9   17    1     -0.37      0.00
   -8   17    1      0.84      0.00
   -7   17    1      0.92      0.00
   -6   17    1      0.00      0.00
   -5   17    1     -0.47      0.00
   -4   17    1      1.12      0.00
   -3   17    1      0.87      0.00
   -2   17    1     -1.22      0.00
   -1   17    1     -0.84      0.00
    0   17    1      0.50      0.00
    1   17    1      0.58      0.00
    2   17    1      0.23      0.00
    3   17    1     -0.46      0.00
    4   17    1     -0.52      0.00
    5   17    1      0.57      0.00
    6   17    1      0.23      0.00
    7   17    1     -0.74      0.00
    8   17    1     -0.85      0.00
    9   17    1      0.16      0.00
   10   17    1      0.84      0.00
   11   17    1     -0.18      0.00
   12   17    1     -0.67      0.00
  -12   18    1     -0.28      0.00
  -11   18    1      0.48      0.00
  -10   18    1     -0.09      0.00
   -9   18    1     -0.99      0.00
   -8   18    1     -0.31      0.00
   -7   18    1      0.58      0.00
   -6   18    1      0.02      0.00
   -5   18    1     -0.94      0.00
   -4   18    1     -0.28      0.00
   -3   18    1      1.19      0.00
   -2   18    1      0.35      0.00
   -1   18    1     -0.19      0.00
    0   18    1      1.40      0.00
    1   18    1      0.87      0.00
    2   18    1     -0.53      0.00
    3   18    1      0.38      0.00
    4   18    1      1.01      0.00
    5   18    1     -0.52      0.00
    6   18    1     -1.33      0.00
    7   18    1      0.29      0.00
    8   18    1      0.70      0.00
    9   18    1     -0.93      0.00
   10   18    1     -0.70      0.00
   11   18    1      0.27      0.00
   12   18    1     -0.30      0.00
  -12   19    1     -0.69      0.00
  -11   19    1     -0.16      0.00
  -10   19    1     -0.21      0.00
   -9   19    1     -0.06      0.00
   -8   19    1      0.28      0.00
   -7   19    1      0.53      0.00
   -6   19    1      0.32      0.00
   -5   19    1     -0.25      0.00
   -4   19    1      0.26      0.00
   -3   19    1      0.08      0.00
   -2   19    1     -0.53      0.00
   -1   19    1     -0.02      0.00
    0   19    1      0.67      0.00
    1   19    1      0.19      0.00
    2   19    1     -0.68      0.00
    3   19    1     -0.27      0.00
    4   19    1      0.69      0.00
    5   19    1      0.78      0.00
    6   19    1     -0.68      0.00
    7   19    1     -1.17      0.00
    8   19    1     -0.02      0.00
    9   19    1      0.25      0.00
   10   19    1      0.04      0.00
   11   19    1      0.16      0.00
   12   19    1      0.02      0.00
  -12   20    1      0.12      0.00
  -11   20    1      1.01      0.00
  -10   20    1      0.49      0.00
   -9   20    1     -0.62      0.00
   -8   20    1     -0.23      0.00
   -7   20    1      0.77      0.00
   -6   20    1      0.47      0.00
   -5   20    1     -1.02      0.00
   -4   20    1     -1.03      0.00
   -3   20    1      0.94      0.00
   -2   20    1      0.73      0.00
   -1   20    1     -0.34      0.00
    0   20    1      0.79      0.00
    1   20    1      1.21      0.00
    2   20    1      0.17      0.00
    3   20    1     -0.51      0.00
    4   20    1     -0.41      0.00
    5   20    1     -0.13      0.00
    6   20    1     -0.44      0.00
    7   20    1     -0.25      0.00
    8   20    1      0.13      0.00
    9   20    1     -0.20      0.00
   10   20    1      0.35      0.00
   11   20    1      0.93      0.00
  -12   21    1     -0.67      0.00
  -11   21    1      0.09      0.00
  -10   21    1      0.60      0.00
   -9   21    1      0.55      0.00
   -8   21    1     -0.41      0.00
   -7   21    1     -0.63      0.00
   -6   21    1      0.22      0.00
   -5   21    1      0.25      0.00
   -4   21    1     -0.68      0.00
   -3   21    1     -1.41      0.00
   -2   21    1     -0.19      0.00
   -1   21    1      0.72      0.00
    0   21    1      0.16      0.00
    1   21    1     -0.67      0.00
    2   21    1     -0.45      0.00
    3   21    1      1.12      0.00
    4   21    1      1.25      0.00
    5   21    1      0.29      0.00
    6   21    1     -0.36      0.00
    7   21    1      0.04      0.00
    8   21    1      0.93      0.00
    9   21    1     -0.16      0.00
   10   21    1     -0.81      0.00
   11   21    1      0.38      0.00
  -11   22    1      0.52      0.00
  -10   22    1      0.09      0.00
   -9   22    1     -0.12      0.00
   -8   22    1      0.25      0.00
   -7   22    1      0.32      0.00
   -6   22    1      0.10      0.00
   -5   22    1     -0.27      0.00
   -4   22    1     -0.37      0.00
   -3   22    1      0.10      0.00
   -2   22    1      0.18      0.00
   -1   22    1      0.29      0.00
    0   22    1      0.92      0.00
    1   22    1      1.17      0.00
    2   22    1      0.24      0.00
    3   22    1     -1.08      0.00
    4   22    1     -0.55      0.00
    5   22    1      0.71      0.00
    6   22    1     -0.05      0.00
    7   22    1     -1.04      0.00
    8   22    1     -0.10      0.00
    9   22    1      0.74      0.00
   10   22    1      0.41      0.00
   11   22    1      0.38      0.00
  -11   23    1      0.38      0.00
  -10   23    1      0.46      0.00
   -9   23    1      0.60      0.00
   -8   23    1     -0.10      0.00
   -7   23    1     -0.74      0.00
   -6   23    1      0.03      0.00
   -5   23    1      0.73      0.00
   -4   23    1     -0.03      0.00
   -3   23    1     -1.51      0.00
   -2   23    1     -0.61      0.00
   -1   23    1      0.59      0.00
    0   23    1     -0.01      0.00
    1   23    1     -0.78      0.00
    2   23    1      0.34      0.00
    3   23    1      1.81      0.00
    4   23    1      0.28      0.00
    5   23    1     -0.62      0.00
    6   23    1      0.26      0.00
    7   23    1      0.69      0.00
    8   23    1      0.53      0.00
    9   23    1     -0.70      0.00
   10   23    1     -0.81      0.00
  -11   24    1     -0.13      0.00
  -10   24    1     -0.61      0.00
   -9   24    1      0.04      0.00
   -8   24    1      0.95      0.00
   -7   24    1      0.27      0.00
   -6   24    1     -0.46      0.00
   -5   24    1      0.17      0.00
   -4   24    1      0.87      0.00
   -3   24    1      0.14      0.00
   -2   24    1     -0.29      0.00
   -1   24    1      0.64      0.00
    0   24    1      0.99      0.00
    1   24    1      0.74      0.00
    2   24    1      0.20      0.00
    3   24    1     -0.24      0.00
    4   24    1      0.50      0.00
    5   24    1      0.97      0.00
    6   24    1     -0.14      0.00
    7   24    1     -1.04      0.00
    8   24    1      0.23      0.00
    9   24    1      1.16      0.00
   10   24    1     -0.14      0.00
  -10   25    1     -0.69      0.00
   -9   25    1     -0.41      0.00
   -8   25    1      0.41      0.00
   -7   25    1      0.26      0.00
   -6   25    1      0.04      0.00
   -5   25    1      0.44      0.00
   -4   25    1      0.95      0.00
   -3   25    1     -0.26      0.00
   -2   25    1     -0.78      0.00
   -1   25    1      0.21      0.00
    0   25    1      0.41      0.00
    1   25    1     -0.35      0.00
    2   25    1      0.40      0.00
    3   25    1      1.15      0.00
    4   25    1     -0.79      0.00
    5   25    1     -0.90      0.00
    6   25    1      0.34      0.00
    7   25    1      0.03      0.00
    8   25    1     -0.51      0.00
    9   25    1     -0.52      0.00
   10   25    1      0.17      0.00
  -10   26    1     -0.51      0.00
   -9   26    1     -0.12      0.00
   -8   26    1      1.10      0.00
   -7   26    1      0.74      0.00
   -6   26    1     -0.23      0.00
   -5   26    1      0.13      0.00
   -4   26    1      1.30      0.00
   -3   26    1      0.75      0.00
   -2   26    1     -0.43      0.00
   -1   26    1     -0.05      0.00
    0   26    1      0.20      0.00
    1   26    1     -0.04      0.00
    2   26    1     -0.07      0.00
    3   26    1      0.69      0.00
    4   26    1      1.11      0.00
    5   26    1      0.51      0.00
    6   26    1      0.00      0.00
    7   26    1     -0.33      0.00
    8   26    1      0.43      0.00
    9   26    1      0.90      0.00
   -9   27    1     -1.23      0.00
   -8   27    1      0.22      0.00
   -7   27    1      0.76      0.00
   -6   27    1     -0.04      0.00
   -5   27    1     -0.65      0.00
   -4   27    1      0.48      0.00
   -3   27    1      0.46      0.00
   -2   27    1     -0.44      0.00
   -1   27    1      0.09      0.00
    0   27    1      0.72      0.00
    1   27    1     -0.11      0.00
    2   27    1     -0.23      0.00
    3   27    1      0.41      0.00
    4   27    1     -0.34      0.00
    5   27    1     -0.03      0.00
    6   27    1      0.35      0.00
    7   27    1     -0.44      0.00
    8   27    1     -0.70      0.00
    9   27    1      0.05      0.00
   -9   28    1     -0.49      0.00
   -8   28    1      0.11      0.00
   -7   28    1      0.38      0.00
   -6   28    1      0.10      0.00
   -5   28    1     -0.22      0.00
   -4   28    1      0.52      0.00
   -3   28    1      0.87      0.00
   -2   28    1     -0.25      0.00
   -1   28    1     -0.60      0.00
    0   28    1     -0.21      0.00
    1   28    1     -0.14      0.00
    2   28    1     -0.34      0.00
    3   28    1      0.61      0.00
    4   28    1      0.62      0.00
    5   28    1     -0.20      0.00
    6   28    1      0.12      0.00
    7   28    1     -0.13      0.00
    8   28    1     -0.13      0.00
   -8   29    1     -0.21      0.00
   -7   29    1      0.34      0.00
   -6   29    1      0.00      0.00
   -5   29    1     -1.00      0.00
   -4   29    1     -0.43      0.00
   -3   29    1      0.35      0.00
   -2   29    1      0.18      0.00
   -1   29    1      0.19      0.00
    0   29    1      0.53      0.00
    1   29    1     -0.04      0.00
    2   29    1     -0.67      0.00
    3   29    1      0.10      0.00
    4   29    1      0.59      0.00
    5   29    1      0.67      0.00
    6   29    1      0.33      0.00
    7   29    1     -0.18      0.00
    8   29    1     -0.29      0.00
   -8   30    1     -0.74      0.00
   -7   30    1     -0.72      0.00
   -6   30    1     -0.19      0.00
   -5   30    1     -0.58      0.00
   -4   30    1     -0.54      0.00
   -3   30    1      0.33      0.00
   -2   30    1      0.03      0.00
   -1   30    1     -0.21      0.00
    0   30    1      0.24      0.00
    1   30    1      0.43      0.00
    2   30    1     -0.38      0.00
    3   30    1     -0.09      0.00
    4   30    1     -0.25      0.00
    5   30    1     -0.83      0.00
    6   30    1     -0.21      0.00
    7   30    1     -0.50      0.00
   -7   31    1     -0.23      0.00
   -6   31    1      0.22      0.00
   -5   31    1     -0.15      0.00
   -4   31    1     -0.45      0.00
   -3   31    1      0.06      0.00
   -2   31    1      0.45      0.00
   -1   31    1      0.12      0.00
    0   31    1      0.09      0.00
    1   31    1      0.24      0.00
    2   31    1     -0.37      0.00
    3   31    1     -0.03      0.00
    4   31    1      0.66      0.00
    5   31    1      0.36      0.00
    6   31    1      0.05      0.00
    7   31    1      0.05      0.00
   -6   32    1     -0.44      0.00
   -5   32    1     -0.52      0.00
   -4   32    1     -0.76      0.00
   -3   32    1     -0.02      0.00
   -2   32    1      0.24      0.00
   -1   32    1      0.29      0.00
    0   32    1      0.36      0.00
    1   32    1      0.58      0.00
    2   32    1     -0.22      0.00
    3   32    1     -0.37      0.00
    4   32    1     -0.56      0.00
    5   32    1     -1.11      0.00
    6   32    1     -0.56      0.00
   -5   33    1      0.42      0.00
   -4   33    1     -0.25      0.00
   -3   33    1     -0.35      0.00
   -2   33    1      0.03      0.00
   -1   33    1     -0.26      0.00
    0   33    1     -0.28      0.00
    1   33    1      0.53      0.00
    2   33    1      0.29      0.00
    3   33    1      0.04      0.00
    4   33    1      0.44      0.00
    5   33    1      0.03      0.00
   -4   34    1     -0.21      0.00
   -3   34    1      0.27      0.00
   -2   34    1      0.46      0.00
   -1   34    1      0.39      0.00
    0   34    1     -0.04      0.00
    1   34    1      0.30      0.00
    2   34    1      0.27      0.00
    3   34    1      0.19      0.00
    4   34    1     -0.10      0.00
   -3   35    1     -0.56      0.00
   -2   35    1     -0.30      0.00
   -1   35    1     -0.38      0.00
    0   35    1     -0.43      0.00
    1   35    1      0.34      0.00
    2   35    1      0.49      0.00
  -14    0    2      0.31      0.00
  -13    0    2     -0.54      0.00
  -12    0    2      0.31      0.00
  -11    0    2      0.74      0.00
  -10    0    2     -0.42      0.00
   -9    0    2     -0.26      0.00
   -8    0    2     -0.78      0.00
   -7    0    2     -1.71      0.00
   -6    0    2     -4.03      0.00
   -5    0    2     -5.50      0.00
   -4    0    2     -2.91      0.00
   -3    0    2      3.24      0.00
   -2    0    2      6.26      0.00
   -1    0    2      9.37      0.00
    0    0    2     23.02      0.00
    2    0    2     -2.01      0.00
    3    0    2     -8.99      0.00
    4    0    2     -3.14      0.00
    5    0    2      0.01      0.00
    6    0    2     -1.00      0.00
    7    0    2     -1.11      0.00
    8    0    2     -0.21      0.00
    9    0    2      0.51      0.00
   10    0    2      0.55      0.00
   11    0    2     -0.39      0.00
   12    0    2     -1.03      0.00
   13    0    2      0.26      0.00
   14    0    2      1.03      0.00
  -14    1    2      0.36      0.00
  -13    1    2      0.11      0.00
  -12    1    2     -0.39      0.00
  -11    1    2     -0.43      0.00
  -10    1    2     -0.41      0.00
   -9    1    2     -0.32      0.00
   -8    1    2     -0.06      0.00
   -7    1    2     -0.53      0.00
   -6    1    2     -0.96      0.00
   -5    1    2      0.05      0.00
   -4    1    2      1.72      0.00
   -3    1    2      1.65      0.00
   -2    1    2      0.23      0.00
   -1    1    2     -1.27      0.00
    0    1    2      0.72      0.00
    1    1    2      3.84      0.00
    2    1    2      1.32      0.00
    3    1    2     -2.12      0.00
    4    1    2     -1.72      0.00
    5    1    2     -0.29      0.00
    6    1    2     -0.09      0.00
    7    1    2     -0.04      0.00
    8    1    2      0.31      0.00
    9    1    2      0.20      0.00
   10    1    2     -0.07      0.00
   11    1    2      0.14      0.00
   12    1    2      0.19      0.00
   13    1    2     -0.38      0.00
   14    1    2     -0.38      0.00
  -14    2    2     -0.31      0.00
  -13    2    2     -0.77      0.00
  -12    2    2      0.25      0.00
  -11    2    2      0.74      0.00
  -10    2    2     -0.36      0.00
   -9    2    2     -0.41      0.00
   -8    2    2     -0.52      0.00
   -7    2    2     -0.53      0.00
   -6    2    2     -2.97      0.00
   -5    2    2     -5.36      0.00
   -4    2    2     -2.58      0.00
   -3    2    2      4.15      0.00
   -2    2    2      6.32      0.00
   -1    2    2      5.57      0.00
    1    2    2     13.68      0.00
    2    2    2     -1.51      0.00
    3    2    2     -7.41      0.00
    4    2    2     -3.64      0.00
    5    2    2     -0.52      0.00
    6    2    2     -0.35      0.00
    7    2    2     -0.57      0.00
    8    2    2     -0.30      0.00
    9    2    2      0.50      0.00
   10    2    2      0.68      0.00
   11    2    2     -0.41      0.00
   12    2    2     -0.92      0.00
   13    2    2      0.13      0.00
   14    2    2      0.56      0.00
  -14    3    2      0.68      0.00
  -13    3    2      0.26      0.00
  -12    3    2     -0.68      0.00
  -11    3    2     -0.64      0.00
  -10    3    2     -0.61      0.00
   -9    3    2     -0.61      0.00
   -8    3    2     -0.20      0.00
   -7    3    2     -1.11      0.00
   -6    3    2     -1.84      0.00
   -5    3    2     -0.29      0.00
   -4    3    2      2.41      0.00
   -3    3    2      2.34      0.00
   -2    3    2      0.66      0.00
   -1    3    2     -1.67      0.00
    0    3    2      1.89      0.00
    1    3    2      7.64      0.00
    2    3    2      2.49      0.00
    3    3    2     -3.60      0.00
    4    3    2     -2.65      0.00
    5    3    2     -0.50      0.00
    6    3    2     -0.31      0.00
    7    3    2      0.29      0.00
    8    3    2      0.96      0.00
    9    3    2      0.24      0.00
   10    3    2     -0.33      0.00
   11    3    2      0.24      0.00
   12    3    2      0.36      0.00
   13    3    2     -0.90      0.00
   14    3    2     -0.88      0.00
  -14    4    2     -1.32      0.00
  -13    4    2     -1.10      0.00
  -12    4    2      0.09      0.00
  -11    4    2      0.57      0.00
  -10    4    2     -0.31      0.00
   -9    4    2     -0.86      0.00
   -8    4    2     -0.53      0.00
   -7    4    2      1.05      0.00
   -6    4    2     -1.06      0.00
   -5    4    2     -4.46      0.00
   -4    4    2     -1.69      0.00
   -3    4    2      5.06      0.00
   -2    4    2      5.97      0.00
   -1    4    2     -0.61      0.00
    0    4    2     -0.75      0.00
    1    4    2      2.47      0.00
    2    4    2     -0.15      0.00
    3    4    2     -3.48      0.00
    4    4    2     -3.54      0.00
    5    4    2     -0.83      0.00
    6    4    2      1.02      0.00
    7    4    2      0.28      0.00
    8    4    2     -0.65      0.00
    9    4    2      0.21      0.00
   10    4    2      0.57      0.00
   11    4    2     -0.65      0.00
   12    4    2     -0.72      0.00
   13    4    2     -0.12      0.00
  -14    5    2      0.16      0.00
  -13    5    2      0.10      0.00
  -12    5    2     -0.30      0.00
  -11    5    2     -0.07      0.00
  -10    5    2     -0.19      0.00
   -9    5    2     -0.48      0.00
   -8    5    2     -0.25      0.00
   -7    5    2     -0.67      0.00
   -6    5    2     -0.66      0.00
   -5    5    2     -0.75      0.00
   -4    5    2     -0.53      0.00
   -3    5    2     -0.64      0.00
   -2    5    2      0.75      0.00
   -1    5    2      1.36      0.00
    0    5    2      3.07      0.00
    1    5    2      5.05      0.00
    2    5    2      1.26      0.00
    3    5    2     -0.68      0.00
    4    5    2     -0.04      0.00
    5    5    2     -0.79      0.00
    6    5    2     -1.12      0.00
    7    5    2      0.83      0.00
    8    5    2      1.30      0.00
    9    5    2     -0.38      0.00
   10    5    2     -0.64      0.00
   11    5    2      0.13      0.00
   12    5    2      0.24      0.00
   13    5    2     -0.73      0.00
  -14    6    2     -1.33      0.00
  -13    6    2     -0.76      0.00
  -12    6    2      0.11      0.00
  -11    6    2      0.31      0.00
  -10    6    2     -0.05      0.00
   -9    6    2     -0.91      0.00
   -8    6    2     -1.06      0.00
   -7    6    2      0.76      0.00
   -6    6    2      0.12      0.00
   -5    6    2     -1.98      0.00
   -4    6    2     -0.41      0.00
   -3    6    2      3.25      0.00
   -2    6    2      3.89      0.00
   -1    6    2     -2.23      0.00
    0    6    2     -7.41      0.00
    1    6    2     -4.13      0.00
    2    6    2      0.26      0.00
    3    6    2     -0.07      0.00
    4    6    2     -1.37      0.00
    5    6    2      0.21      0.00
    6    6    2      1.61      0.00
    7    6    2      0.23      0.00
    8    6    2     -0.85      0.00
    9    6    2     -0.16      0.00
   10    6    2      0.04      0.00
   11    6    2     -0.88      0.00
   12    6    2     -0.26      0.00
   13    6    2      0.05      0.00
  -14    7    2     -0.65      0.00
  -13    7    2     -0.14      0.00
  -12    7    2      0.27      0.00
  -11    7    2      0.31      0.00
  -10    7    2     -0.17      0.00
   -9    7    2     -0.31      0.00
   -8    7    2      0.13      0.00
   -7    7    2      0.31      0.00
   -6    7    2      0.90      0.00
   -5    7    2     -0.68      0.00
   -4    7    2     -2.55      0.00
   -3    7    2     -3.39      0.00
   -2    7    2     -0.68      0.00
   -1    7    2      3.83      0.00
    0    7    2      4.65      0.00
    1    7    2      1.36      0.00
    2    7    2     -0.35      0.00
    3    7    2      2.81      0.00
    4    7    2      2.41      0.00
    5    7    2     -1.57      0.00
    6    7    2     -2.19      0.00
    7    7    2      0.88      0.00
    8    7    2      1.08      0.00
    9    7    2     -0.96      0.00
   10    7    2     -0.55      0.00
   11    7    2     -0.02      0.00
   12    7    2     -0.04      0.00
   13    7    2     -0.02      0.00
  -14    8    2     -0.22      0.00
  -13    8    2      0.27      0.00
  -12    8    2      0.51      0.00
  -11    8    2      0.27      0.00
  -10    8    2      0.53      0.00
   -9    8    2     -0.05      0.00
   -8    8    2     -1.00      0.00
   -7    8    2     -0.48      0.00
   -6    8    2      0.49      0.00
   -5    8    2      1.18      0.00
   -4    8    2      0.73      0.00
   -3    8    2     -0.52      0.00
   -2    8    2      0.18      0.00
   -1    8    2     -0.35      0.00
    0    8    2     -4.39      0.00
    1    8    2     -4.93      0.00
    2    8    2     -1.90      0.00
    3    8    2      0.56      0.00
    4    8    2      1.20      0.00
    5    8    2      1.15      0.00
    6    8    2      0.45      0.00
    7    8    2     -0.68      0.00
    8    8    2     -0.29      0.00
    9    8    2      0.01      0.00
   10    8    2     -0.25      0.00
   11    8    2     -0.46      0.00
   12    8    2      0.53      0.00
   13    8    2      0.77      0.00
  -14    9    2     -0.83      0.00
  -13    9    2      0.09      0.00
  -12    9    2      0.99      0.00
  -11    9    2      0.52      0.00
  -10    9    2     -0.47      0.00
   -9    9    2     -0.09      0.00
   -8    9    2      1.05      0.00
   -7    9    2      0.97      0.00
   -6    9    2      0.40      0.00
   -5    9    2     -1.06      0.00
   -4    9    2     -1.63      0.00
   -3    9    2     -3.55      0.00
   -2    9    2     -4.15      0.00
   -1    9    2      1.83      0.00
    0    9    2      5.62      0.00
    1    9    2      1.30      0.00
    2    9    2     -0.52      0.00
    3    9    2      3.37      0.00
    4    9    2      2.84      0.00
    5    9    2     -1.15      0.00
    6    9    2     -1.91      0.00
    7    9    2      0.50      0.00
    8    9    2      0.67      0.00
    9    9    2     -0.66      0.00
   10    9    2     -0.14      0.00
   11    9    2     -0.40      0.00
   12    9    2     -0.58      0.00
   13    9    2      0.35      0.00
  -14   10    2      0.78      0.00
  -13   10    2      0.96      0.00
  -12   10    2      0.76      0.00
  -11   10    2      0.16      0.00
  -10   10    2      0.60      0.00
   -9   10    2      0.45      0.00
   -8   10    2     -0.53      0.00
   -7   10    2     -1.12      0.00
   -6   10    2      0.19      0.00
   -5   10    2      2.25      0.00
   -4   10    2      0.74      0.00
   -3   10    2     -2.55      0.00
   -2   10    2     -2.06      0.00
   -1   10    2      0.84      0.00
    0   10    2     -0.06      0.00
    1   10    2     -3.16      0.00
    2   10    2     -3.58      0.00
    3   10    2      0.19      0.00
    4   10    2      2.21      0.00
    5   10    2      0.62      0.00
    6   10    2     -1.31      0.00
    7   10    2     -1.46      0.00
    8   10    2      0.36      0.00
    9   10    2      0.15      0.00
   10   10    2     -0.32      0.00
   11   10    2      0.11      0.00
   12   10    2      0.76      0.00
   13   10    2      1.01      0.00
  -14   11    2     -0.49      0.00
  -13   11    2      0.44      0.00
  -12   11    2      1.40      0.00
  -11   11    2      0.80      0.00
  -10   11    2     -0.42      0.00
   -9   11    2      0.16      0.00
   -8   11    2      1.86      0.00
   -7   11    2      1.21      0.00
   -6   11    2     -1.42      0.00
   -5   11    2     -2.11      0.00
   -4   11    2      0.12      0.00
   -3   11    2     -2.03      0.00
   -2   11    2     -6.58      0.00
   -1   11    2     -2.09      0.00
    0   11    2      5.00      0.00
    1   11    2      3.23      0.00
    2   11    2     -0.09      0.00
    3   11    2      1.38      0.00
    4   11    2      2.31      0.00
    5   11    2      0.78      0.00
    6   11    2     -0.59      0.00
    7   11    2     -0.32      0.00
    8   11    2      0.24      0.00
    9   11    2      0.17      0.00
   10   11    2     -0.03      0.00
   11   11    2     -0.96      0.00
   12   11    2     -1.03      0.00
   13   11    2      0.13      0.00
  -14   12    2      0.76      0.00
  -13   12    2      0.71      0.00
  -12   12    2      0.48      0.00
  -11   12    2     -0.18      0.00
  -10   12    2     -0.02      0.00
   -9   12    2     -0.26      0.00
   -8   12    2     -0.67      0.00
   -7   12    2     -0.96      0.00
   -6   12    2     -0.41      0.00
   -5   12    2      0.42      0.00
   -4   12    2     -0.59      0.00
   -3   12    2     -1.42      0.00
   -2   12    2     -0.86      0.00
   -1   12    2      0.62      0.00
    0   12    2      1.06      0.00
    1   12    2     -0.60      0.00
    2   12    2     -1.45      0.00
    3   12    2      1.09      0.00
    4   12    2      1.47      0.00
    5   12    2     -0.49      0.00
    6   12    2     -1.47      0.00
    7   12    2     -1.32      0.00
    8   12    2     -0.03      0.00
    9   12    2     -0.40      0.00
   10   12    2     -0.33      0.00
   11   12    2      0.28      0.00
   12   12    2      0.10      0.00
   13   12    2      0.28      0.00
  -13   13    2      0.16      0.00
  -12   13    2      0.81      0.00
  -11   13    2      0.71      0.00
  -10   13    2     -0.11      0.00
   -9   13    2      0.04      0.00
   -8   13    2      1.47      0.00
   -7   13    2      1.11      0.00
   -6   13    2     -1.87      0.00
   -5   13    2     -2.17      0.00
   -4   13    2      0.65      0.00
   -3   13    2     -0.53      0.00
   -2   13    2     -4.70      0.00
   -1   13    2     -2.65      0.00
    0   13    2      3.19      0.00
    1   13    2      3.19      0.00
    2   13    2     -0.35      0.00
    3   13    2     -0.51      0.00
    4   13    2      1.63      0.00
    5   13    2      1.64      0.00
    6   13    2     -0.31      0.00
    7   13    2     -1.36      0.00
    8   13    2     -0.14      0.00
    9   13    2      0.61      0.00
   10   13    2     -0.37      0.00
   11   13    2     -1.01      0.00
   12   13    2     -0.60      0.00
   13   13    2      0.01      0.00
  -13   14    2      0.26      0.00
  -12   14    2      0.21      0.00
  -11   14    2     -0.21      0.00
  -10   14    2     -0.11      0.00
   -9   14    2     -0.69      0.00
   -8   14    2     -0.90      0.00
   -7   14    2     -0.27      0.00
   -6   14    2     -0.26      0.00
   -5   14    2     -1.36      0.00
   -4   14    2     -1.69      0.00
   -3   14    2      0.22      0.00
   -2   14    2      1.03      0.00
   -1   14    2      0.07      0.00
    0   14    2      0.00      0.00
    1   14    2      0.90      0.00
    2   14    2      1.62      0.00
    3   14    2      1.75      0.00
    4   14    2     -0.22      0.00
    5   14    2     -0.91      0.00
    6   14    2      0.15      0.00
    7   14    2     -0.43      0.00
    8   14    2     -1.01      0.00
    9   14    2     -0.74      0.00
   10   14    2      0.32      0.00
   11   14    2      0.57      0.00
   12   14    2     -0.22      0.00
  -13   15    2     -0.10      0.00
  -12   15    2      0.08      0.00
  -11   15    2      0.36      0.00
  -10   15    2      0.23      0.00
   -9   15    2     -0.18      0.00
   -8   15    2      0.03      0.00
   -7   15    2      0.33      0.00
   -6   15    2     -0.83      0.00
   -5   15    2     -0.95      0.00
   -4   15    2     -0.21      0.00
   -3   15    2     -0.32      0.00
   -2   15    2     -0.63      0.00
   -1   15    2     -0.14      0.00
    0   15    2      1.04      0.00
    1   15    2      0.86      0.00
    2   15    2     -0.60      0.00
    3   15    2     -0.46      0.00
    4   15    2      0.91      0.00
    5   15    2      0.52      0.00
    6   15    2     -0.73      0.00
    7   15    2     -1.11      0.00
    8   15    2      0.13      0.00
    9   15    2      0.51      0.00
   10   15    2     -0.66      0.00
   11   15    2     -0.41      0.00
   12   15    2      0.40      0.00
  -13   16    2      0.35      0.00
  -12   16    2      0.20      0.00
  -11   16    2     -0.15      0.00
  -10   16    2      0.37      0.00
   -9   16    2      0.03      0.00
   -8   16    2     -0.51      0.00
   -7   16    2      0.19      0.00
   -6   16    2      0.37      0.00
   -5   16    2     -0.85      0.00
   -4   16    2     -1.07      0.00
   -3   16    2      0.08      0.00
   -2   16    2      0.56      0.00
   -1   16    2     -0.16      0.00
    0   16    2     -0.89      0.00
    1   16    2      0.18      0.00
    2   16    2      1.63      0.00
    3   16    2      0.85      0.00
    4   16    2     -1.32      0.00
    5   16    2     -0.64      0.00
    6   16    2      1.48      0.00
    7   16    2      0.31      0.00
    8   16    2     -1.41      0.00
    9   16    2     -0.28      0.00
   10   16    2      1.19      0.00
   11   16    2      0.79      0.00
   12   16    2      0.17      0.00
  -13   17    2      0.46      0.00
  -12   17    2      0.47      0.00
  -11   17    2      0.32      0.00
  -10   17    2      0.44      0.00
   -9   17    2      0.03      0.00
   -8   17    2     -0.86      0.00
   -7   17    2     -0.64      0.00
   -6   17    2     -0.07      0.00
   -5   17    2      0.09      0.00
   -4   17    2     -1.10      0.00
   -3   17    2     -0.86      0.00
   -2   17    2      1.30      0.00
   -1   17    2      1.15      0.00
    0   17    2     -0.65      0.00
    1   17    2     -0.92      0.00
    2   17    2      0.06      0.00
    3   17    2      0.63      0.00
    4   17    2      0.19      0.00
    5   17    2     -0.70      0.00
    6   17    2     -0.27      0.00
    7   17    2      0.56      0.00
    8   17    2      0.76      0.00
    9   17    2      0.14      0.00
   10   17    2     -0.56      0.00
   11   17    2      0.04      0.00
   12   17    2      0.69      0.00
  -12   18    2      0.07      0.00
  -11   18    2     -0.64      0.00
  -10   18    2      0.16      0.00
   -9   18    2      0.61      0.00
   -8   18    2     -0.06      0.00
   -7   18    2     -0.27      0.00
   -6   18    2      0.09      0.00
   -5   18    2      0.50      0.00
   -4   18    2      0.56      0.00
   -3   18    2     -0.88      0.00
   -2   18    2     -1.10      0.00
   -1   18    2      0.21      0.00
    0   18    2     -0.50      0.00
    1   18    2     -1.14      0.00
    2   18    2     -0.09      0.00
    3   18    2      0.31      0.00
    4   18    2     -0.52      0.00
    5   18    2     -0.27      0.00
    6   18    2      1.16      0.00
    7   18    2      0.50      0.00
    8   18    2     -0.96      0.00
    9   18    2      0.11      0.00
   10   18    2      0.90      0.00
   11   18    2      0.08      0.00
   12   18    2      0.21      0.00
  -12   19    2      1.33      0.00
  -11   19    2      0.17      0.00
  -10   19    2     -0.05      0.00
   -9   19    2      0.22      0.00
   -8   19    2     -0.48      0.00
   -7   19    2     -0.60      0.00
   -6   19    2      0.09      0.00
   -5   19    2      0.37      0.00
   -4   19    2     -0.62      0.00
   -3   19    2     -0.29      0.00
   -2   19    2      0.92      0.00
   -1   19    2      0.30      0.00
    0   19    2     -0.95      0.00
    1   19    2     -0.59      0.00
    2   19    2      0.72      0.00
    3   19    2      0.48      0.00
    4   19    2     -0.65      0.00
    5   19    2     -0.86      0.00
    6   19    2      0.29      0.00
    7   19    2      1.20      0.00
    8   19    2      0.47      0.00
    9   19    2     -0.28      0.00
   10   19    2     -0.09      0.00
   11   19    2     -0.05      0.00
  -12   20    2     -0.11      0.00
  -11   20    2     -0.94      0.00
  -10   20    2     -0.45      0.00
   -9   20    2      0.41      0.00
   -8   20    2      0.07      0.00
   -7   20    2     -0.85      0.00
   -6   20    2     -0.72      0.00
   -5   20    2      0.90      0.00
   -4   20    2      1.45      0.00
   -3   20    2     -0.99      0.00
   -2   20    2     -1.53      0.00
   -1   20    2      0.47      0.00
    0   20    2     -0.06      0.00
    1   20    2     -1.49      0.00
    2   20    2     -0.74      0.00
    3   20    2      0.99      0.00
    4   20    2      0.98      0.00
    5   20    2     -0.22      0.00
    6   20    2      0.15      0.00
    7   20    2      0.58      0.00
    8   20    2     -0.15      0.00
    9   20    2     -0.11      0.00
   10   20    2     -0.14      0.00
   11   20    2     -0.75      0.00
  -12   21    2      1.33      0.00
  -11   21    2     -0.43      0.00
  -10   21    2     -0.92      0.00
   -9   21    2     -0.10      0.00
   -8   21    2      0.06      0.00
   -7   21    2      0.16      0.00
   -6   21    2      0.10      0.00
   -5   21    2      0.02      0.00
   -4   21    2      0.30      0.00
   -3   21    2      1.09      0.00
   -2   21    2      0.52      0.00
   -1   21    2     -0.43      0.00
    0   21    2     -0.16      0.00
    1   21    2      0.48      0.00
    2   21    2      0.37      0.00
    3   21    2     -0.96      0.00
    4   21    2     -1.06      0.00
    5   21    2     -0.26      0.00
    6   21    2     -0.07      0.00
    7   21    2      0.07      0.00
    8   21    2     -0.43      0.00
    9   21    2     -0.27      0.00
   10   21    2      0.55      0.00
   11   21    2     -0.21      0.00
  -11   22    2     -0.29      0.00
  -10   22    2     -0.28      0.00
   -9   22    2      0.14      0.00
   -8   22    2     -0.04      0.00
   -7   22    2     -0.79      0.00
   -6   22    2     -0.68      0.00
   -5   22    2      0.67      0.00
   -4   22    2      1.00      0.00
   -3   22    2     -0.48      0.00
   -2   22    2     -0.72      0.00
   -1   22    2     -0.09      0.00
    0   22    2     -0.67      0.00
    1   22    2     -1.23      0.00
    2   22    2     -0.51      0.00
    3   22    2      1.03      0.00
    4   22    2      1.02      0.00
    5   22    2     -0.36      0.00
    6   22    2     -0.22      0.00
    7   22    2      0.69      0.00
    8   22    2      0.32      0.00
    9   22    2     -0.49      0.00
   10   22    2     -0.48      0.00
  -11   23    2     -0.75      0.00
  -10   23    2     -0.68      0.00
   -9   23    2     -0.03      0.00
   -8   23    2     -0.08      0.00
   -7   23    2      0.21      0.00
   -6   23    2     -0.14      0.00
   -5   23    2     -0.61      0.00
   -4   23    2      0.01      0.00
   -3   23    2      1.13      0.00
   -2   23    2      0.54      0.00
   -1   23    2     -0.17      0.00
    0   23    2      0.18      0.00
    1   23    2      0.48      0.00
    2   23    2     -0.27      0.00
    3   23    2     -1.64      0.00
    4   23    2     -0.49      0.00
    5   23    2      0.62      0.00
    6   23    2     -0.26      0.00
    7   23    2     -0.54      0.00
    8   23    2     -0.48      0.00
    9   23    2      0.16      0.00
   10   23    2      0.77      0.00
  -11   24    2      0.32      0.00
  -10   24    2      0.19      0.00
   -9   24    2      0.09      0.00
   -8   24    2     -0.49      0.00
   -7   24    2     -0.85      0.00
   -6   24    2     -0.28      0.00
   -5   24    2      0.38      0.00
   -4   24    2     -0.04      0.00
   -3   24    2     -0.35      0.00
   -2   24    2      0.08      0.00
   -1   24    2     -0.49      0.00
    0   24    2     -1.04      0.00
    1   24    2     -0.64      0.00
    2   24    2     -0.29      0.00
    3   24    2     -0.09      0.00
    4   24    2     -0.15      0.00
    5   24    2     -0.31      0.00
    6   24    2     -0.11      0.00
    7   24    2      0.38      0.00
    8   24    2      0.18      0.00
    9   24    2     -0.75      0.00
   10   24    2     -0.27      0.00
  -10   25    2      0.63      0.00
   -9   25    2      0.96      0.00
   -8   25    2     -0.25      0.00
   -7   25    2     -0.41      0.00
   -6   25    2     -0.42      0.00
   -5   25    2     -0.59      0.00
   -4   25    2     -0.57      0.00
   -3   25    2      0.00      0.00
   -2   25    2      0.44      0.00
   -1   25    2      0.31      0.00
    0   25    2     -0.39      0.00
    1   25    2     -0.34      0.00
    2   25    2     -0.16      0.00
    3   25    2     -0.98      0.00
    4   25    2      0.05      0.00
    5   25    2      0.89      0.00
    6   25    2      0.27      0.00
    7   25    2      0.15      0.00
    8   25    2      0.10      0.00
    9   25    2      0.25      0.00
  -10   26    2      0.09      0.00
   -9   26    2      0.23      0.00
   -8   26    2     -0.65      0.00
   -7   26    2     -1.14      0.00
   -6   26    2     -0.43      0.00
   -5   26    2      0.04      0.00
   -4   26    2     -0.65      0.00
   -3   26    2     -0.62      0.00
   -2   26    2      0.31      0.00
   -1   26    2      0.06      0.00
    0   26    2     -0.20      0.00
    1   26    2      0.04      0.00
    2   26    2     -0.08      0.00
    3   26    2     -0.77      0.00
    4   26    2     -0.80      0.00
    5   26    2     -0.11      0.00
    6   26    2     -0.23      0.00
    7   26    2     -0.05      0.00
    8   26    2      0.09      0.00
    9   26    2     -0.71      0.00
   -9   27    2      1.55      0.00
   -8   27    2      0.03      0.00
   -7   27    2     -0.57      0.00
   -6   27    2     -0.27      0.00
   -5   27    2      0.28      0.00
   -4   27    2     -0.11      0.00
   -3   27    2     -0.52      0.00
   -2   27    2      0.19      0.00
   -1   27    2      0.39      0.00
    0   27    2     -0.85      0.00
    1   27    2     -0.71      0.00
    2   27    2      0.48      0.00
    3   27    2     -0.21      0.00
    4   27    2     -0.39      0.00
    5   27    2      0.13      0.00
    6   27    2      0.47      0.00
    7   27    2      0.54      0.00
    8   27    2      0.17      0.00
    9   27    2     -0.01      0.00
   -9   28    2      0.56      0.00
   -8   28    2      0.17      0.00
   -7   28    2     -0.47      0.00
   -6   28    2     -0.42      0.00
   -5   28    2     -0.09      0.00
   -4   28    2     -0.35      0.00
   -3   28    2     -0.56      0.00
   -2   28    2      0.08      0.00
   -1   28    2      0.50      0.00
    0   28    2      0.46      0.00
    1   28    2      0.00      0.00
    2   28    2      0.09      0.00
    3   28    2     -0.30      0.00
    4   28    2     -0.44      0.00
    5   28    2      0.07      0.00
    6   28    2     -0.36      0.00
    7   28    2      0.13      0.00
    8   28    2      0.55      0.00
   -8   29    2      0.22      0.00
   -7   29    2     -0.08      0.00
   -6   29    2      0.00      0.00
   -5   29    2      0.58      0.00
   -4   29    2      0.40      0.00
   -3   29    2     -0.37      0.00
   -2   29    2     -0.22      0.00
   -1   29    2      0.01      0.00
    0   29    2     -0.64      0.00
    1   29    2     -0.48      0.00
    2   29    2      0.69      0.00
    3   29    2      0.08      0.00
    4   29    2     -0.85      0.00
    5   29    2     -0.51      0.00
    6   29    2      0.12      0.00
    7   29    2      0.13      0.00
   -8   30    2      0.85      0.00
   -7   30    2      0.83      0.00
   -6   30    2      0.22      0.00
   -5   30    2      0.11      0.00
   -4   30    2      0.35      0.00
   -3   30    2     -0.07      0.00
   -2   30    2     -0.23      0.00
   -1   30    2      0.06      0.00
    0   30    2      0.10      0.00
    1   30    2     -0.55      0.00
    2   30    2      0.19      0.00
    3   30    2      0.53      0.00
    4   30    2      0.22      0.00
    5   30    2      0.40      0.00
    6   30    2      0.02      0.00
    7   30    2      0.57      0.00
   -7   31    2      0.40      0.00
   -6   31    2      0.10      0.00
   -5   31    2     -0.09      0.00
   -4   31    2      0.04      0.00
   -3   31    2     -0.17      0.00
   -2   31    2     -0.39      0.00
   -1   31    2     -0.30      0.00
    0   31    2     -0.15      0.00
    1   31    2     -0.32      0.00
    2   31    2      0.14      0.00
    3   31    2      0.14      0.00
    4   31    2     -0.51      0.00
    5   31    2     -0.32      0.00
    6   31    2     -0.13      0.00
   -6   32    2      0.58      0.00
   -5   32    2      0.13      0.00
   -4   32    2      0.50      0.00
   -3   32    2      0.13      0.00
   -2   32    2     -0.42      0.00
   -1   32    2     -0.53      0.00
    0   32    2     -0.27      0.00
    1   32    2     -0.57      0.00
    2   32    2      0.22      0.00
    3   32    2      0.69      0.00
    4   32    2      0.44      0.00
    5   32    2      0.86      0.00
   -5   33    2     -0.46      0.00
   -4   33    2     -0.19      0.00
   -3   33    2      0.24      0.00
   -2   33    2      0.10      0.00
   -1   33    2     -0.06      0.00
    0   33    2      0.29      0.00
    1   33    2     -0.29      0.00
    2   33    2     -0.52      0.00
    3   33    2      0.07      0.00
    4   33    2     -0.14      0.00
    5   33    2     -0.11      0.00
   -4   34    2      0.15      0.00
   -3   34    2     -0.20      0.00
   -2   34    2     -0.56      0.00
   -1   34    2     -0.62      0.00
    0   34    2     -0.16      0.00
    1   34    2     -0.27      0.00
    2   34    2     -0.17      0.00
    3   34    2      0.00      0.00
   -3   35    2      0.58      0.00
   -2   35    2      0.48      0.00
   -1   35    2      0.19      0.00
    0   35    2      0.49      0.00
    1   35    2     -0.01      0.00
    2   35    2     -0.56      0.00
  -14    0    3     -0.90      0.00
  -13    0    3      0.44      0.00
  -12    0    3      0.51      0.00
  -11    0    3     -0.73      0.00
  -10    0    3     -0.13      0.00
   -9    0    3      0.38      0.00
   -8    0    3      1.79      0.00
   -7    0    3      2.49      0.00
   -6    0    3      2.32      0.00
   -5    0    3      3.26      0.00
   -4    0    3      3.43      0.00
   -3    0    3     -1.70      0.00
   -2    0    3    -10.02      0.00
   -1    0    3    -10.67      0.00
    0    0    3    -11.53      0.00
    1    0    3    -11.27      0.00
    2    0    3     -2.19      0.00
    3    0    3      4.68      0.00
    4    0    3      4.12      0.00
    5    0    3      1.15      0.00
    6    0    3     -0.04      0.00
    7    0    3      0.10      0.00
    8    0    3      0.07      0.00
    9    0    3     -0.39      0.00
   10    0    3     -0.13      0.00
   11    0    3      0.34      0.00
   12    0    3      0.29      0.00
   13    0    3     -0.53      0.00
  -14    1    3     -0.32      0.00
  -13    1    3     -0.14      0.00
  -12    1    3      0.41      0.00
  -11    1    3      0.45      0.00
  -10    1    3      0.41      0.00
   -9    1    3      0.38      0.00
   -8    1    3      0.00      0.00
   -7    1    3      0.58      0.00
   -6    1    3      1.36      0.00
   -5    1    3      0.14      0.00
   -4    1    3     -2.04      0.00
   -3    1    3     -1.54      0.00
   -2    1    3      0.13      0.00
   -1    1    3     -0.01      0.00
    0    1    3     -1.86      0.00
    1    1    3     -2.82      0.00
    2    1    3     -0.46      0.00
    3    1    3      1.58      0.00
    4    1    3      1.14      0.00
    5    1    3      0.26      0.00
    6    1    3      0.24      0.00
    7    1    3      0.28      0.00
    8    1    3     -0.18      0.00
    9    1    3     -0.41      0.00
   10    1    3     -0.10      0.00
   11    1    3      0.17      0.00
   12    1    3      0.07      0.00
   13    1    3      0.14      0.00
  -14    2    3     -0.24      0.00
  -13    2    3      0.59      0.00
  -12    2    3      0.43      0.00
  -11    2    3     -0.68      0.00
  -10    2    3     -0.11      0.00
   -9    2    3      0.58      0.00
   -8    2    3      1.55      0.00
   -7    2    3      1.24      0.00
   -6    2    3      1.38      0.00
   -5    2    3      3.42      0.00
   -4    2    3      2.80      0.00
   -3    2    3     -3.23      0.00
   -2    2    3     -9.39      0.00
   -1    2    3     -6.74      0.00
    0    2    3     -5.79      0.00
    1    2    3     -7.33      0.00
    2    2    3     -1.67      0.00
    3    2    3      4.18      0.00
    4    2    3      4.29      0.00
    5    2    3      1.39      0.00
    6    2    3     -0.40      0.00
    7    2    3     -0.18      0.00
    8    2    3      0.34      0.00
    9    2    3     -0.22      0.00
   10    2    3     -0.38      0.00
   11    2    3      0.25      0.00
   12    2    3      0.39      0.00
   13    2    3     -0.37      0.00
  -14    3    3     -0.60      0.00
  -13    3    3     -0.28      0.00
  -12    3    3      0.71      0.00
  -11    3    3      0.66      0.00
  -10    3    3      0.57      0.00
   -9    3    3      0.67      0.00
   -8    3    3      0.03      0.00
   -7    3    3      1.24      0.00
   -6    3    3      2.68      0.00
   -5    3    3      0.69      0.00
   -4    3    3     -3.19      0.00
   -3    3    3     -2.43      0.00
   -2    3    3     -0.07      0.00
   -1    3    3     -0.92      0.00
    0    3    3     -4.24      0.00
    1    3    3     -5.64      0.00
    2    3    3     -0.65      0.00
    3    3    3      2.88      0.00
    4    3    3      1.64      0.00
    5    3    3      0.24      0.00
    6    3    3      0.53      0.00
    7    3    3      0.37      0.00
    8    3    3     -0.66      0.00
    9    3    3     -0.77      0.00
   10    3    3     -0.02      0.00
   11    3    3      0.46      0.00
   12    3    3      0.23      0.00
   13    3    3      0.35      0.00
  -14    4    3      0.91      0.00
  -13    4    3      0.78      0.00
  -12    4    3      0.30      0.00
  -11    4    3     -0.47      0.00
  -10    4    3     -0.03      0.00
   -9    4    3      1.04      0.00
   -8    4    3      1.48      0.00
   -7    4    3     -0.50      0.00
   -6    4    3     -0.10      0.00
   -5    4    3      3.36      0.00
   -4    4    3      1.41      0.00
   -3    4    3     -5.30      0.00
   -2    4    3     -7.29      0.00
   -1    4    3      0.04      0.00
    0    4    3      3.75      0.00
    1    4    3     -0.36      0.00
    2    4    3     -0.82      0.00
    3    4    3      2.51      0.00
    4    4    3      3.43      0.00
    5    4    3      1.01      0.00
    6    4    3     -1.30      0.00
    7    4    3     -0.59      0.00
    8    4    3      1.01      0.00
    9    4    3      0.31      0.00
   10    4    3     -0.58      0.00
   11    4    3      0.30      0.00
   12    4    3      0.70      0.00
   13    4    3     -0.02      0.00
  -14    5    3     -0.17      0.00
  -13    5    3     -0.05      0.00
  -12    5    3      0.33      0.00
  -11    5    3      0.08      0.00
  -10    5    3      0.06      0.00
   -9    5    3      0.42      0.00
   -8    5    3      0.12      0.00
   -7    5    3      0.90      0.00
   -6    5    3      1.39      0.00
   -5    5    3      1.18      0.00
   -4    5    3     -0.08      0.00
   -3    5    3     -0.34      0.00
   -2    5    3     -1.07      0.00
   -1    5    3     -2.96      0.00
    0    5    3     -4.55      0.00
    1    5    3     -4.22      0.00
    2    5    3     -0.03      0.00
    3    5    3      1.27      0.00
    4    5    3     -0.17      0.00
    5    5    3     -0.05      0.00
    6    5    3      0.95      0.00
    7    5    3      0.04      0.00
    8    5    3     -1.06      0.00
    9    5    3     -0.22      0.00
   10    5    3      0.47      0.00
   11    5    3      0.52      0.00
   12    5    3      0.29      0.00
   13    5    3      0.29      0.00
  -14    6    3      1.17      0.00
  -13    6    3      0.50      0.00
  -12    6    3      0.05      0.00
  -11    6    3     -0.24      0.00
  -10    6    3     -0.12      0.00
   -9    6    3      1.01      0.00
   -8    6    3      1.64      0.00
   -7    6    3     -0.41      0.00
   -6    6    3     -0.58      0.00
   -5    6    3      1.82      0.00
   -4    6    3     -0.14      0.00
   -3    6    3     -4.16      0.00
   -2    6    3     -3.48      0.00
   -1    6    3      2.52      0.00
    0    6    3      6.22      0.00
    1    6    3      3.10      0.00
    2    6    3      0.40      0.00
    3    6    3      0.72      0.00
    4    6    3      0.77      0.00
    5    6    3     -0.55      0.00
    6    6    3     -1.77      0.00
    7    6    3     -0.33      0.00
    8    6    3      1.43      0.00
    9    6    3      0.67      0.00
   10    6    3     -0.34      0.00
   11    6    3      0.51      0.00
   12    6    3      0.72      0.00
   13    6    3      0.01      0.00
  -14    7    3      0.45      0.00
  -13    7    3      0.31      0.00
  -12    7    3     -0.18      0.00
  -11    7    3     -0.32      0.00
  -10    7    3     -0.08      0.00
   -9    7    3      0.18      0.00
   -8    7    3      0.01      0.00
   -7    7    3      0.02      0.00
   -6    7    3     -0.62      0.00
   -5    7    3      1.24      0.00
   -4    7    3      2.85      0.00
   -3    7    3      1.44      0.00
   -2    7    3     -1.30      0.00
   -1    7    3     -3.43      0.00
    0    7    3     -4.17      0.00
    1    7    3     -2.75      0.00
    2    7    3      0.08      0.00
    3    7    3     -0.54      0.00
    4    7    3     -1.54      0.00
    5    7    3      0.03      0.00
    6    7    3      1.48      0.00
    7    7    3     -0.03      0.00
    8    7    3     -1.00      0.00
    9    7    3      0.54      0.00
   10    7    3      0.76      0.00
   11    7    3      0.31      0.00
   12    7    3      0.29      0.00
   13    7    3     -0.03      0.00
  -14    8    3      0.37      0.00
  -13    8    3     -0.19      0.00
  -12    8    3     -0.42      0.00
  -11    8    3     -0.27      0.00
  -10    8    3     -0.45      0.00
   -9    8    3      0.07      0.00
   -8    8    3      1.05      0.00
   -7    8    3      0.63      0.00
   -6    8    3     -0.36      0.00
   -5    8    3     -1.01      0.00
   -4    8    3     -1.49      0.00
   -3    8    3     -0.34      0.00
   -2    8    3      0.82      0.00
   -1    8    3      0.77      0.00
    0    8    3      2.22      0.00
    1    8    3      3.22      0.00
    2    8    3      2.65      0.00
    3    8    3      0.34      0.00
    4    8    3     -1.52      0.00
    5    8    3     -1.38      0.00
    6    8    3     -0.78      0.00
    7    8    3      0.68      0.00
    8    8    3      1.08      0.00
    9    8    3      0.26      0.00
   10    8    3     -0.15      0.00
   11    8    3      0.31      0.00
   12    8    3      0.07      0.00
   13    8    3     -0.52      0.00
  -14    9    3      0.48      0.00
  -13    9    3      0.23      0.00
  -12    9    3     -0.70      0.00
  -11    9    3     -0.56      0.00
  -10    9    3      0.05      0.00
   -9    9    3      0.02      0.00
   -8    9    3     -0.64      0.00
   -7    9    3     -0.82      0.00
   -6    9    3     -0.72      0.00
   -5    9    3      1.79      0.00
   -4    9    3      2.88      0.00
   -3    9    3      1.25      0.00
   -2    9    3      0.96      0.00
   -1    9    3     -0.24      0.00
    0    9    3     -3.65      0.00
    1    9    3     -3.76      0.00
    2    9    3     -0.59      0.00
    3    9    3     -0.40      0.00
    4    9    3     -1.45      0.00
    5    9    3     -0.50      0.00
    6    9    3      0.96      0.00
    7    9    3      0.03      0.00
    8    9    3     -0.73      0.00
    9    9    3      0.46      0.00
   10    9    3      0.43      0.00
   11    9    3      0.25      0.00
   12    9    3      0.56      0.00
   13    9    3     -0.12      0.00
  -14   10    3     -0.44      0.00
  -13   10    3     -0.58      0.00
  -12   10    3     -0.69      0.00
  -11   10    3     -0.24      0.00
  -10   10    3     -0.29      0.00
   -9   10    3     -0.48      0.00
   -8   10    3      0.17      0.00
   -7   10    3      1.17      0.00
   -6   10    3      0.20      0.00
   -5   10    3     -2.37      0.00
   -4   10    3     -1.62      0.00
   -3   10    3      2.33      0.00
   -2   10    3      2.76      0.00
   -1   10    3     -1.13      0.00
    0   10    3     -1.28      0.00
    1   10    3      2.24      0.00
    2   10    3      3.52      0.00
    3   10    3      0.22      0.00
    4   10    3     -1.91      0.00
    5   10    3     -0.50      0.00
    6   10    3      0.74      0.00
    7   10    3      1.45      0.00
    8   10    3      0.50      0.00
    9   10    3     -0.15      0.00
   10   10    3      0.03      0.00
   11   10    3     -0.04      0.00
   12   10    3     -0.42      0.00
   13   10    3     -0.71      0.00
  -14   11    3      0.11      0.00
  -13   11    3      0.02      0.00
  -12   11    3     -0.84      0.00
  -11   11    3     -0.93      0.00
  -10   11    3     -0.14      0.00
   -9   11    3      0.01      0.00
   -8   11    3     -1.25      0.00
   -7   11    3     -1.46      0.00
   -6   11    3      0.65      0.00
   -5   11    3      2.90      0.00
   -4   11    3      1.34      0.00
   -3   11    3      0.06      0.00
   -2   11    3      3.54      0.00
   -1   11    3      3.54      0.00
    0   11    3     -2.86      0.00
    1   11    3     -4.94      0.00
    2   11    3     -0.76      0.00
    3   11    3      0.90      0.00
    4   11    3     -1.07      0.00
    5   11    3     -1.70      0.00
    6   11    3     -0.17      0.00
    7   11    3      0.34      0.00
    8   11    3     -0.23      0.00
    9   11    3     -0.18      0.00
   10   11    3     -0.01      0.00
   11   11    3      0.57      0.00
   12   11    3      0.97      0.00
  -14   12    3     -0.49      0.00
  -13   12    3     -0.32      0.00
  -12   12    3     -0.48      0.00
  -11   12    3      0.09      0.00
  -10   12    3      0.34      0.00
   -9   12    3      0.11      0.00
   -8   12    3      0.21      0.00
   -7   12    3      1.05      0.00
   -6   12    3      0.76      0.00
   -5   12    3     -0.83      0.00
   -4   12    3     -0.09      0.00
   -3   12    3      1.99      0.00
   -2   12    3      1.44      0.00
   -1   12    3     -1.43      0.00
    0   12    3     -1.64      0.00
    1   12    3      0.49      0.00
    2   12    3      1.07      0.00
    3   12    3     -1.10      0.00
    4   12    3     -1.19      0.00
    5   12    3      0.63      0.00
    6   12    3      0.85      0.00
    7   12    3      1.04      0.00
    8   12    3      0.52      0.00
    9   12    3      0.31      0.00
   10   12    3      0.25      0.00
   11   12    3     -0.18      0.00
   12   12    3     -0.16      0.00
  -13   13    3      0.28      0.00
  -12   13    3     -0.18      0.00
  -11   13    3     -0.97      0.00
  -10   13    3     -0.40      0.00
   -9   13    3      0.46      0.00
   -8   13    3     -0.75      0.00
   -7   13    3     -1.57      0.00
   -6   13    3      1.17      0.00
   -5   13    3      3.03      0.00
   -4   13    3      0.33      0.00
   -3   13    3     -0.80      0.00
   -2   13    3      2.91      0.00
   -1   13    3      3.31      0.00
    0   13    3     -2.00      0.00
    1   13    3     -3.67      0.00
    2   13    3      0.00      0.00
    3   13    3      1.32      0.00
    4   13    3     -0.89      0.00
    5   13    3     -1.62      0.00
    6   13    3     -0.14      0.00
    7   13    3      1.00      0.00
    8   13    3      0.40      0.00
    9   13    3     -0.44      0.00
   10   13    3     -0.02      0.00
   11   13    3      0.74      0.00
   12   13    3      0.74      0.00
  -13   14    3     -0.04      0.00
  -12   14    3     -0.17      0.00
  -11   14    3      0.34      0.00
  -10   14    3      0.32      0.00
   -9   14    3      0.45      0.00
   -8   14    3      0.69      0.00
   -7   14    3      0.43      0.00
   -6   14    3      0.34      0.00
   -5   14    3      0.99      0.00
   -4   14    3      1.39      0.00
   -3   14    3      0.50      0.00
   -2   14    3     -0.28      0.00
   -1   14    3     -0.61      0.00
    0   14    3     -0.58      0.00
    1   14    3     -0.86      0.00
    2   14    3     -1.45      0.00
    3   14    3     -1.83      0.00
    4   14    3     -0.21      0.00
    5   14    3      0.92      0.00
    6   14    3     -0.27      0.00
    7   14    3     -0.10      0.00
    8   14    3      0.92      0.00
    9   14    3      0.96      0.00
   10   14    3     -0.08      0.00
   11   14    3     -0.59      0.00
   12   14    3      0.00      0.00
  -13   15    3      0.39      0.00
  -12   15    3      0.25      0.00
  -11   15    3     -0.76      0.00
  -10   15    3     -0.49      0.00
   -9   15    3      0.78      0.00
   -8   15    3      0.52      0.00
   -7   15    3     -0.71      0.00
   -6   15    3      0.51      0.00
   -5   15    3      1.76      0.00
   -4   15    3      0.59      0.00
   -3   15    3     -0.43      0.00
   -2   15    3      0.12      0.00
   -1   15    3      0.26      0.00
    0   15    3     -0.84      0.00
    1   15    3     -0.72      0.00
    2   15    3      0.47      0.00
    3   15    3      0.23      0.00
    4   15    3     -0.63      0.00
    5   15    3     -0.10      0.00
    6   15    3      0.57      0.00
    7   15    3      0.78      0.00
    8   15    3      0.23      0.00
    9   15    3     -0.35      0.00
   10   15    3      0.18      0.00
   11   15    3      0.37      0.00
   12   15    3     -0.10      0.00
  -13   16    3     -0.29      0.00
  -12   16    3     -0.04      0.00
  -11   16    3      0.55      0.00
  -10   16    3     -0.23      0.00
   -9   16    3     -0.16      0.00
   -8   16    3      0.70      0.00
   -7   16    3     -0.06      0.00
   -6   16    3     -0.65      0.00
   -5   16    3      0.75      0.00
   -4   16    3      1.07      0.00
   -3   16    3      0.02      0.00
   -2   16    3      0.14      0.00
   -1   16    3      0.23      0.00
    0   16    3     -0.07      0.00
    1   16    3     -0.45      0.00
    2   16    3     -0.78      0.00
    3   16    3     -0.85      0.00
    4   16    3      0.19      0.00
    5   16    3      0.71      0.00
    6   16    3     -0.72      0.00
    7   16    3     -0.80      0.00
    8   16    3      0.93      0.00
    9   16    3      0.92      0.00
   10   16    3     -0.74      0.00
   11   16    3     -0.97      0.00
   12   16    3     -0.28      0.00
  -13   17    3     -0.32      0.00
  -12   17    3     -0.64      0.00
  -11   17    3     -0.75      0.00
  -10   17    3     -0.33      0.00
   -9   17    3      0.28      0.00
   -8   17    3      0.96      0.00
   -7   17    3      0.45      0.00
   -6   17    3     -0.05      0.00
   -5   17    3      0.28      0.00
   -4   17    3      1.12      0.00
   -3   17    3      0.54      0.00
   -2   17    3     -1.27      0.00
   -1   17    3     -1.15      0.00
    0   17    3      0.56      0.00
    1   17    3      1.15      0.00
    2   17    3      0.01      0.00
    3   17    3     -0.88      0.00
    4   17    3     -0.16      0.00
    5   17    3      0.85      0.00
    6   17    3      0.36      0.00
    7   17    3     -0.48      0.00
    8   17    3     -0.69      0.00
    9   17    3     -0.23      0.00
   10   17    3      0.29      0.00
   11   17    3     -0.04      0.00
  -12   18    3      0.06      0.00
  -11   18    3      0.94      0.00
  -10   18    3     -0.10      0.00
   -9   18    3     -0.48      0.00
   -8   18    3      0.46      0.00
   -7   18    3      0.27      0.00
   -6   18    3     -0.49      0.00
   -5   18    3     -0.29      0.00
   -4   18    3     -0.37      0.00
   -3   18    3      0.47      0.00
   -2   18    3      1.60      0.00
   -1   18    3      0.28      0.00
    0   18    3     -0.48      0.00
    1   18    3      0.61      0.00
    2   18    3      1.02      0.00
    3   18    3     -0.24      0.00
    4   18    3     -0.68      0.00
    5   18    3      0.37      0.00
    6   18    3     -0.03      0.00
    7   18    3     -0.70      0.00
    8   18    3      0.42      0.00
    9   18    3      0.47      0.00
   10   18    3     -0.65      0.00
   11   18    3     -0.37      0.00
  -12   19    3     -1.88      0.00
  -11   19    3     -0.48      0.00
  -10   19    3      0.53      0.00
   -9   19    3     -0.27      0.00
   -8   19    3      0.26      0.00
   -7   19    3      0.76      0.00
   -6   19    3     -0.16      0.00
   -5   19    3     -0.58      0.00
   -4   19    3      0.58      0.00
   -3   19    3      0.36      0.00
   -2   19    3     -0.96      0.00
   -1   19    3     -0.36      0.00
    0   19    3      0.95      0.00
    1   19    3      0.72      0.00
    2   19    3     -0.51      0.00
    3   19    3     -0.42      0.00
    4   19    3      0.51      0.00
    5   19    3      0.56      0.00
    6   19    3     -0.07      0.00
    7   19    3     -0.74      0.00
    8   19    3     -0.80      0.00
    9   19    3      0.05      0.00
   10   19    3      0.24      0.00
   11   19    3     -0.03      0.00
  -12   20    3      0.08      0.00
  -11   20    3      0.83      0.00
  -10   20    3      0.47      0.00
   -9   20    3     -0.04      0.00
   -8   20    3      0.16      0.00
   -7   20    3      0.67      0.00
   -6   20    3      0.56      0.00
   -5   20    3     -0.55      0.00
   -4   20    3     -1.37      0.00
   -3   20    3      0.60      0.00
   -2   20    3      1.97      0.00
   -1   20    3      0.06      0.00
    0   20    3     -0.50      0.00
    1   20    3      1.02      0.00
    2   20    3      1.20      0.00
    3   20    3     -0.79      0.00
    4   20    3     -1.66      0.00
    5   20    3      0.04      0.00
    6   20    3      0.54      0.00
    7   20    3     -0.34      0.00
    8   20    3     -0.15      0.00
    9   20    3      0.07      0.00
   10   20    3     -0.04      0.00
   11   20    3      0.52      0.00
  -12   21    3     -1.99      0.00
  -11   21    3      0.25      0.00
  -10   21    3      1.53      0.00
   -9   21    3     -0.13      0.00
   -8   21    3     -0.24      0.00
   -7   21    3      0.37      0.00
   -6   21    3     -0.06      0.00
   -5   21    3     -0.47      0.00
   -4   21    3     -0.25      0.00
   -3   21    3     -0.69      0.00
   -2   21    3     -0.59      0.00
   -1   21    3      0.18      0.00
    0   21    3      0.08      0.00
    1   21    3     -0.39      0.00
    2   21    3     -0.26      0.00
    3   21    3      0.90      0.00
    4   21    3      0.92      0.00
    5   21    3     -0.10      0.00
    6   21    3      0.16      0.00
    7   21    3      0.35      0.00
    8   21    3      0.06      0.00
    9   21    3      0.30      0.00
   10   21    3     -0.08      0.00
  -11   22    3     -0.10      0.00
  -10   22    3      0.43      0.00
   -9   22    3      0.39      0.00
   -8   22    3     -0.09      0.00
   -7   22    3      0.47      0.00
   -6   22    3      0.93      0.00
   -5   22    3     -0.41      0.00
   -4   22    3     -1.44      0.00
   -3   22    3      0.16      0.00
   -2   22    3      1.15      0.00
   -1   22    3      0.36      0.00
    0   22    3      0.52      0.00
    1   22    3      0.96      0.00
    2   22    3      0.49      0.00
    3   22    3     -0.71      0.00
    4   22    3     -1.15      0.00
    5   22    3     -0.17      0.00
    6   22    3      0.28      0.00
    7   22    3      0.01      0.00
    8   22    3     -0.23      0.00
    9   22    3     -0.15      0.00
   10   22    3      0.13      0.00
  -11   23    3      0.61      0.00
  -10   23    3      1.16      0.00
   -9   23    3     -0.22      0.00
   -8   23    3      0.00      0.00
   -7   23    3      0.30      0.00
   -6   23    3      0.24      0.00
   -5   23    3      0.39      0.00
   -4   23    3      0.04      0.00
   -3   23    3     -0.76      0.00
   -2   23    3     -0.41      0.00
   -1   23    3     -0.16      0.00
    0   23    3     -0.42      0.00
    1   23    3     -0.18      0.00
    2   23    3      0.29      0.00
    3   23    3      1.24      0.00
    4   23    3      0.67      0.00
    5   23    3     -0.56      0.00
    6   23    3      0.00      0.00
    7   23    3      0.55      0.00
    8   23    3      0.47      0.00
    9   23    3      0.27      0.00
   10   23    3     -0.46      0.00
  -11   24    3     -0.69      0.00
  -10   24    3      0.13      0.00
   -9   24    3      0.44      0.00
   -8   24    3      0.13      0.00
   -7   24    3      0.53      0.00
   -6   24    3      0.80      0.00
   -5   24    3     -0.18      0.00
   -4   24    3     -0.80      0.00
   -3   24    3     -0.10      0.00
   -2   24    3      0.24      0.00
   -1   24    3      0.56      0.00
    0   24    3      1.03      0.00
    1   24    3      0.56      0.00
    2   24    3      0.17      0.00
    3   24    3      0.31      0.00
    4   24    3      0.14      0.00
    5   24    3     -0.29      0.00
    6   24    3     -0.12      0.00
    7   24    3      0.44      0.00
    8   24    3      0.07      0.00
    9   24    3     -0.04      0.00
  -10   25    3     -0.36      0.00
   -9   25    3     -1.12      0.00
   -8   25    3      0.20      0.00
   -7   25    3      0.55      0.00
   -6   25    3      0.35      0.00
   -5   25    3      0.75      0.00
   -4   25    3      0.61      0.00
   -3   25    3     -0.01      0.00
   -2   25    3     -0.21      0.00
   -1   25    3     -0.55      0.00
    0   25    3      0.09      0.00
    1   25    3      0.94      0.00
    2   25    3      0.30      0.00
    3   25    3      0.45      0.00
    4   25    3      0.40      0.00
    5   25    3     -0.47      0.00
    6   25    3     -0.86      0.00
    7   25    3     -0.55      0.00
    8   25    3      0.32      0.00
    9   25    3      0.36      0.00
  -10   26    3      0.22      0.00
   -9   26    3      0.12      0.00
   -8   26    3      0.31      0.00
   -7   26    3      0.93      0.00
   -6   26    3      0.93      0.00
   -5   26    3      0.30      0.00
   -4   26    3      0.06      0.00
   -3   26    3      0.10      0.00
   -2   26    3     -0.15      0.00
   -1   26    3      0.07      0.00
    0   26    3      0.15      0.00
    1   26    3      0.00      0.00
    2   26    3      0.19      0.00
    3   26    3      0.73      0.00
    4   26    3      0.59      0.00
    5   26    3     -0.22      0.00
    6   26    3      0.07      0.00
    7   26    3      0.54      0.00
    8   26    3     -0.04      0.00
    9   26    3      0.18      0.00
   -9   27    3     -1.56      0.00
   -8   27    3      0.04      0.00
   -7   27    3      0.48      0.00
   -6   27    3     -0.04      0.00
   -5   27    3      0.12      0.00
   -4   27    3      0.34      0.00
   -3   27    3      0.25      0.00
   -2   27    3     -0.14      0.00
   -1   27    3     -0.52      0.00
    0   27    3      0.57      0.00
    1   27    3      1.28      0.00
    2   27    3     -0.16      0.00
    3   27    3     -0.19      0.00
    4   27    3      0.66      0.00
    5   27    3      0.14      0.00
    6   27    3     -1.11      0.00
    7   27    3     -1.01      0.00
    8   27    3      0.39      0.00
   -9   28    3     -0.48      0.00
   -8   28    3     -0.35      0.00
   -7   28    3      0.42      0.00
   -6   28    3      0.65      0.00
   -5   28    3      0.50      0.00
   -4   28    3      0.39      0.00
   -3   28    3      0.20      0.00
   -2   28    3     -0.12      0.00
   -1   28    3     -0.28      0.00
    0   28    3     -0.59      0.00
    1   28    3     -0.02      0.00
    2   28    3      0.19      0.00
    3   28    3      0.11      0.00
    4   28    3      0.22      0.00
    5   28    3      0.08      0.00
    6   28    3      0.44      0.00
    7   28    3     -0.01      0.00
    8   28    3     -0.69      0.00
   -8   29    3      0.00      0.00
   -7   29    3      0.07      0.00
   -6   29    3     -0.50      0.00
   -5   29    3     -0.30      0.00
   -4   29    3      0.14      0.00
   -3   29    3      0.30      0.00
   -2   29    3      0.09      0.00
   -1   29    3     -0.01      0.00
    0   29    3      0.49      0.00
    1   29    3      0.69      0.00
    2   29    3     -0.31      0.00
    3   29    3     -0.23      0.00
    4   29    3      0.69      0.00
    5   29    3      0.45      0.00
    6   29    3     -0.44      0.00
    7   29    3     -0.34      0.00
   -8   30    3     -0.91      0.00
   -7   30    3     -0.69      0.00
   -6   30    3     -0.23      0.00
   -5   30    3      0.13      0.00
   -4   30    3      0.08      0.00
   -3   30    3     -0.01      0.00
   -2   30    3      0.08      0.00
   -1   30    3      0.16      0.00
    0   30    3     -0.21      0.00
    1   30    3      0.36      0.00
    2   30    3     -0.04      0.00
    3   30    3     -0.69      0.00
    4   30    3     -0.16      0.00
    5   30    3      0.06      0.00
    6   30    3      0.19      0.00
   -7   31    3     -0.25      0.00
   -6   31    3     -0.66      0.00
   -5   31    3      0.00      0.00
   -4   31    3      0.54      0.00
   -3   31    3      0.48      0.00
   -2   31    3      0.24      0.00
   -1   31    3      0.42      0.00
    0   31    3      0.23      0.00
    1   31    3      0.21      0.00
    2   31    3      0.16      0.00
    3   31    3     -0.09      0.00
    4   31    3      0.12      0.00
    5   31    3      0.16      0.00
    6   31    3      0.22      0.00
   -6   32    3     -0.63      0.00
   -5   32    3     -0.13      0.00
   -4   32    3     -0.13      0.00
   -3   32    3      0.00      0.00
   -2   32    3      0.36      0.00
   -1   32    3      0.75      0.00
    0   32    3      0.40      0.00
    1   32    3      0.35      0.00
    2   32    3     -0.35      0.00
    3   32    3     -0.82      0.00
    4   32    3     -0.21      0.00
    5   32    3     -0.48      0.00
   -5   33    3      0.18      0.00
   -4   33    3      0.55      0.00
   -3   33    3      0.17      0.00
   -2   33    3     -0.22      0.00
   -1   33    3      0.16      0.00
    0   33    3     -0.06      0.00
    1   33    3      0.04      0.00
    2   33    3      0.58      0.00
    3   33    3     -0.08      0.00
    4   33    3     -0.24      0.00
   -4   34    3     -0.07      0.00
   -3   34    3      0.29      0.00
   -2   34    3      0.61      0.00
   -1   34    3      0.81      0.00
    0   34    3      0.48      0.00
    1   34    3      0.21      0.00
    2   34    3     -0.09      0.00
    3   34    3     -0.18      0.00
   -2   35    3     -0.58      0.00
   -1   35    3     -0.16      0.00
    0   35    3     -0.26      0.00
  -14    0    4      1.01      0.00
  -13    0    4      0.28      0.00
  -12    0    4     -0.81      0.00
  -11    0    4     -0.26      0.00
  -10    0    4      0.12      0.00
   -9    0    4      0.10      0.00
   -8    0    4     -1.86      0.00
   -7    0    4     -3.24      0.00
   -6    0    4     -1.29      0.00
   -5    0    4     -0.61      0.00
   -4    0    4     -2.13      0.00
   -3    0    4     -0.36      0.00
   -2    0    4      8.20      0.00
   -1    0    4     11.33      0.00
    0    0    4      6.37      0.00
    1    0    4      3.23      0.00
    2    0    4      2.18      0.00
    3    0    4     -0.23      0.00
    4    0    4     -2.48      0.00
    5    0    4     -2.09      0.00
    6    0    4     -0.55      0.00
    7    0    4      0.40      0.00
    8    0    4      0.30      0.00
    9    0    4      0.39      0.00
   10    0    4      0.12      0.00
   11    0    4     -0.32      0.00
   12    0    4      0.06      0.00
   13    0    4      0.90      0.00
  -14    1    4      0.16      0.00
  -13    1    4      0.08      0.00
  -12    1    4     -0.30      0.00
  -11    1    4     -0.39      0.00
  -10    1    4     -0.44      0.00
   -9    1    4     -0.46      0.00
   -8    1    4      0.01      0.00
   -7    1    4     -0.48      0.00
   -6    1    4     -1.44      0.00
   -5    1    4     -0.45      0.00
   -4    1    4      1.92      0.00
   -3    1    4      1.84      0.00
   -2    1    4     -0.09      0.00
   -1    1    4      0.15      0.00
    0    1    4      2.25      0.00
    1    1    4      2.49      0.00
    2    1    4     -0.06      0.00
    3    1    4     -1.49      0.00
    4    1    4     -0.81      0.00
    5    1    4      0.01      0.00
    6    1    4     -0.14      0.00
    7    1    4     -0.51      0.00
    8    1    4     -0.05      0.00
    9    1    4      0.47      0.00
   10    1    4      0.31      0.00
   11    1    4     -0.15      0.00
   12    1    4     -0.26      0.00
   13    1    4     -0.08      0.00
  -14    2    4      0.44      0.00
  -13    2    4      0.11      0.00
  -12    2    4     -0.64      0.00
  -11    2    4     -0.21      0.00
  -10    2    4      0.06      0.00
   -9    2    4     -0.16      0.00
   -8    2    4     -1.70      0.00
   -7    2    4     -2.06      0.00
   -6    2    4     -0.42      0.00
   -5    2    4     -0.90      0.00
   -4    2    4     -1.61      0.00
   -3    2    4      1.48      0.00
   -1    2    4      7.57      0.00
    0    2    4      2.25      0.00
    1    2    4      1.25      0.00
    2    2    4      1.64      0.00
    3    2    4     -0.69      0.00
    4    2    4     -2.81      0.00
    5    2    4     -2.08      0.00
    6    2    4     -0.24      0.00
    7    2    4      0.49      0.00
    8    2    4     -0.09      0.00
    9    2    4      0.08      0.00
   10    2    4      0.29      0.00
   11    2    4     -0.13      0.00
   12    2    4     -0.06      0.00
   13    2    4      0.68      0.00
  -14    3    4      0.30      0.00
  -13    3    4      0.15      0.00
  -12    3    4     -0.48      0.00
  -11    3    4     -0.51      0.00
  -10    3    4     -0.63      0.00
   -9    3    4     -0.85      0.00
   -8    3    4      0.04      0.00
   -7    3    4     -0.99      0.00
   -6    3    4     -2.87      0.00
   -5    3    4     -1.30      0.00
   -4    3    4      3.09      0.00
   -3    3    4      3.45      0.00
   -2    3    4      0.41      0.00
   -1    3    4      0.97      0.00
    0    3    4      4.71      0.00
    1    3    4      5.04      0.00
    2    3    4     -0.21      0.00
    3    3    4     -3.02      0.00
    4    3    4     -1.36      0.00
    5    3    4      0.44      0.00
    6    3    4     -0.08      0.00
    7    3    4     -0.96      0.00
    8    3    4      0.03      0.00
    9    3    4      0.96      0.00
   10    3    4      0.52      0.00
   11    3    4     -0.42      0.00
   12    3    4     -0.65      0.00
   13    3    4     -0.24      0.00
  -14    4    4     -0.56      0.00
  -13    4    4     -0.19      0.00
  -12    4    4     -0.34      0.00
  -11    4    4     -0.14      0.00
  -10    4    4     -0.05      0.00
   -9    4    4     -0.75      0.00
   -8    4    4     -1.70      0.00
   -7    4    4     -0.36      0.00
   -6    4    4      0.85      0.00
   -5    4    4     -1.38      0.00
   -4    4    4     -0.66      0.00
   -3    4    4      4.24      0.00
   -2    4    4      6.29      0.00
   -1    4    4      0.75      0.00
    0    4    4     -4.33      0.00
    1    4    4     -1.73      0.00
    2    4    4      0.81      0.00
    3    4    4     -1.03      0.00
    4    4    4     -2.40      0.00
    5    4    4     -1.22      0.00
    6    4    4      0.72      0.00
    7    4    4      0.69      0.00
    8    4    4     -0.95      0.00
    9    4    4     -0.67      0.00
   10    4    4      0.40      0.00
   11    4    4      0.00      0.00
   12    4    4     -0.45      0.00
   13    4    4      0.15      0.00
  -14    5    4      0.11      0.00
  -13    5    4     -0.10      0.00
  -12    5    4     -0.21      0.00
  -11    5    4      0.09      0.00
  -10    5    4     -0.07      0.00
   -9    5    4     -0.59      0.00
   -8    5    4     -0.01      0.00
   -7    5    4     -0.72      0.00
   -6    5    4     -1.69      0.00
   -5    5    4     -1.62      0.00
   -4    5    4      0.25      0.00
   -3    5    4      1.96      0.00
   -2    5    4      2.16      0.00
   -1    5    4      2.49      0.00
    0    5    4      3.88      0.00
    1    5    4      4.06      0.00
    2    5    4      0.15      0.00
    3    5    4     -2.08      0.00
    4    5    4     -0.64      0.00
    5    5    4      0.96      0.00
    6    5    4      0.15      0.00
    7    5    4     -0.79      0.00
    8    5    4      0.18      0.00
    9    5    4      0.51      0.00
   10    5    4     -0.04      0.00
   11    5    4     -0.54      0.00
   12    5    4     -0.64      0.00
   13    5    4     -0.26      0.00
  -14    6    4     -0.88      0.00
  -13    6    4     -0.20      0.00
  -12    6    4     -0.06      0.00
  -11    6    4     -0.03      0.00
  -10    6    4      0.10      0.00
   -9    6    4     -0.87      0.00
   -8    6    4     -1.82      0.00
   -7    6    4     -0.17      0.00
   -6    6    4      1.04      0.00
   -5    6    4     -0.84      0.00
   -4    6    4      0.30      0.00
   -3    6    4      3.91      0.00
   -2    6    4      3.01      0.00
   -1    6    4     -2.37      0.00
    0    6    4     -5.31      0.00
    1    6    4     -2.40      0.00
    2    6    4     -0.15      0.00
    3    6    4     -0.61      0.00
    4    6    4     -0.40      0.00
    5    6    4      0.43      0.00
    6    6    4      1.51      0.00
    7    6    4      0.59      0.00
    8    6    4     -1.55      0.00
    9    6    4     -1.16      0.00
   10    6    4      0.23      0.00
   11    6    4     -0.13      0.00
   12    6    4     -0.67      0.00
   13    6    4     -0.12      0.00
  -14    7    4     -0.08      0.00
  -13    7    4     -0.40      0.00
  -12    7    4     -0.01      0.00
  -11    7    4      0.37      0.00
  -10    7    4      0.25      0.00
   -9    7    4     -0.21      0.00
   -8    7    4     -0.07      0.00
   -7    7    4     -0.18      0.00
   -6    7    4      0.29      0.00
   -5    7    4     -1.31      0.00
   -4    7    4     -2.81      0.00
   -3    7    4      0.09      0.00
   -2    7    4      3.41      0.00
   -1    7    4      2.85      0.00
    0    7    4      1.97      0.00
    1    7    4      3.04      0.00
    2    7    4      1.48      0.00
    3    7    4     -0.64      0.00
    4    7    4     -0.30      0.00
    5    7    4      0.91      0.00
    6    7    4      0.14      0.00
    7    7    4     -0.55      0.00
    8    7    4      0.18      0.00
    9    7    4     -0.23      0.00
   10    7    4     -0.64      0.00
   11    7    4     -0.39      0.00
   12    7    4     -0.37      0.00
  -14    8    4     -0.37      0.00
  -13    8    4      0.08      0.00
  -12    8    4      0.20      0.00
  -11    8    4      0.20      0.00
  -10    8    4      0.45      0.00
   -9    8    4     -0.18      0.00
   -8    8    4     -1.14      0.00
   -7    8    4     -0.71      0.00
   -6    8    4      0.55      0.00
   -5    8    4      1.05      0.00
   -4    8    4      1.46      0.00
   -3    8    4      0.91      0.00
   -2    8    4     -0.73      0.00
   -1    8    4     -1.09      0.00
    0    8    4     -1.53      0.00
    1    8    4     -1.95      0.00
    2    8    4     -1.86      0.00
    3    8    4     -0.36      0.00
    4    8    4      1.18      0.00
    5    8    4      0.80      0.00
    6    8    4      0.85      0.00
    7    8    4     -0.09      0.00
    8    8    4     -1.46      0.00
    9    8    4     -0.80      0.00
   10    8    4      0.21      0.00
   11    8    4     -0.08      0.00
   12    8    4     -0.24      0.00
  -14    9    4      0.14      0.00
  -13    9    4     -0.27      0.00
  -12    9    4      0.15      0.00
  -11    9    4      0.39      0.00
  -10    9    4      0.39      0.00
   -9    9    4      0.18      0.00
   -8    9    4      0.23      0.00
   -7    9    4      0.31      0.00
   -6    9    4      0.80      0.00
   -5    9    4     -1.39      0.00
   -4    9    4     -3.38      0.00
   -3    9    4     -0.47      0.00
   -2    9    4      1.92      0.00
   -1    9    4      0.34      0.00
    0    9    4      0.70      0.00
    1    9    4      3.65      0.00
    2    9    4      2.53      0.00
    3    9    4     -0.49      0.00
    4    9    4     -0.45      0.00
    5    9    4      1.06      0.00
    6    9    4      0.47      0.00
    7    9    4     -0.17      0.00
    8    9    4      0.27      0.00
    9    9    4     -0.27      0.00
   10    9    4     -0.51      0.00
   11    9    4     -0.22      0.00
   12    9    4     -0.35      0.00
  -14   10    4      0.19      0.00
  -13   10    4      0.22      0.00
  -12   10    4      0.33      0.00
  -11   10    4      0.24      0.00
  -10   10    4      0.26      0.00
   -9   10    4      0.27      0.00
   -8   10    4     -0.10      0.00
   -7   10    4     -0.89      0.00
   -6   10    4     -0.24      0.00
   -5   10    4      1.99      0.00
   -4   10    4      1.90      0.00
   -3   10    4     -1.34      0.00
   -2   10    4     -2.51      0.00
   -1   10    4      0.93      0.00
    0   10    4      1.59      0.00
    1   10    4     -1.49      0.00
    2   10    4     -2.51      0.00
    3   10    4      0.07      0.00
    4   10    4      1.26      0.00
    5   10    4     -0.40      0.00
    6   10    4     -0.49      0.00
    7   10    4     -0.66      0.00
    8   10    4     -1.00      0.00
    9   10    4     -0.28      0.00
   10   10    4      0.19      0.00
   11   10    4      0.05      0.00
   12   10    4      0.19      0.00
  -14   11    4      0.45      0.00
  -13   11    4      0.01      0.00
  -12   11    4      0.10      0.00
  -11   11    4      0.53      0.00
  -10   11    4      0.78      0.00
   -9   11    4      0.36      0.00
   -8   11    4      0.47      0.00
   -7   11    4      0.78      0.00
   -6   11    4      0.08      0.00
   -5   11    4     -2.10      0.00
   -4   11    4     -2.26      0.00
   -3   11    4     -0.02      0.00
   -2   11    4     -0.72      0.00
   -1   11    4     -2.61      0.00
    0   11    4      0.37      0.00
    1   11    4      3.98      0.00
    2   11    4      1.86      0.00
    3   11    4     -1.07      0.00
    4   11    4     -0.06      0.00
    5   11    4      1.53      0.00
    6   11    4      0.83      0.00
    7   11    4      0.05      0.00
    8   11    4      0.22      0.00
    9   11    4      0.11      0.00
   10   11    4     -0.03      0.00
   11   11    4     -0.32      0.00
   12   11    4     -0.69      0.00
  -14   12    4      0.21      0.00
  -13   12    4     -0.03      0.00
  -12   12    4      0.20      0.00
  -11   12    4     -0.09      0.00
  -10   12    4     -0.41      0.00
   -9   12    4     -0.11      0.00
   -8   12    4      0.12      0.00
   -7   12    4     -0.80      0.00
   -6   12    4     -1.03      0.00
   -5   12    4      0.54      0.00
   -4   12    4      0.70      0.00
   -3   12    4     -1.29      0.00
   -2   12    4     -1.76      0.00
   -1   12    4      1.34      0.00
    0   12    4      2.13      0.00
    1   12    4     -0.14      0.00
    2   12    4     -0.66      0.00
    3   12    4      1.16      0.00
    4   12    4      0.94      0.00
    5   12    4     -1.07      0.00
    6   12    4     -0.69      0.00
    7   12    4     -0.33      0.00
    8   12    4     -0.66      0.00
    9   12    4     -0.47      0.00
   10   12    4     -0.08      0.00
   11   12    4      0.08      0.00
   12   12    4      0.05      0.00
  -13   13    4     -0.15      0.00
  -12   13    4     -0.43      0.00
  -11   13    4      0.53      0.00
  -10   13    4      0.98      0.00
   -9   13    4     -0.14      0.00
   -8   13    4     -0.19      0.00
   -7   13    4      0.85      0.00
   -6   13    4     -0.24      0.00
   -5   13    4     -2.30      0.00
   -4   13    4     -1.26      0.00
   -3   13    4      0.60      0.00
   -2   13    4     -1.01      0.00
   -1   13    4     -2.29      0.00
    0   13    4      0.69      0.00
    1   13    4      2.53      0.00
    2   13    4      0.22      0.00
    3   13    4     -0.85      0.00
    4   13    4      0.67      0.00
    5   13    4      1.00      0.00
    6   13    4      0.11      0.00
    7   13    4     -0.30      0.00
    8   13    4     -0.22      0.00
    9   13    4      0.07      0.00
   10   13    4      0.09      0.00
   11   13    4     -0.43      0.00
   12   13    4     -0.71      0.00
  -13   14    4     -0.25      0.00
  -12   14    4      0.04      0.00
  -11   14    4     -0.48      0.00
  -10   14    4     -0.55      0.00
   -9   14    4     -0.19      0.00
   -8   14    4     -0.19      0.00
   -7   14    4     -0.47      0.00
   -6   14    4     -0.72      0.00
   -5   14    4     -0.97      0.00
   -4   14    4     -0.75      0.00
   -3   14    4     -0.25      0.00
   -2   14    4     -0.62      0.00
   -1   14    4      0.28      0.00
    0   14    4      1.46      0.00
    1   14    4      1.38      0.00
    2   14    4      0.97      0.00
    3   14    4      1.25      0.00
    4   14    4      0.75      0.00
    5   14    4     -0.52      0.00
    6   14    4     -0.05      0.00
    7   14    4      0.37      0.00
    8   14    4     -0.46      0.00
    9   14    4     -0.97      0.00
   10   14    4     -0.13      0.00
   11   14    4      0.42      0.00
   12   14    4     -0.02      0.00
  -13   15    4     -0.25      0.00
  -12   15    4     -0.54      0.00
  -11   15    4      0.59      0.00
  -10   15    4      0.82      0.00
   -9   15    4     -0.64      0.00
   -8   15    4     -1.15      0.00
   -7   15    4      0.16      0.00
   -6   15    4      0.03      0.00
   -5   15    4     -1.48      0.00
   -4   15    4     -1.15      0.00
   -3   15    4      0.43      0.00
   -2   15    4      0.62      0.00
   -1   15    4      0.09      0.00
    0   15    4      0.52      0.00
    1   15    4      0.19      0.00
    2   15    4     -0.57      0.00
    3   15    4      0.29      0.00
    4   15    4      0.82      0.00
    5   15    4     -0.37      0.00
    6   15    4     -0.75      0.00
    7   15    4     -0.30      0.00
    8   15    4     -0.17      0.00
    9   15    4     -0.07      0.00
   10   15    4     -0.07      0.00
   11   15    4     -0.16      0.00
  -13   16    4      0.01      0.00
  -12   16    4      0.01      0.00
  -11   16    4     -0.80      0.00
  -10   16    4     -0.18      0.00
   -9   16    4      0.37      0.00
   -8   16    4     -0.32      0.00
   -7   16    4     -0.19      0.00
   -6   16    4      0.39      0.00
   -5   16    4     -0.58      0.00
   -4   16    4     -0.79      0.00
   -3   16    4      0.17      0.00
   -2   16    4     -0.83      0.00
   -1   16    4     -0.85      0.00
    0   16    4      0.97      0.00
    1   16    4      1.42      0.00
    2   16    4      0.03      0.00
    3   16    4     -0.09      0.00
    4   16    4      0.78      0.00
    5   16    4      0.12      0.00
    6   16    4     -0.19      0.00
    7   16    4      0.46      0.00
    8   16    4     -0.13      0.00
    9   16    4     -0.93      0.00
   10   16    4      0.14      0.00
   11   16    4      0.82      0.00
  -13   17    4      0.23      0.00
  -12   17    4      0.59      0.00
  -11   17    4      0.99      0.00
  -10   17    4      0.37      0.00
   -9   17    4     -0.30      0.00
   -8   17    4     -0.95      0.00
   -7   17    4     -0.64      0.00
   -6   17    4      0.10      0.00
   -5   17    4     -0.26      0.00
   -4   17    4     -1.14      0.00
   -3   17    4     -0.30      0.00
   -2   17    4      1.32      0.00
   -1   17    4      0.91      0.00
    0   17    4     -0.57      0.00
    1   17    4     -1.14      0.00
    2   17    4     -0.15      0.00
    3   17    4      0.94      0.00
    4   17    4      0.24      0.00
    5   17    4     -0.85      0.00
    6   17    4     -0.35      0.00
    7   17    4      0.39      0.00
    8   17    4      0.54      0.00
    9   17    4      0.12      0.00
   10   17    4     -0.19      0.00
   11   17    4      0.16      0.00
  -12   18    4      0.00      0.00
  -11   18    4     -1.01      0.00
  -10   18    4     -0.22      0.00
   -9   18    4      0.40      0.00
   -8   18    4     -0.36      0.00
   -7   18    4     -0.37      0.00
   -6   18    4      0.52      0.00
   -5   18    4      0.26      0.00
   -4   18    4      0.10      0.00
   -3   18    4     -0.15      0.00
   -2   18    4     -1.70      0.00
   -1   18    4     -1.05      0.00
    0   18    4      0.92      0.00
    1   18    4      0.51      0.00
    2   18    4     -1.31      0.00
    3   18    4     -0.58      0.00
    4   18    4      1.37      0.00
    5   18    4      0.34      0.00
    6   18    4     -0.95      0.00
    7   18    4      0.06      0.00
    8   18    4      0.33      0.00
    9   18    4     -0.37      0.00
   10   18    4      0.18      0.00
   11   18    4      0.41      0.00
  -12   19    4      1.89      0.00
  -11   19    4      1.06      0.00
  -10   19    4     -0.69      0.00
   -9   19    4      0.09      0.00
   -8   19    4      0.17      0.00
   -7   19    4     -0.74      0.00
   -6   19    4     -0.07      0.00
   -5   19    4      0.69      0.00
   -4   19    4     -0.29      0.00
   -3   19    4     -0.25      0.00
   -2   19    4      0.84      0.00
   -1   19    4      0.17      0.00
    0   19    4     -0.96      0.00
    1   19    4     -0.64      0.00
    2   19    4      0.41      0.00
    3   19    4      0.30      0.00
    4   19    4     -0.54      0.00
    5   19    4     -0.26      0.00
    6   19    4      0.32      0.00
    7   19    4      0.27      0.00
    8   19    4      0.58      0.00
    9   19    4      0.16      0.00
   10   19    4     -0.32      0.00
  -12   20    4     -0.05      0.00
  -11   20    4     -0.62      0.00
  -10   20    4     -0.51      0.00
   -9   20    4     -0.33      0.00
   -8   20    4     -0.25      0.00
   -7   20    4     -0.34      0.00
   -6   20    4     -0.27      0.00
   -5   20    4      0.22      0.00
   -4   20    4      0.84      0.00
   -3   20    4     -0.18      0.00
   -2   20    4     -1.80      0.00
   -1   20    4     -0.77      0.00
    0   20    4      0.45      0.00
    1   20    4     -0.21      0.00
    2   20    4     -0.96      0.00
    3   20    4      0.29      0.00
    4   20    4      1.71      0.00
    5   20    4      0.33      0.00
    6   20    4     -0.99      0.00
    7   20    4     -0.19      0.00
    8   20    4      0.49      0.00
    9   20    4      0.28      0.00
   10   20    4      0.12      0.00
  -12   21    4      2.02      0.00
  -11   21    4      0.45      0.00
  -10   21    4     -1.78      0.00
   -9   21    4     -0.17      0.00
   -8   21    4      0.64      0.00
   -7   21    4     -0.43      0.00
   -6   21    4     -0.24      0.00
   -5   21    4      0.69      0.00
   -4   21    4      0.44      0.00
   -3   21    4      0.43      0.00
   -2   21    4      0.47      0.00
   -1   21    4     -0.05      0.00
    0   21    4     -0.02      0.00
    1   21    4      0.31      0.00
    2   21    4      0.26      0.00
    3   21    4     -0.61      0.00
    4   21    4     -0.84      0.00
    5   21    4      0.19      0.00
    6   21    4      0.18      0.00
    7   21    4     -0.68      0.00
    8   21    4     -0.23      0.00
    9   21    4     -0.13      0.00
   10   21    4     -0.25      0.00
  -11   22    4      0.33      0.00
  -10   22    4     -0.34      0.00
   -9   22    4     -0.92      0.00
   -8   22    4     -0.03      0.00
   -7   22    4      0.19      0.00
   -6   22    4     -0.56      0.00
   -5   22    4     -0.04      0.00
   -4   22    4      1.21      0.00
   -3   22    4      0.43      0.00
   -2   22    4     -1.02      0.00
   -1   22    4     -0.82      0.00
    0   22    4     -0.63      0.00
    1   22    4     -0.58      0.00
    2   22    4     -0.11      0.00
    3   22    4      0.49      0.00
    4   22    4      0.86      0.00
    5   22    4      0.29      0.00
    6   22    4     -0.21      0.00
    7   22    4     -0.36      0.00
    8   22    4      0.05      0.00
    9   22    4      0.64      0.00
   10   22    4      0.37      0.00
  -11   23    4     -0.03      0.00
  -10   23    4     -1.43      0.00
   -9   23    4     -0.11      0.00
   -8   23    4      0.23      0.00
   -7   23    4     -0.40      0.00
   -6   23    4     -0.32      0.00
   -5   23    4     -0.16      0.00
   -4   23    4     -0.12      0.00
   -3   23    4      0.38      0.00
   -2   23    4      0.31      0.00
   -1   23    4      0.36      0.00
    0   23    4      0.60      0.00
    1   23    4     -0.06      0.00
    2   23    4     -0.36      0.00
    3   23    4     -0.57      0.00
    4   23    4     -0.53      0.00
    5   23    4      0.15      0.00
    6   23    4      0.19      0.00
    7   23    4     -0.48      0.00
    8   23    4     -0.57      0.00
    9   23    4     -0.43      0.00
  -10   24    4     -0.09      0.00
   -9   24    4     -0.96      0.00
   -8   24    4     -0.21      0.00
   -7   24    4      0.12      0.00
   -6   24    4     -0.55      0.00
   -5   24    4     -0.26      0.00
   -4   24    4      0.95      0.00
   -3   24    4      0.83      0.00
   -2   24    4     -0.19      0.00
   -1   24    4     -0.82      0.00
    0   24    4     -0.99      0.00
    1   24    4     -0.47      0.00
    2   24    4     -0.04      0.00
    3   24    4     -0.32      0.00
    4   24    4     -0.18      0.00
    5   24    4      0.37      0.00
    6   24    4      0.34      0.00
    7   24    4     -0.65      0.00
    8   24    4     -0.51      0.00
    9   24    4      0.48      0.00
  -10   25    4     -0.03      0.00
   -9   25    4      0.76      0.00
   -8   25    4     -0.08      0.00
   -7   25    4     -0.57      0.00
   -6   25    4     -0.11      0.00
   -5   25    4     -0.57      0.00
   -4   25    4     -0.93      0.00
   -3   25    4     -0.11      0.00
   -2   25    4      0.29      0.00
   -1   25    4      0.59      0.00
    0   25    4      0.13      0.00
    1   25    4     -1.17      0.00
    2   25    4     -0.62      0.00
    3   25    4      0.09      0.00
    4   25    4     -0.27      0.00
    5   25    4     -0.12      0.00
    6   25    4      0.85      0.00
    7   25    4      0.86      0.00
    8   25    4     -0.39      0.00
  -10   26    4     -0.24      0.00
   -9   26    4     -0.44      0.00
   -8   26    4     -0.34      0.00
   -7   26    4     -0.57      0.00
   -6   26    4     -0.86      0.00
   -5   26    4     -0.69      0.00
   -4   26    4      0.02      0.00
   -3   26    4      0.44      0.00
   -2   26    4      0.23      0.00
   -1   26    4     -0.26      0.00
    0   26    4     -0.10      0.00
    1   26    4     -0.02      0.00
    2   26    4     -0.38      0.00
    3   26    4     -0.66      0.00
    4   26    4     -0.26      0.00
    5   26    4      0.30      0.00
    6   26    4      0.07      0.00
    7   26    4     -0.61      0.00
    8   26    4     -0.30      0.00
   -9   27    4      1.19      0.00
   -8   27    4      0.00      0.00
   -7   27    4     -0.56      0.00
   -6   27    4      0.40      0.00
   -5   27    4      0.01      0.00
   -4   27    4     -0.86      0.00
   -3   27    4     -0.25      0.00
   -2   27    4      0.42      0.00
   -1   27    4      0.46      0.00
    0   27    4     -0.39      0.00
    1   27    4     -1.30      0.00
    2   27    4     -0.27      0.00
    3   27    4      0.33      0.00
    4   27    4     -0.37      0.00
    5   27    4     -0.30      0.00
    6   27    4      1.03      0.00
    7   27    4      1.25      0.00
   -9   28    4      0.38      0.00
   -8   28    4      0.33      0.00
   -7   28    4     -0.40      0.00
   -6   28    4     -0.70      0.00
   -5   28    4     -0.75      0.00
   -4   28    4     -0.61      0.00
   -3   28    4     -0.08      0.00
   -2   28    4      0.33      0.00
   -1   28    4      0.20      0.00
    0   28    4      0.56      0.00
    1   28    4      0.07      0.00
    2   28    4     -0.45      0.00
    3   28    4     -0.12      0.00
    4   28    4      0.03      0.00
    5   28    4     -0.17      0.00
    6   28    4     -0.44      0.00
    7   28    4     -0.04      0.00
   -8   29    4      0.03      0.00
   -7   29    4     -0.32      0.00
   -6   29    4      0.80      0.00
   -5   29    4      0.54      0.00
   -4   29    4     -0.70      0.00
   -3   29    4     -0.55      0.00
   -2   29    4      0.17      0.00
   -1   29    4     -0.01      0.00
    0   29    4     -0.44      0.00
    1   29    4     -0.50      0.00
    2   29    4     -0.01      0.00
    3   29    4      0.03      0.00
    4   29    4     -0.26      0.00
    5   29    4     -0.10      0.00
    6   29    4      0.35      0.00
   -7   30    4      0.45      0.00
   -6   30    4      0.08      0.00
   -5   30    4     -0.17      0.00
   -4   30    4     -0.41      0.00
   -3   30    4     -0.23      0.00
   -2   30    4      0.17      0.00
   -1   30    4     -0.08      0.00
    0   30    4      0.12      0.00
    1   30    4     -0.17      0.00
    2   30    4      0.03      0.00
    3   30    4      0.62      0.00
    4   30    4     -0.01      0.00
    5   30    4     -0.40      0.00
    6   30    4     -0.24      0.00
   -7   31    4     -0.08      0.00
   -6   31    4      0.90      0.00
   -5   31    4      0.45      0.00
   -4   31    4     -0.89      0.00
   -3   31    4     -1.00      0.00
   -2   31    4     -0.20      0.00
   -1   31    4     -0.36      0.00
    0   31    4     -0.37      0.00
    1   31    4      0.01      0.00
    2   31    4     -0.24      0.00
    3   31    4     -0.19      0.00
    4   31    4      0.24      0.00
    5   31    4      0.23      0.00
   -6   32    4      0.44      0.00
   -5   32    4      0.26      0.00
   -4   32    4     -0.06      0.00
   -3   32    4     -0.35      0.00
   -2   32    4     -0.29      0.00
   -1   32    4     -0.67      0.00
    0   32    4     -0.58      0.00
    1   32    4     -0.21      0.00
    2   32    4      0.61      0.00
    3   32    4      0.87      0.00
    4   32    4     -0.17      0.00
   -5   33    4      0.25      0.00
   -4   33    4     -0.62      0.00
   -3   33    4     -0.67      0.00
   -2   33    4      0.09      0.00
   -1   33    4     -0.05      0.00
    0   33    4     -0.17      0.00
    1   33    4      0.07      0.00
    2   33    4     -0.43      0.00
    3   33    4     -0.01      0.00
   -3   34    4     -0.48      0.00
   -2   34    4     -0.68      0.00
   -1   34    4     -0.81      0.00
    0   34    4     -0.72      0.00
    1   34    4     -0.23      0.00
  -14    0    5     -0.52      0.00
  -13    0    5     -0.67      0.00
  -12    0    5      0.27      0.00
  -11    0    5      1.01      0.00
  -10    0    5      0.67      0.00
   -9    0    5     -0.32      0.00
   -8    0    5      0.96      0.00
   -7    0    5      3.09      0.00
   -6    0    5      0.98      0.00
   -5    0    5     -1.04      0.00
   -4    0    5      0.60      0.00
   -3    0    5      1.34      0.00
   -2    0    5     -4.24      0.00
   -1    0    5     -9.18      0.00
    0    0    5     -5.36      0.00
    1    0    5      0.43      0.00
    2    0    5     -0.03      0.00
    3    0    5     -1.39      0.00
    4    0    5      0.35      0.00
    5    0    5      1.68      0.00
    6    0    5      1.38      0.00
    7    0    5     -0.20      0.00
    8    0    5     -0.52      0.00
    9    0    5     -0.13      0.00
   10    0    5     -0.35      0.00
   11    0    5     -0.21      0.00
   12    0    5      0.04      0.00
  -14    1    5     -0.05      0.00
  -13    1    5      0.08      0.00
  -12    1    5      0.26      0.00
  -11    1    5      0.24      0.00
  -10    1    5      0.34      0.00
   -9    1    5      0.53      0.00
   -8    1    5      0.14      0.00
   -7    1    5      0.37      0.00
   -6    1    5      1.16      0.00
   -5    1    5      0.49      0.00
   -4    1    5     -1.39      0.00
   -3    1    5     -1.77      0.00
   -2    1    5     -0.40      0.00
   -1    1    5     -0.13      0.00
    0    1    5     -1.71      0.00
    1    1    5     -2.16      0.00
    2    1    5     -0.11      0.00
    3    1    5      1.27      0.00
    4    1    5      0.85      0.00
    5    1    5     -0.06      0.00
    6    1    5     -0.11      0.00
    7    1    5      0.50      0.00
    8    1    5      0.19      0.00
    9    1    5     -0.40      0.00
   10    1    5     -0.33      0.00
   11    1    5     -0.06      0.00
   12    1    5      0.12      0.00
  -14    2    5     -0.19      0.00
  -13    2    5     -0.53      0.00
  -12    2    5      0.14      0.00
  -11    2    5      0.90      0.00
  -10    2    5      0.69      0.00
   -9    2    5     -0.08      0.00
   -8    2    5      0.86      0.00
   -7    2    5      2.14      0.00
   -6    2    5      0.28      0.00
   -5    2    5     -0.84      0.00
   -4    2    5      0.15      0.00
   -3    2    5     -0.35      0.00
   -2    2    5     -4.36      0.00
   -1    2    5     -6.27      0.00
    0    2    5     -2.20      0.00
    1    2    5      1.39      0.00
    2    2    5      0.12      0.00
    3    2    5     -0.66      0.00
    4    2    5      0.91      0.00
    5    2    5      1.69      0.00
    6    2    5      1.07      0.00
    7    2    5     -0.23      0.00
    8    2    5     -0.10      0.00
    9    2    5      0.16      0.00
   10    2    5     -0.38      0.00
   11    2    5     -0.29      0.00
   12    2    5      0.04      0.00
  -14    3    5     -0.13      0.00
  -13    3    5      0.20      0.00
  -12    3    5      0.45      0.00
  -11    3    5      0.15      0.00
  -10    3    5      0.40      0.00
   -9    3    5      1.07      0.00
   -8    3    5      0.27      0.00
   -7    3    5      0.64      0.00
   -6    3    5      2.24      0.00
   -5    3    5      1.32      0.00
   -4    3    5     -2.14      0.00
   -3    3    5     -3.55      0.00
   -2    3    5     -1.63      0.00
   -1    3    5     -0.76      0.00
    0    3    5     -3.18      0.00
    1    3    5     -4.25      0.00
    2    3    5     -0.43      0.00
    3    3    5      2.57      0.00
    4    3    5      1.86      0.00
    5    3    5     -0.41      0.00
    6    3    5     -0.66      0.00
    7    3    5      0.92      0.00
    8    3    5      0.43      0.00
    9    3    5     -0.79      0.00
   10    3    5     -0.58      0.00
   11    3    5     -0.06      0.00
   12    3    5      0.30      0.00
  -14    4    5      0.38      0.00
  -13    4    5     -0.27      0.00
  -12    4    5     -0.04      0.00
  -11    4    5      0.69      0.00
  -10    4    5      0.61      0.00
   -9    4    5      0.41      0.00
   -8    4    5      1.00      0.00
   -7    4    5      0.79      0.00
   -6    4    5     -0.71      0.00
   -5    4    5     -0.33      0.00
   -4    4    5     -0.44      0.00
   -3    4    5     -2.86      0.00
   -2    4    5     -3.91      0.00
   -1    4    5     -0.89      0.00
    0    4    5      2.94      0.00
    1    4    5      2.51      0.00
    2    4    5      0.08      0.00
    3    4    5      0.17      0.00
    4    4    5      1.12      0.00
    5    4    5      1.01      0.00
    6    4    5      0.05      0.00
    7    4    5     -0.47      0.00
    8    4    5      0.71      0.00
    9    4    5      0.81      0.00
   10    4    5     -0.23      0.00
   11    4    5     -0.21      0.00
   12    4    5      0.20      0.00
  -14    5    5     -0.16      0.00
  -13    5    5      0.32      0.00
  -12    5    5      0.32      0.00
  -11    5    5     -0.38      0.00
  -10    5    5     -0.17      0.00
   -9    5    5      0.90      0.00
   -8    5    5      0.29      0.00
   -7    5    5      0.27      0.00
   -6    5    5      1.23      0.00
   -5    5    5      1.53      0.00
   -4    5    5      0.10      0.00
   -3    5    5     -2.52      0.00
   -2    5    5     -3.54      0.00
   -1    5    5     -2.09      0.00
    0    5    5     -1.73      0.00
    1    5    5     -3.13      0.00
    2    5    5     -1.36      0.00
    3    5    5      1.65      0.00
    4    5    5      1.90      0.00
    5    5    5     -0.66      0.00
    6    5    5     -1.32      0.00
    7    5    5      0.64      0.00
    8    5    5      0.57      0.00
    9    5    5     -0.33      0.00
   10    5    5     -0.06      0.00
   11    5    5      0.14      0.00
   12    5    5      0.26      0.00
  -14    6    5      0.57      0.00
  -13    6    5     -0.14      0.00
  -12    6    5     -0.06      0.00
  -11    6    5      0.45      0.00
  -10    6    5      0.16      0.00
   -9    6    5      0.52      0.00
   -8    6    5      1.36      0.00
   -7    6    5      0.61      0.00
   -6    6    5     -0.87      0.00
   -5    6    5     -0.33      0.00
   -4    6    5     -0.70      0.00
   -3    6    5     -2.78      0.00
   -2    6    5     -1.99      0.00
   -1    6    5      1.72      0.00
    0    6    5      3.95      0.00
    1    6    5      2.21      0.00
    2    6    5      0.11      0.00
    3    6    5     -0.06      0.00
    4    6    5     -0.14      0.00
    5    6    5     -0.13      0.00
    6    6    5     -0.82      0.00
    7    6    5     -0.73      0.00
    8    6    5      1.18      0.00
    9    6    5      1.23      0.00
   10    6    5      0.06      0.00
   11    6    5      0.13      0.00
   12    6    5      0.35      0.00
  -14    7    5     -0.25      0.00
  -13    7    5      0.33      0.00
  -12    7    5      0.25      0.00
  -11    7    5     -0.38      0.00
  -10    7    5     -0.44      0.00
   -9    7    5      0.41      0.00
   -8    7    5      0.27      0.00
   -7    7    5     -0.01      0.00
   -6    7    5     -0.27      0.00
   -5    7    5      1.07      0.00
   -4    7    5      2.44      0.00
   -3    7    5     -0.63      0.00
   -2    7    5     -4.55      0.00
   -1    7    5     -2.82      0.00
    0    7    5      0.17      0.00
    1    7    5     -1.89      0.00
    2    7    5     -2.88      0.00
    3    7    5      0.10      0.00
    4    7    5      1.77      0.00
    5    7    5     -0.44      0.00
    6    7    5     -1.42      0.00
    7    7    5      0.24      0.00
    8    7    5      0.62      0.00
    9    7    5      0.35      0.00
   10    7    5      0.52      0.00
   11    7    5      0.29      0.00
   12    7    5      0.08      0.00
  -14    8    5      0.31      0.00
  -13    8    5     -0.17      0.00
  -12    8    5      0.01      0.00
  -11    8    5      0.19      0.00
  -10    8    5     -0.42      0.00
   -9    8    5      0.01      0.00
   -8    8    5      1.06      0.00
   -7    8    5      0.83      0.00
   -6    8    5     -0.62      0.00
   -5    8    5     -1.35      0.00
   -4    8    5     -1.27      0.00
   -3    8    5     -0.83      0.00
   -2    8    5      0.40      0.00
   -1    8    5      0.83      0.00
    0    8    5      1.21      0.00
    1    8    5      1.63      0.00
    2    8    5      1.03      0.00
    3    8    5     -0.46      0.00
    4    8    5     -1.13      0.00
    5    8    5      0.08      0.00
    6    8    5     -0.19      0.00
    7    8    5     -0.44      0.00
    8    8    5      1.08      0.00
    9    8    5      0.98      0.00
   10    8    5      0.05      0.00
   11    8    5      0.22      0.00
   12    8    5      0.11      0.00
  -14    9    5     -0.46      0.00
  -13    9    5     -0.05      0.00
  -12    9    5      0.12      0.00
  -11    9    5      0.00      0.00
  -10    9    5     -0.50      0.00
   -9    9    5     -0.34      0.00
   -8    9    5     -0.06      0.00
   -7    9    5      0.02      0.00
   -6    9    5     -0.60      0.00
   -5    9    5      0.70      0.00
   -4    9    5      2.79      0.00
   -3    9    5      0.58      0.00
   -2    9    5     -2.89      0.00
   -1    9    5     -1.34      0.00
    0    9    5      0.89      0.00
    1    9    5     -1.93      0.00
    2    9    5     -3.30      0.00
    3    9    5     -0.29      0.00
    4    9    5      1.32      0.00
    5    9    5     -0.49      0.00
    6    9    5     -1.27      0.00
    7    9    5     -0.24      0.00
    8    9    5      0.20      0.00
    9    9    5      0.29      0.00
   10    9    5      0.38      0.00
   11    9    5      0.27      0.00
   12    9    5      0.13      0.00
  -14   10    5      0.03      0.00
  -13   10    5     -0.09      0.00
  -12   10    5      0.06      0.00
  -11   10    5      0.12      0.00
  -10   10    5     -0.34      0.00
   -9   10    5     -0.24      0.00
   -8   10    5      0.25      0.00
   -7   10    5      0.67      0.00
   -6   10    5     -0.01      0.00
   -5   10    5     -1.61      0.00
   -4   10    5     -1.59      0.00
   -3   10    5      0.30      0.00
   -2   10    5      1.53      0.00
   -1   10    5     -0.60      0.00
    0   10    5     -1.33      0.00
    1   10    5      1.03      0.00
    2   10    5      1.46      0.00
    3   10    5     -0.69      0.00
    4   10    5     -0.97      0.00
    5   10    5      1.26      0.00
    6   10    5      1.07      0.00
    7   10    5      0.04      0.00
    8   10    5      0.66      0.00
    9   10    5      0.52      0.00
   10   10    5     -0.11      0.00
   11   10    5      0.11      0.00
   12   10    5     -0.08      0.00
  -14   11    5     -0.54      0.00
  -13   11    5     -0.44      0.00
  -12   11    5      0.01      0.00
  -11   11    5      0.19      0.00
  -10   11    5     -0.73      0.00
   -9   11    5     -0.90      0.00
   -8   11    5     -0.27      0.00
   -7   11    5      0.11      0.00
   -6   11    5     -0.13      0.00
   -5   11    5      0.74      0.00
   -4   11    5      1.84      0.00
   -3   11    5      0.81      0.00
   -2   11    5     -0.23      0.00
   -1   11    5      0.76      0.00
    0   11    5      0.51      0.00
    1   11    5     -1.92      0.00
    2   11    5     -1.72      0.00
    3   11    5      0.19      0.00
    4   11    5      0.08      0.00
    5   11    5     -0.93      0.00
    6   11    5     -0.84      0.00
    7   11    5     -0.45      0.00
    8   11    5     -0.27      0.00
    9   11    5     -0.11      0.00
   10   11    5     -0.07      0.00
   11   11    5      0.29      0.00
  -13   12    5      0.31      0.00
  -12   12    5      0.13      0.00
  -11   12    5      0.26      0.00
  -10   12    5      0.35      0.00
   -9   12    5      0.13      0.00
   -8   12    5     -0.17      0.00
   -7   12    5      0.44      0.00
   -6   12    5      0.92      0.00
   -5   12    5     -0.01      0.00
   -4   12    5     -0.67      0.00
   -3   12    5     -0.04      0.00
   -2   12    5      1.19      0.00
   -1   12    5     -0.49      0.00
    0   12    5     -2.04      0.00
    1   12    5     -0.64      0.00
    2   12    5      0.10      0.00
    3   12    5     -0.89      0.00
    4   12    5     -0.70      0.00
    5   12    5      1.13      0.00
    6   12    5      1.03      0.00
    7   12    5     -0.01      0.00
    8   12    5      0.23      0.00
    9   12    5      0.47      0.00
   10   12    5      0.01      0.00
   11   12    5      0.04      0.00
  -13   13    5     -0.36      0.00
  -12   13    5      0.27      0.00
  -11   13    5      0.24      0.00
  -10   13    5     -0.77      0.00
   -9   13    5     -0.53      0.00
   -8   13    5      0.38      0.00
   -7   13    5      0.38      0.00
   -6   13    5      0.10      0.00
   -5   13    5      0.76      0.00
   -4   13    5      1.10      0.00
   -3   13    5      0.38      0.00
   -2   13    5      0.27      0.00
   -1   13    5      0.67      0.00
    0   13    5     -0.34      0.00
    1   13    5     -1.01      0.00
    2   13    5      0.23      0.00
    3   13    5      0.13      0.00
    4   13    5     -1.11      0.00
    5   13    5     -0.60      0.00
    6   13    5      0.23      0.00
    7   13    5     -0.02      0.00
    8   13    5     -0.11      0.00
    9   13    5      0.04      0.00
   10   13    5     -0.07      0.00
   11   13    5      0.32      0.00
  -13   14    5      0.71      0.00
  -12   14    5      0.17      0.00
  -11   14    5      0.42      0.00
  -10   14    5      0.68      0.00
   -9   14    5      0.21      0.00
   -8   14    5     -0.25      0.00
   -7   14    5      0.18      0.00
   -6   14    5      1.00      0.00
   -5   14    5      1.28      0.00
   -4   14    5      0.48      0.00
   -3   14    5     -0.66      0.00
   -2   14    5      0.71      0.00
   -1   14    5      0.76      0.00
    0   14    5     -1.64      0.00
    1   14    5     -2.42      0.00
    2   14    5     -0.98      0.00
    3   14    5     -0.10      0.00
    4   14    5     -0.62      0.00
    5   14    5     -0.32      0.00
    6   14    5      0.20      0.00
    7   14    5     -0.13      0.00
    8   14    5     -0.04      0.00
    9   14    5      0.63      0.00
   10   14    5      0.19      0.00
   11   14    5     -0.22      0.00
  -13   15    5     -0.16      0.00
  -12   15    5      0.33      0.00
  -11   15    5     -0.12      0.00
  -10   15    5     -0.65      0.00
   -9   15    5      0.14      0.00
   -8   15    5      1.17      0.00
   -7   15    5      0.86      0.00
   -6   15    5      0.07      0.00
   -5   15    5      0.47      0.00
   -4   15    5      1.08      0.00
   -3   15    5      0.17      0.00
   -2   15    5     -0.90      0.00
   -1   15    5     -0.67      0.00
    0   15    5     -0.33      0.00
    1   15    5      0.30      0.00
    2   15    5      0.74      0.00
    3   15    5     -0.60      0.00
    4   15    5     -1.12      0.00
    5   15    5      0.42      0.00
    6   15    5      0.85      0.00
    7   15    5      0.17      0.00
    8   15    5      0.07      0.00
    9   15    5      0.31      0.00
   10   15    5      0.15      0.00
   11   15    5      0.05      0.00
  -13   16    5      0.60      0.00
  -12   16    5      0.09      0.00
  -11   16    5      0.55      0.00
  -10   16    5      0.50      0.00
   -9   16    5     -0.16      0.00
   -8   16    5     -0.21      0.00
   -7   16    5      0.03      0.00
   -6   16    5      0.13      0.00
   -5   16    5      0.69      0.00
   -4   16    5      0.56      0.00
   -3   16    5     -0.58      0.00
   -2   16    5      0.94      0.00
   -1   16    5      1.65      0.00
    0   16    5     -1.07      0.00
    1   16    5     -2.51      0.00
    2   16    5     -0.19      0.00
    3   16    5      1.29      0.00
    4   16    5     -0.60      0.00
    5   16    5     -1.19      0.00
    6   16    5      0.25      0.00
    7   16    5      0.27      0.00
    8   16    5     -0.26      0.00
    9   16    5      0.47      0.00
   10   16    5      0.19      0.00
   11   16    5     -0.51      0.00
  -12   17    5     -0.42      0.00
  -11   17    5     -0.98      0.00
  -10   17    5     -0.49      0.00
   -9   17    5      0.13      0.00
   -8   17    5      0.74      0.00
   -7   17    5      1.00      0.00
   -6   17    5      0.20      0.00
   -5   17    5     -0.07      0.00
   -4   17    5      0.90      0.00
   -3   17    5      0.35      0.00
   -2   17    5     -1.25      0.00
   -1   17    5     -0.70      0.00
    0   17    5      0.72      0.00
    1   17    5      1.02      0.00
    2   17    5      0.13      0.00
    3   17    5     -0.86      0.00
    4   17    5     -0.19      0.00
    5   17    5      0.75      0.00
    6   17    5      0.09      0.00
    7   17    5     -0.31      0.00
    8   17    5     -0.16      0.00
    9   17    5      0.11      0.00
   10   17    5      0.21      0.00
  -12   18    5      0.01      0.00
  -11   18    5      0.62      0.00
  -10   18    5      0.41      0.00
   -9   18    5     -0.08      0.00
   -8   18    5      0.04      0.00
   -7   18    5      0.18      0.00
   -6   18    5     -0.20      0.00
   -5   18    5     -0.14      0.00
   -4   18    5      0.14      0.00
   -3   18    5      0.03      0.00
   -2   18    5      1.38      0.00
   -1   18    5      1.50      0.00
    0   18    5     -0.65      0.00
    1   18    5     -1.33      0.00
    2   18    5      0.65      0.00
    3   18    5      1.21      0.00
    4   18    5     -0.90      0.00
    5   18    5     -0.91      0.00
    6   18    5      0.89      0.00
    7   18    5      0.60      0.00
    8   18    5     -0.56      0.00
    9   18    5     -0.05      0.00
   10   18    5      0.14      0.00
  -12   19    5     -1.22      0.00
  -11   19    5     -1.44      0.00
  -10   19    5      0.24      0.00
   -9   19    5      0.08      0.00
   -8   19    5     -0.40      0.00
   -7   19    5      0.55      0.00
   -6   19    5      0.39      0.00
   -5   19    5     -0.64      0.00
   -4   19    5     -0.07      0.00
   -3   19    5      0.11      0.00
   -2   19    5     -0.62      0.00
   -1   19    5      0.06      0.00
    0   19    5      0.97      0.00
    1   19    5      0.55      0.00
    2   19    5     -0.37      0.00
    3   19    5     -0.32      0.00
    4   19    5      0.53      0.00
    5   19    5      0.33      0.00
    6   19    5     -0.67      0.00
    7   19    5     -0.24      0.00
    8   19    5     -0.01      0.00
    9   19    5     -0.05      0.00
   10   19    5      0.30      0.00
  -12   20    5      0.10      0.00
  -11   20    5      0.35      0.00
  -10   20    5      0.38      0.00
   -9   20    5      0.53      0.00
   -8   20    5      0.19      0.00
   -7   20    5     -0.01      0.00
   -6   20    5      0.06      0.00
   -5   20    5     -0.07      0.00
   -4   20    5     -0.19      0.00
   -3   20    5      0.13      0.00
   -2   20    5      1.22      0.00
   -1   20    5      1.04      0.00
    0   20    5      0.02      0.00
    1   20    5     -0.22      0.00
    2   20    5      0.16      0.00
    3   20    5     -0.14      0.00
    4   20    5     -1.00      0.00
    5   20    5     -0.23      0.00
    6   20    5      0.85      0.00
    7   20    5      0.36      0.00
    8   20    5     -0.63      0.00
    9   20    5     -0.59      0.00
   10   20    5     -0.12      0.00
  -11   21    5     -1.04      0.00
  -10   21    5      1.22      0.00
   -9   21    5      0.58      0.00
   -8   21    5     -0.76      0.00
   -7   21    5      0.07      0.00
   -6   21    5      0.44      0.00
   -5   21    5     -0.62      0.00
   -4   21    5     -0.65      0.00
   -3   21    5     -0.28      0.00
   -2   21    5     -0.19      0.00
   -1   21    5      0.00      0.00
    0   21    5     -0.16      0.00
    1   21    5     -0.23      0.00
    2   21    5     -0.15      0.00
    3   21    5      0.11      0.00
    4   21    5      0.40      0.00
    5   21    5      0.19      0.00
    6   21    5     -0.26      0.00
    7   21    5      0.45      0.00
    8   21    5      0.55      0.00
    9   21    5      0.15      0.00
  -11   22    5     -0.21      0.00
  -10   22    5      0.09      0.00
   -9   22    5      0.96      0.00
   -8   22    5      0.15      0.00
   -7   22    5     -0.61      0.00
   -6   22    5     -0.06      0.00
   -5   22    5      0.10      0.00
   -4   22    5     -0.61      0.00
   -3   22    5     -0.64      0.00
   -2   22    5      0.48      0.00
   -1   22    5      0.99      0.00
    0   22    5      0.87      0.00
    1   22    5      0.37      0.00
    2   22    5     -0.38      0.00
    3   22    5     -0.50      0.00
    4   22    5     -0.34      0.00
    5   22    5      0.08      0.00
    6   22    5      0.19      0.00
    7   22    5      0.17      0.00
    8   22    5     -0.10      0.00
    9   22    5     -0.73      0.00
  -11   23    5     -0.52      0.00
  -10   23    5      1.18      0.00
   -9   23    5      0.68      0.00
   -8   23    5     -0.38      0.00
   -7   23    5      0.00      0.00
   -6   23    5      0.35      0.00
   -5   23    5      0.01      0.00
   -4   23    5      0.07      0.00
   -3   23    5     -0.01      0.00
   -2   23    5     -0.10      0.00
   -1   23    5     -0.46      0.00
    0   23    5     -0.80      0.00
    1   23    5      0.12      0.00
    2   23    5      0.53      0.00
    3   23    5     -0.09      0.00
    4   23    5     -0.15      0.00
    5   23    5      0.47      0.00
    6   23    5      0.22      0.00
    7   23    5      0.20      0.00
    8   23    5      0.49      0.00
    9   23    5      0.39      0.00
  -10   24    5     -0.07      0.00
   -9   24    5      0.93      0.00
   -8   24    5      0.37      0.00
   -7   24    5     -0.43      0.00
   -6   24    5     -0.06      0.00
   -5   24    5      0.20      0.00
   -4   24    5     -0.63      0.00
   -3   24    5     -1.12      0.00
   -2   24    5     -0.16      0.00
   -1   24    5      0.91      0.00
    0   24    5      0.95      0.00
    1   24    5      0.34      0.00
    2   24    5     -0.03      0.00
    3   24    5      0.32      0.00
    4   24    5      0.14      0.00
    5   24    5     -0.24      0.00
    6   24    5     -0.20      0.00
    7   24    5      0.38      0.00
    8   24    5      0.53      0.00
  -10   25    5      0.33      0.00
   -9   25    5     -0.02      0.00
   -8   25    5     -0.17      0.00
   -7   25    5      0.20      0.00
   -6   25    5      0.10      0.00
   -5   25    5      0.23      0.00
   -4   25    5      0.89      0.00
   -3   25    5      0.42      0.00
   -2   25    5     -0.30      0.00
   -1   25    5     -0.57      0.00
    0   25    5     -0.24      0.00
    1   25    5      1.04      0.00
    2   25    5      0.82      0.00
    3   25    5     -0.41      0.00
    4   25    5     -0.30      0.00
    5   25    5      0.56      0.00
    6   25    5     -0.14      0.00
    7   25    5     -0.84      0.00
    8   25    5      0.09      0.00
   -9   26    5      0.44      0.00
   -8   26    5      0.46      0.00
   -7   26    5      0.42      0.00
   -6   26    5      0.52      0.00
   -5   26    5      0.65      0.00
   -4   26    5      0.15      0.00
   -3   26    5     -0.55      0.00
   -2   26    5     -0.41      0.00
   -1   26    5      0.30      0.00
    0   26    5      0.09      0.00
    1   26    5      0.00      0.00
    2   26    5      0.57      0.00
    3   26    5      0.77      0.00
    4   26    5     -0.14      0.00
    5   26    5     -0.51      0.00
    6   26    5      0.08      0.00
    7   26    5      0.45      0.00
   -9   27    5     -0.39      0.00
   -8   27    5     -0.30      0.00
   -7   27    5      0.35      0.00
   -6   27    5     -0.19      0.00
   -5   27    5     -0.31      0.00
   -4   27    5      0.81      0.00
   -3   27    5      0.51      0.00
   -2   27    5     -0.52      0.00
   -1   27    5     -0.44      0.00
    0   27    5      0.33      0.00
    1   27    5      1.01      0.00
    2   27    5      0.39      0.00
    3   27    5     -0.25      0.00
    4   27    5     -0.03      0.00
    5   27    5      0.16      0.00
    6   27    5     -0.49      0.00
    7   27    5     -0.91      0.00
   -8   28    5     -0.17      0.00
   -7   28    5      0.42      0.00
   -6   28    5      0.68      0.00
   -5   28    5      0.82      0.00
   -4   28    5      0.76      0.00
   -3   28    5      0.20      0.00
   -2   28    5     -0.46      0.00
   -1   28    5     -0.31      0.00
    0   28    5     -0.48      0.00
    1   28    5     -0.06      0.00
    2   28    5      0.65      0.00
    3   28    5      0.34      0.00
    4   28    5     -0.26      0.00
    5   28    5     -0.01      0.00
    6   28    5      0.48      0.00
   -8   29    5     -0.36      0.00
   -7   29    5      0.32      0.00
   -6   29    5     -0.41      0.00
   -5   29    5     -0.78      0.00
   -4   29    5      0.61      0.00
   -3   29    5      0.91      0.00
   -2   29    5     -0.09      0.00
   -1   29    5     -0.07      0.00
    0   29    5      0.41      0.00
    1   29    5      0.26      0.00
    2   29    5     -0.03      0.00
    3   29    5      0.22      0.00
    4   29    5      0.05      0.00
    5   29    5     -0.45      0.00
    6   29    5     -0.18      0.00
   -7   30    5     -0.32      0.00
   -6   30    5      0.13      0.00
   -5   30    5      0.34      0.00
   -4   30    5      0.53      0.00
   -3   30    5      0.43      0.00
   -2   30    5     -0.27      0.00
   -1   30    5     -0.18      0.00
    0   30    5     -0.12      0.00
    1   30    5      0.11      0.00
    2   30    5      0.03      0.00
    3   30    5     -0.44      0.00
    4   30    5      0.14      0.00
    5   30    5      0.55      0.00
   -6   31    5     -0.58      0.00
   -5   31    5     -0.74      0.00
   -4   31    5      0.70      0.00
   -3   31    5      1.41      0.00
   -2   31    5      0.49      0.00
   -1   31    5      0.20      0.00
    0   31    5      0.38      0.00
    1   31    5     -0.09      0.00
    2   31    5      0.07      0.00
    3   31    5      0.42      0.00
    4   31    5     -0.23      0.00
   -5   32    5     -0.12      0.00
   -4   32    5      0.10      0.00
   -3   32    5      0.49      0.00
   -2   32    5      0.29      0.00
   -1   32    5      0.47      0.00
    0   32    5      0.52      0.00
    1   32    5      0.15      0.00
    2   32    5     -0.65      0.00
    3   32    5     -0.89      0.00
   -4   33    5      0.47      0.00
   -3   33    5      0.96      0.00
   -2   33    5      0.22      0.00
   -1   33    5     -0.09      0.00
    0   33    5      0.22      0.00
    1   33    5     -0.06      0.00
    2   33    5      0.19      0.00
  -14    0    6      0.06      0.00
  -13    0    6      0.36      0.00
  -12    0    6      0.25      0.00
  -11    0    6     -0.84      0.00
  -10    0    6     -1.25      0.00
   -9    0    6     -0.14      0.00
   -8    0    6     -0.17      0.00
   -7    0    6     -1.99      0.00
   -6    0    6     -0.86      0.00
   -5    0    6      1.43      0.00
   -4    0    6      0.08      0.00
   -3    0    6     -1.54      0.00
   -2    0    6      1.36      0.00
   -1    0    6      5.69      0.00
    0    0    6      4.75      0.00
    1    0    6     -0.65      0.00
    2    0    6     -1.27      0.00
    3    0    6      1.03      0.00
    4    0    6      0.31      0.00
    5    0    6     -0.91      0.00
    6    0    6     -1.34      0.00
    7    0    6     -0.09      0.00
    8    0    6      0.44      0.00
    9    0    6     -0.44      0.00
   10    0    6      0.26      0.00
   11    0    6      0.95      0.00
   12    0    6     -0.03      0.00
  -14    1    6      0.03      0.00
  -13    1    6     -0.18      0.00
  -12    1    6     -0.35      0.00
  -11    1    6     -0.16      0.00
  -10    1    6     -0.10      0.00
   -9    1    6     -0.40      0.00
   -8    1    6     -0.34      0.00
   -7    1    6     -0.40      0.00
   -6    1    6     -0.77      0.00
   -5    1    6     -0.20      0.00
   -4    1    6      0.91      0.00
   -3    1    6      1.10      0.00
   -2    1    6      0.66      0.00
   -1    1    6      0.53      0.00
    0    1    6      1.13      0.00
    1    1    6      1.40      0.00
    2    1    6      0.32      0.00
    3    1    6     -0.62      0.00
    4    1    6     -0.78      0.00
    5    1    6     -0.28      0.00
    6    1    6      0.14      0.00
    7    1    6     -0.26      0.00
    8    1    6     -0.12      0.00
    9    1    6      0.35      0.00
   10    1    6      0.19      0.00
   11    1    6      0.17      0.00
   12    1    6      0.19      0.00
  -14    2    6     -0.06      0.00
  -13    2    6      0.37      0.00
  -12    2    6      0.34      0.00
  -11    2    6     -0.81      0.00
  -10    2    6     -1.26      0.00
   -9    2    6     -0.22      0.00
   -8    2    6     -0.01      0.00
   -7    2    6     -1.30      0.00
   -6    2    6     -0.44      0.00
   -5    2    6      1.30      0.00
   -4    2    6      0.69      0.00
   -3    2    6     -0.10      0.00
   -2    2    6      1.61      0.00
   -1    2    6      3.79      0.00
    0    2    6      2.56      0.00
    1    2    6     -1.24      0.00
    2    2    6     -1.31      0.00
    3    2    6      0.42      0.00
    4    2    6     -0.15      0.00
    5    2    6     -0.96      0.00
    6    2    6     -1.15      0.00
    7    2    6     -0.08      0.00
    8    2    6      0.09      0.00
    9    2    6     -0.57      0.00
   10    2    6      0.27      0.00
   11    2    6      0.84      0.00
   12    2    6      0.02      0.00
  -14    3    6      0.14      0.00
  -13    3    6     -0.36      0.00
  -12    3    6     -0.71      0.00
  -11    3    6     -0.05      0.00
  -10    3    6      0.13      0.00
   -9    3    6     -0.84      0.00
   -8    3    6     -0.75      0.00
   -7    3    6     -0.63      0.00
   -6    3    6     -1.33      0.00
   -5    3    6     -0.58      0.00
   -4    3    6      1.31      0.00
   -3    3    6      2.23      0.00
   -2    3    6      2.17      0.00
   -1    3    6      1.59      0.00
    0    3    6      1.82      0.00
    1    3    6      2.43      0.00
    2    3    6      0.88      0.00
    3    3    6     -1.04      0.00
    4    3    6     -1.82      0.00
    5    3    6     -0.59      0.00
    6    3    6      0.70      0.00
    7    3    6     -0.30      0.00
    8    3    6     -0.30      0.00
    9    3    6      0.62      0.00
   10    3    6      0.26      0.00
   11    3    6      0.30      0.00
   12    3    6      0.44      0.00
  -14    4    6     -0.28      0.00
  -13    4    6      0.39      0.00
  -12    4    6      0.43      0.00
  -11    4    6     -0.77      0.00
  -10    4    6     -1.12      0.00
   -9    4    6     -0.35      0.00
   -8    4    6     -0.02      0.00
   -7    4    6     -0.43      0.00
   -6    4    6      0.06      0.00
   -5    4    6      0.86      0.00
   -4    4    6      1.44      0.00
   -3    4    6      1.97      0.00
   -2    4    6      1.59      0.00
   -1    4    6      0.26      0.00
    0    4    6     -1.12      0.00
    1    4    6     -1.92      0.00
    2    4    6     -1.06      0.00
    3    4    6     -0.14      0.00
    4    4    6     -0.23      0.00
    5    4    6     -0.52      0.00
    6    4    6     -0.44      0.00
    7    4    6      0.19      0.00
    8    4    6     -0.48      0.00
    9    4    6     -0.82      0.00
   10    4    6      0.12      0.00
   11    4    6      0.34      0.00
   12    4    6     -0.04      0.00
  -14    5    6      0.29      0.00
  -13    5    6     -0.28      0.00
  -12    5    6     -0.60      0.00
  -11    5    6      0.33      0.00
  -10    5    6      0.62      0.00
   -9    5    6     -0.77      0.00
   -8    5    6     -0.79      0.00
   -7    5    6     -0.11      0.00
   -6    5    6     -0.39      0.00
   -5    5    6     -0.79      0.00
   -4    5    6     -0.34      0.00
   -3    5    6      1.63      0.00
   -2    5    6      3.79      0.00
   -1    5    6      2.71      0.00
    0    5    6      0.42      0.00
    1    5    6      1.14      0.00
    2    5    6      1.69      0.00
    3    5    6     -0.03      0.00
    4    5    6     -1.99      0.00
    5    5    6     -0.68      0.00
    6    5    6      1.31      0.00
    7    5    6      0.16      0.00
    8    5    6     -0.54      0.00
    9    5    6      0.04      0.00
   10    5    6     -0.20      0.00
   11    5    6      0.06      0.00
   12    5    6      0.46      0.00
  -14    6    6     -0.44      0.00
  -13    6    6      0.38      0.00
  -12    6    6      0.32      0.00
  -11    6    6     -0.73      0.00
  -10    6    6     -0.56      0.00
   -9    6    6     -0.18      0.00
   -8    6    6     -0.46      0.00
   -7    6    6     -0.50      0.00
   -6    6    6      0.15      0.00
   -5    6    6      0.71      0.00
   -4    6    6      1.43      0.00
   -3    6    6      1.92      0.00
   -2    6    6      0.60      0.00
   -1    6    6     -1.39      0.00
    0    6    6     -2.12      0.00
    1    6    6     -1.74      0.00
    2    6    6     -0.75      0.00
    3    6    6      0.36      0.00
    4    6    6      0.90      0.00
    5    6    6      0.20      0.00
    6    6    6      0.08      0.00
    7    6    6      0.56      0.00
    8    6    6     -0.63      0.00
    9    6    6     -0.90      0.00
   10    6    6     -0.17      0.00
   11    6    6     -0.35      0.00
  -14    7    6      0.37      0.00
  -13    7    6     -0.04      0.00
  -12    7    6     -0.38      0.00
  -11    7    6      0.16      0.00
  -10    7    6      0.58      0.00
   -9    7    6     -0.40      0.00
   -8    7    6     -0.55      0.00
   -7    7    6      0.22      0.00
   -6    7    6      0.56      0.00
   -5    7    6     -0.67      0.00
   -4    7    6     -1.90      0.00
   -3    7    6      0.38      0.00
   -2    7    6      4.20      0.00
   -1    7    6      3.15      0.00
    0    7    6     -0.79      0.00
    1    7    6      0.19      0.00
    2    7    6      2.71      0.00
    3    7    6      1.19      0.00
    4    7    6     -1.64      0.00
    5    7    6     -0.71      0.00
    6    7    6      1.33      0.00
    7    7    6      0.50      0.00
    8    7    6     -0.70      0.00
    9    7    6     -0.67      0.00
   10    7    6     -0.57      0.00
   11    7    6     -0.22      0.00
  -14    8    6     -0.45      0.00
  -13    8    6      0.30      0.00
  -12    8    6      0.10      0.00
  -11    8    6     -0.64      0.00
  -10    8    6      0.09      0.00
   -9    8    6      0.27      0.00
   -8    8    6     -0.61      0.00
   -7    8    6     -0.75      0.00
   -6    8    6      0.32      0.00
   -5    8    6      1.34      0.00
   -4    8    6      1.35      0.00
   -3    8    6      0.75      0.00
   -2    8    6     -0.36      0.00
   -1    8    6     -0.66      0.00
    0    8    6     -0.57      0.00
    1    8    6     -1.28      0.00
    2    8    6     -0.98      0.00
    3    8    6      0.90      0.00
    4    8    6      1.55      0.00
    5    8    6     -0.31      0.00
    6    8    6     -0.74      0.00
    7    8    6      0.32      0.00
    8    8    6     -0.38      0.00
    9    8    6     -0.64      0.00
   10    8    6     -0.20      0.00
   11    8    6     -0.59      0.00
  -14    9    6      0.35      0.00
  -13    9    6      0.35      0.00
  -12    9    6      0.05      0.00
  -11    9    6     -0.32      0.00
  -10    9    6      0.23      0.00
   -9    9    6      0.37      0.00
   -8    9    6      0.12      0.00
   -7    9    6      0.02      0.00
   -6    9    6      0.42      0.00
   -5    9    6     -0.35      0.00
   -4    9    6     -1.84      0.00
   -3    9    6     -0.65      0.00
   -2    9    6      2.29      0.00
   -1    9    6      1.92      0.00
    0    9    6     -0.78      0.00
    1    9    6      0.44      0.00
    2    9    6      2.54      0.00
    3    9    6      1.15      0.00
    4    9    6     -0.77      0.00
    5    9    6     -0.18      0.00
    6    9    6      0.96      0.00
    7    9    6      0.68      0.00
    8    9    6     -0.25      0.00
    9    9    6     -0.50      0.00
   10    9    6     -0.21      0.00
   11    9    6     -0.24      0.00
  -13   10    6      0.03      0.00
  -12   10    6     -0.09      0.00
  -11   10    6     -0.56      0.00
  -10   10    6      0.13      0.00
   -9   10    6      0.30      0.00
   -8   10    6     -0.29      0.00
   -7   10    6     -0.50      0.00
   -6   10    6      0.21      0.00
   -5   10    6      1.29      0.00
   -4   10    6      1.12      0.00
   -3   10    6      0.46      0.00
   -2   10    6     -0.34      0.00
   -1   10    6      0.24      0.00
    0   10    6      0.95      0.00
    1   10    6     -0.39      0.00
    2   10    6     -0.75      0.00
    3   10    6      0.85      0.00
    4   10    6      0.90      0.00
    5   10    6     -1.33      0.00
    6   10    6     -1.77      0.00
    7   10    6     -0.22      0.00
    8   10    6     -0.01      0.00
    9   10    6     -0.28      0.00
   10   10    6     -0.01      0.00
   11   10    6     -0.37      0.00
  -13   11    6      0.64      0.00
  -12   11    6      0.52      0.00
  -11   11    6     -0.54      0.00
  -10   11    6      0.04      0.00
   -9   11    6      0.99      0.00
   -8   11    6      0.64      0.00
   -7   11    6     -0.39      0.00
   -6   11    6     -0.25      0.00
   -5   11    6      0.00      0.00
   -4   11    6     -0.79      0.00
   -3   11    6     -1.09      0.00
   -2   11    6     -0.12      0.00
   -1   11    6      0.30      0.00
    0   11    6     -0.11      0.00
    1   11    6      0.64      0.00
    2   11    6      0.78      0.00
    3   11    6      0.30      0.00
    4   11    6      0.60      0.00
    5   11    6      0.67      0.00
    6   11    6      0.40      0.00
    7   11    6      0.53      0.00
    8   11    6      0.33      0.00
    9   11    6      0.08      0.00
   10   11    6      0.30      0.00
   11   11    6     -0.22      0.00
  -13   12    6     -0.53      0.00
  -12   12    6     -0.31      0.00
  -11   12    6     -0.45      0.00
  -10   12    6     -0.36      0.00
   -9   12    6     -0.21      0.00
   -8   12    6      0.03      0.00
   -7   12    6     -0.08      0.00
   -6   12    6     -0.54      0.00
   -5   12    6     -0.35      0.00
   -4   12    6      0.11      0.00
   -3   12    6      0.99      0.00
   -2   12    6      0.13      0.00
   -1   12    6     -0.24      0.00
    0   12    6      1.28      0.00
    1   12    6      1.46      0.00
    2   12    6      0.71      0.00
    3   12    6      0.39      0.00
    4   12    6      0.10      0.00
    5   12    6     -0.74      0.00
    6   12    6     -1.15      0.00
    7   12    6     -0.27      0.00
    8   12    6      0.28      0.00
    9   12    6     -0.13      0.00
   10   12    6      0.00      0.00
   11   12    6     -0.12      0.00
  -13   13    6      0.57      0.00
  -12   13    6      0.51      0.00
  -11   13    6     -0.51      0.00
  -10   13    6     -0.10      0.00
   -9   13    6      0.65      0.00
   -8   13    6      0.13      0.00
   -7   13    6     -0.92      0.00
   -6   13    6     -0.63      0.00
   -5   13    6      0.20      0.00
   -4   13    6     -0.18      0.00
   -3   13    6     -0.87      0.00
   -2   13    6     -0.42      0.00
   -1   13    6      0.30      0.00
    0   13    6      0.54      0.00
    1   13    6      0.25      0.00
    2   13    6     -0.70      0.00
    3   13    6      0.11      0.00
    4   13    6      1.52      0.00
    5   13    6      0.65      0.00
    6   13    6     -0.40      0.00
    7   13    6     -0.07      0.00
    8   13    6      0.18      0.00
    9   13    6      0.02      0.00
   10   13    6      0.18      0.00
   11   13    6     -0.26      0.00
  -13   14    6     -1.13      0.00
  -12   14    6     -0.51      0.00
  -11   14    6     -0.27      0.00
  -10   14    6     -0.57      0.00
   -9   14    6     -0.48      0.00
   -8   14    6      0.23      0.00
   -7   14    6      0.30      0.00
   -6   14    6     -0.82      0.00
   -5   14    6     -1.52      0.00
   -4   14    6     -0.78      0.00
   -3   14    6      1.24      0.00
   -2   14    6      0.13      0.00
   -1   14    6     -1.37      0.00
    0   14    6      0.92      0.00
    1   14    6      2.98      0.00
    2   14    6      1.61      0.00
    3   14    6     -0.70      0.00
    4   14    6     -0.30      0.00
    5   14    6      0.91      0.00
    6   14    6      0.24      0.00
    7   14    6     -0.23      0.00
    8   14    6      0.25      0.00
    9   14    6     -0.16      0.00
   10   14    6     -0.12      0.00
  -13   15    6      0.42      0.00
  -12   15    6      0.27      0.00
  -11   15    6     -0.08      0.00
  -10   15    6      0.07      0.00
   -9   15    6      0.01      0.00
   -8   15    6     -0.70      0.00
   -7   15    6     -1.34      0.00
   -6   15    6     -0.70      0.00
   -5   15    6      0.17      0.00
   -4   15    6     -0.39      0.00
   -3   15    6     -0.57      0.00
   -2   15    6      0.66      0.00
   -1   15    6      0.97      0.00
    0   15    6      0.24      0.00
    1   15    6     -0.44      0.00
    2   15    6     -0.69      0.00
    3   15    6      0.61      0.00
    4   15    6      1.14      0.00
    5   15    6     -0.23      0.00
    6   15    6     -0.61      0.00
    7   15    6     -0.24      0.00
    8   15    6     -0.24      0.00
    9   15    6     -0.36      0.00
   10   15    6     -0.17      0.00
  -12   16    6     -0.48      0.00
  -11   16    6     -0.12      0.00
  -10   16    6     -0.32      0.00
   -9   16    6     -0.28      0.00
   -8   16    6      0.20      0.00
   -7   16    6      0.41      0.00
   -6   16    6     -0.28      0.00
   -5   16    6     -0.92      0.00
   -4   16    6     -0.73      0.00
   -3   16    6      0.70      0.00
   -2   16    6     -0.39      0.00
   -1   16    6     -1.76      0.00
    0   16    6      0.50      0.00
    1   16    6      2.67      0.00
    2   16    6      0.89      0.00
    3   16    6     -1.64      0.00
    4   16    6     -0.37      0.00
    5   16    6      1.47      0.00
    6   16    6      0.46      0.00
    7   16    6     -0.52      0.00
    8   16    6      0.11      0.00
    9   16    6     -0.08      0.00
   10   16    6     -0.22      0.00
  -12   17    6      0.31      0.00
  -11   17    6      0.77      0.00
  -10   17    6      0.57      0.00
   -9   17    6      0.03      0.00
   -8   17    6     -0.52      0.00
   -7   17    6     -1.15      0.00
   -6   17    6     -0.71      0.00
   -5   17    6      0.20      0.00
   -4   17    6     -0.40      0.00
   -3   17    6     -0.41      0.00
   -2   17    6      0.87      0.00
   -1   17    6      0.49      0.00
    0   17    6     -0.76      0.00
    1   17    6     -0.85      0.00
    2   17    6     -0.07      0.00
    3   17    6      0.69      0.00
    4   17    6      0.11      0.00
    5   17    6     -0.69      0.00
    6   17    6      0.20      0.00
    7   17    6      0.34      0.00
    8   17    6     -0.28      0.00
    9   17    6     -0.38      0.00
   10   17    6     -0.24      0.00
  -12   18    6     -0.26      0.00
  -11   18    6     -0.12      0.00
  -10   18    6     -0.10      0.00
   -9   18    6     -0.22      0.00
   -8   18    6     -0.08      0.00
   -7   18    6      0.13      0.00
   -6   18    6      0.03      0.00
   -5   18    6     -0.07      0.00
   -4   18    6     -0.48      0.00
   -3   18    6     -0.23      0.00
   -2   18    6     -0.81      0.00
   -1   18    6     -1.22      0.00
    0   18    6      0.14      0.00
    1   18    6      1.21      0.00
    2   18    6      0.17      0.00
    3   18    6     -0.96      0.00
    4   18    6      0.01      0.00
    5   18    6      0.61      0.00
    6   18    6     -0.21      0.00
    7   18    6     -0.49      0.00
    8   18    6      0.30      0.00
    9   18    6      0.24      0.00
  -12   19    6      0.37      0.00
  -11   19    6      1.25      0.00
  -10   19    6      0.52      0.00
   -9   19    6      0.05      0.00
   -8   19    6      0.28      0.00
   -7   19    6     -0.40      0.00
   -6   19    6     -0.62      0.00
   -5   19    6      0.45      0.00
   -4   19    6      0.35      0.00
   -3   19    6     -0.05      0.00
   -2   19    6      0.23      0.00
   -1   19    6     -0.26      0.00
    0   19    6     -0.72      0.00
    1   19    6     -0.36      0.00
    2   19    6      0.17      0.00
    3   19    6      0.26      0.00
    4   19    6     -0.23      0.00
    5   19    6     -0.48      0.00
    6   19    6      0.58      0.00
    7   19    6      0.49      0.00
    8   19    6     -0.35      0.00
    9   19    6     -0.31      0.00
  -11   20    6     -0.15      0.00
  -10   20    6      0.01      0.00
   -9   20    6     -0.37      0.00
   -8   20    6     -0.17      0.00
   -7   20    6      0.21      0.00
   -6   20    6      0.05      0.00
   -5   20    6      0.07      0.00
   -4   20    6     -0.33      0.00
   -3   20    6     -0.47      0.00
   -2   20    6     -0.64      0.00
   -1   20    6     -0.72      0.00
    0   20    6     -0.37      0.00
    1   20    6      0.06      0.00
    2   20    6      0.44      0.00
    3   20    6      0.48      0.00
    4   20    6      0.24      0.00
    5   20    6     -0.43      0.00
    6   20    6     -0.48      0.00
    7   20    6      0.08      0.00
    8   20    6      0.58      0.00
    9   20    6      0.57      0.00
  -11   21    6      0.98      0.00
  -10   21    6     -0.22      0.00
   -9   21    6     -0.56      0.00
   -8   21    6      0.54      0.00
   -7   21    6      0.31      0.00
   -6   21    6     -0.44      0.00
   -5   21    6      0.43      0.00
   -4   21    6      0.77      0.00
   -3   21    6      0.15      0.00
   -2   21    6     -0.23      0.00
   -1   21    6     -0.07      0.00
    0   21    6      0.55      0.00
    1   21    6      0.42      0.00
    2   21    6     -0.12      0.00
    3   21    6      0.06      0.00
    4   21    6      0.40      0.00
    5   21    6     -0.43      0.00
    6   21    6     -0.32      0.00
    7   21    6     -0.03      0.00
    8   21    6     -0.45      0.00
    9   21    6     -0.34      0.00
  -11   22    6     -0.11      0.00
  -10   22    6      0.13      0.00
   -9   22    6     -0.48      0.00
   -8   22    6     -0.03      0.00
   -7   22    6      0.68      0.00
   -6   22    6      0.37      0.00
   -5   22    6      0.23      0.00
   -4   22    6      0.22      0.00
   -3   22    6      0.32      0.00
   -2   22    6     -0.03      0.00
   -1   22    6     -0.74      0.00
    0   22    6     -0.90      0.00
    1   22    6     -0.35      0.00
    2   22    6      0.63      0.00
    3   22    6      0.60      0.00
    4   22    6     -0.12      0.00
    5   22    6     -0.59      0.00
    6   22    6     -0.23      0.00
    7   22    6      0.27      0.00
    8   22    6      0.31      0.00
  -10   23    6     -0.57      0.00
   -9   23    6     -0.94      0.00
   -8   23    6      0.35      0.00
   -7   23    6      0.65      0.00
   -6   23    6     -0.27      0.00
   -5   23    6     -0.01      0.00
   -4   23    6      0.17      0.00
   -3   23    6     -0.23      0.00
   -2   23    6     -0.29      0.00
   -1   23    6      0.35      0.00
    0   23    6      1.06      0.00
    1   23    6      0.21      0.00
    2   23    6     -0.63      0.00
    3   23    6      0.25      0.00
    4   23    6      0.99      0.00
    5   23    6     -0.71      0.00
    6   23    6     -1.17      0.00
    7   23    6     -0.02      0.00
    8   23    6     -0.04      0.00
  -10   24    6      0.11      0.00
   -9   24    6     -0.50      0.00
   -8   24    6     -0.22      0.00
   -7   24    6      0.45      0.00
   -6   24    6      0.36      0.00
   -5   24    6      0.27      0.00
   -4   24    6      0.55      0.00
   -3   24    6      0.85      0.00
   -2   24    6      0.35      0.00
   -1   24    6     -0.73      0.00
    0   24    6     -0.80      0.00
    1   24    6     -0.24      0.00
    2   24    6      0.09      0.00
    3   24    6     -0.39      0.00
    4   24    6     -0.24      0.00
    5   24    6      0.24      0.00
    6   24    6     -0.03      0.00
    7   24    6     -0.18      0.00
   -9   25    6     -0.67      0.00
   -8   25    6      0.33      0.00
   -7   25    6      0.63      0.00
   -6   25    6     -0.20      0.00
   -5   25    6     -0.22      0.00
   -4   25    6     -0.34      0.00
   -3   25    6     -0.48      0.00
   -2   25    6     -0.03      0.00
   -1   25    6      0.37      0.00
    0   25    6      0.36      0.00
    1   25    6     -0.57      0.00
    2   25    6     -0.75      0.00
    3   25    6      0.36      0.00
    4   25    6      0.80      0.00
    5   25    6     -0.64      0.00
    6   25    6     -0.82      0.00
    7   25    6      0.49      0.00
   -9   26    6     -0.29      0.00
   -8   26    6     -0.43      0.00
   -7   26    6     -0.35      0.00
   -6   26    6     -0.33      0.00
   -5   26    6     -0.34      0.00
   -4   26    6     -0.05      0.00
   -3   26    6      0.34      0.00
   -2   26    6      0.37      0.00
   -1   26    6     -0.19      0.00
    0   26    6     -0.08      0.00
    1   26    6     -0.05      0.00
    2   26    6     -0.58      0.00
    3   26    6     -0.94      0.00
    4   26    6      0.21      0.00
    5   26    6      0.93      0.00
    6   26    6     -0.18      0.00
   -8   27    6      0.44      0.00
   -7   27    6      0.36      0.00
   -6   27    6     -0.27      0.00
   -5   27    6      0.06      0.00
   -4   27    6     -0.14      0.00
   -3   27    6     -0.39      0.00
   -2   27    6      0.13      0.00
   -1   27    6      0.23      0.00
    0   27    6     -0.17      0.00
    1   27    6     -0.59      0.00
    2   27    6     -0.23      0.00
    3   27    6      0.20      0.00
    4   27    6      0.21      0.00
    5   27    6      0.01      0.00
    6   27    6     -0.02      0.00
   -8   28    6     -0.06      0.00
   -7   28    6     -0.36      0.00
   -6   28    6     -0.62      0.00
   -5   28    6     -0.86      0.00
   -4   28    6     -0.69      0.00
   -3   28    6     -0.28      0.00
   -2   28    6      0.40      0.00
   -1   28    6      0.42      0.00
    0   28    6      0.40      0.00
    1   28    6     -0.06      0.00
    2   28    6     -0.72      0.00
    3   28    6     -0.60      0.00
    4   28    6      0.28      0.00
    5   28    6      0.43      0.00
   -7   29    6      0.14      0.00
   -6   29    6     -0.21      0.00
   -5   29    6      0.38      0.00
   -4   29    6     -0.02      0.00
   -3   29    6     -0.77      0.00
   -2   29    6     -0.41      0.00
   -1   29    6     -0.06      0.00
    0   29    6     -0.17      0.00
    1   29    6     -0.09      0.00
    2   29    6      0.17      0.00
    3   29    6     -0.14      0.00
    4   29    6     -0.10      0.00
    5   29    6      0.67      0.00
   -6   30    6     -0.17      0.00
   -5   30    6     -0.67      0.00
   -4   30    6     -0.59      0.00
   -3   30    6     -0.32      0.00
   -2   30    6      0.33      0.00
   -1   30    6      0.31      0.00
    0   30    6      0.18      0.00
    1   30    6     -0.06      0.00
    2   30    6     -0.17      0.00
    3   30    6      0.16      0.00
    4   30    6     -0.12      0.00
   -5   31    6      0.52      0.00
   -4   31    6     -0.27      0.00
   -3   31    6     -1.29      0.00
   -2   31    6     -0.94      0.00
   -1   31    6     -0.22      0.00
    0   31    6     -0.14      0.00
    1   31    6      0.04      0.00
    2   31    6      0.06      0.00
    3   31    6     -0.31      0.00
   -4   32    6     -0.26      0.00
   -3   32    6     -0.31      0.00
   -2   32    6     -0.16      0.00
   -1   32    6     -0.39      0.00
    0   32    6     -0.32      0.00
    1   32    6      0.03      0.00
  -14    0    7      0.04      0.00
  -13    0    7      0.12      0.00
  -12    0    7     -0.14      0.00
  -11    0    7      0.31      0.00
  -10    0    7      0.96      0.00
   -9    0    7      0.60      0.00
   -8    0    7      0.26      0.00
   -7    0    7      0.85      0.00
   -6    0    7      0.51      0.00
   -5    0    7     -1.00      0.00
   -4    0    7     -0.09      0.00
   -3    0    7      1.45      0.00
   -2    0    7     -0.15      0.00
   -1    0    7     -2.78      0.00
    0    0    7     -3.27      0.00
    1    0    7      0.06      0.00
    2    0    7      1.17      0.00
    3    0    7     -0.67      0.00
    4    0    7      0.13      0.00
    5    0    7      0.90      0.00
    6    0    7      0.77      0.00
    7    0    7      0.01      0.00
    8    0    7     -0.23      0.00
    9    0    7      0.96      0.00
   10    0    7      0.25      0.00
   11    0    7     -1.17      0.00
  -14    1    7     -0.01      0.00
  -13    1    7      0.15      0.00
  -12    1    7      0.41      0.00
  -11    1    7      0.24      0.00
  -10    1    7     -0.07      0.00
   -9    1    7      0.08      0.00
   -8    1    7      0.37      0.00
   -7    1    7      0.53      0.00
   -6    1    7      0.53      0.00
   -5    1    7     -0.14      0.00
   -4    1    7     -0.72      0.00
   -3    1    7     -0.33      0.00
   -2    1    7     -0.38      0.00
   -1    1    7     -0.99      0.00
    0    1    7     -1.08      0.00
    1    1    7     -0.63      0.00
    2    1    7     -0.05      0.00
    3    1    7      0.00      0.00
    4    1    7      0.30      0.00
    5    1    7      0.62      0.00
    6    1    7      0.19      0.00
    7    1    7      0.02      0.00
    8    1    7     -0.11      0.00
    9    1    7     -0.37      0.00
   10    1    7     -0.10      0.00
   11    1    7     -0.12      0.00
  -14    2    7      0.06      0.00
  -13    2    7     -0.02      0.00
  -12    2    7     -0.25      0.00
  -11    2    7      0.38      0.00
  -10    2    7      1.06      0.00
   -9    2    7      0.54      0.00
   -8    2    7     -0.07      0.00
   -7    2    7      0.33      0.00
   -6    2    7      0.36      0.00
   -5    2    7     -0.84      0.00
   -4    2    7     -0.84      0.00
   -3    2    7      0.11      0.00
   -2    2    7     -0.34      0.00
   -1    2    7     -1.57      0.00
    0    2    7     -2.02      0.00
    1    2    7      0.37      0.00
    2    2    7      1.35      0.00
    3    2    7     -0.09      0.00
    4    2    7      0.29      0.00
    5    2    7      0.78      0.00
    6    2    7      0.73      0.00
    7    2    7      0.07      0.00
    8    2    7      0.01      0.00
    9    2    7      0.92      0.00
   10    2    7      0.12      0.00
   11    2    7     -0.98      0.00
  -14    3    7     -0.11      0.00
  -13    3    7      0.20      0.00
  -12    3    7      0.81      0.00
  -11    3    7      0.32      0.00
  -10    3    7     -0.43      0.00
   -9    3    7      0.13      0.00
   -8    3    7      0.84      0.00
   -7    3    7      0.91      0.00
   -6    3    7      0.75      0.00
   -5    3    7     -0.28      0.00
   -4    3    7     -1.10      0.00
   -3    3    7     -0.64      0.00
   -2    3    7     -1.41      0.00
   -1    3    7     -2.56      0.00
    0    3    7     -1.86      0.00
    1    3    7     -0.69      0.00
    2    3    7     -0.07      0.00
    3    3    7     -0.31      0.00
    4    3    7      0.65      0.00
    5    3    7      1.47      0.00
    6    3    7      0.21      0.00
    7    3    7     -0.24      0.00
    8    3    7     -0.27      0.00
    9    3    7     -0.64      0.00
   10    3    7     -0.03      0.00
   11    3    7     -0.18      0.00
  -14    4    7      0.18      0.00
  -13    4    7     -0.24      0.00
  -12    4    7     -0.45      0.00
  -11    4    7      0.51      0.00
  -10    4    7      1.08      0.00
   -9    4    7      0.38      0.00
   -8    4    7     -0.44      0.00
   -7    4    7     -0.29      0.00
   -6    4    7      0.31      0.00
   -5    4    7     -0.33      0.00
   -4    4    7     -1.80      0.00
   -3    4    7     -1.84      0.00
   -2    4    7     -0.31      0.00
   -1    4    7      0.71      0.00
    0    4    7      0.12      0.00
    1    4    7      0.72      0.00
    2    4    7      1.50      0.00
    3    4    7      0.54      0.00
    4    4    7     -0.12      0.00
    5    4    7      0.06      0.00
    6    4    7      0.36      0.00
    7    4    7     -0.06      0.00
    8    4    7      0.29      0.00
    9    4    7      0.78      0.00
   10    4    7      0.00      0.00
   11    4    7     -0.37      0.00
  -14    5    7     -0.27      0.00
  -13    5    7     -0.06      0.00
  -12    5    7      0.61      0.00
  -11    5    7      0.10      0.00
  -10    5    7     -0.75      0.00
   -9    5    7      0.11      0.00
   -8    5    7      0.90      0.00
   -7    5    7      0.36      0.00
   -6    5    7     -0.16      0.00
   -5    5    7     -0.08      0.00
   -4    5    7      0.13      0.00
   -3    5    7     -0.40      0.00
   -2    5    7     -2.68      0.00
   -1    5    7     -3.35      0.00
    0    5    7     -0.80      0.00
    1    5    7      0.48      0.00
    2    5    7     -0.43      0.00
    3    5    7     -1.11      0.00
    4    5    7      0.61      0.00
    5    5    7      1.60      0.00
    6    5    7     -0.13      0.00
    7    5    7     -0.70      0.00
    8    5    7     -0.11      0.00
    9    5    7      0.01      0.00
   10    5    7      0.41      0.00
   11    5    7      0.05      0.00
  -14    6    7      0.48      0.00
  -13    6    7     -0.26      0.00
  -12    6    7     -0.51      0.00
  -11    6    7      0.60      0.00
  -10    6    7      0.75      0.00
   -9    6    7      0.03      0.00
   -8    6    7     -0.24      0.00
   -7    6    7     -0.07      0.00
   -6    6    7      0.34      0.00
   -5    6    7     -0.15      0.00
   -4    6    7     -1.76      0.00
   -3    6    7     -1.89      0.00
   -2    6    7      0.23      0.00
   -1    6    7      1.69      0.00
    0    6    7      0.81      0.00
    1    6    7      0.63      0.00
    2    6    7      1.38      0.00
    3    6    7      0.20      0.00
    4    6    7     -1.35      0.00
    5    6    7     -0.76      0.00
    6    6    7      0.18      0.00
    7    6    7     -0.26      0.00
    8    6    7      0.20      0.00
    9    6    7      0.53      0.00
   10    6    7      0.07      0.00
   11    6    7      0.39      0.00
  -14    7    7     -0.32      0.00
  -13    7    7     -0.29      0.00
  -12    7    7      0.22      0.00
  -11    7    7      0.20      0.00
  -10    7    7     -0.45      0.00
   -9    7    7      0.06      0.00
   -8    7    7      0.56      0.00
   -7    7    7     -0.14      0.00
   -6    7    7     -0.77      0.00
   -5    7    7      0.26      0.00
   -4    7    7      1.37      0.00
   -3    7    7      0.03      0.00
   -2    7    7     -2.95      0.00
   -1    7    7     -3.11      0.00
    0    7    7      0.13      0.00
    1    7    7      0.76      0.00
    2    7    7     -1.27      0.00
    3    7    7     -1.67      0.00
    4    7    7      0.34      0.00
    5    7    7      1.16      0.00
    6    7    7     -0.25      0.00
    7    7    7     -0.81      0.00
    8    7    7      0.18      0.00
    9    7    7      0.80      0.00
   10    7    7      0.64      0.00
   11    7    7      0.23      0.00
  -13    8    7     -0.07      0.00
  -12    8    7     -0.41      0.00
  -11    8    7      0.61      0.00
  -10    8    7      0.30      0.00
   -9    8    7     -0.30      0.00
   -8    8    7      0.13      0.00
   -7    8    7      0.32      0.00
   -6    8    7     -0.08      0.00
   -5    8    7     -0.81      0.00
   -4    8    7     -1.30      0.00
   -3    8    7     -1.00      0.00
   -2    8    7      0.19      0.00
   -1    8    7      0.88      0.00
    0    8    7      0.12      0.00
    1    8    7      0.34      0.00
    2    8    7      1.11      0.00
    3    8    7     -0.35      0.00
    4    8    7     -1.66      0.00
    5    8    7     -0.22      0.00
    6    8    7      1.04      0.00
    7    8    7      0.15      0.00
    8    8    7     -0.05      0.00
    9    8    7      0.24      0.00
   10    8    7      0.11      0.00
   11    8    7      0.65      0.00
  -13    9    7     -0.38      0.00
  -12    9    7     -0.33      0.00
  -11    9    7      0.40      0.00
  -10    9    7      0.11      0.00
   -9    9    7     -0.33      0.00
   -8    9    7     -0.31      0.00
   -7    9    7     -0.17      0.00
   -6    9    7     -0.33      0.00
   -5    9    7      0.33      0.00
   -4    9    7      1.20      0.00
   -3    9    7      0.46      0.00
   -2    9    7     -1.36      0.00
   -1    9    7     -1.69      0.00
    0    9    7      0.14      0.00
    1    9    7      0.01      0.00
    2    9    7     -1.36      0.00
    3    9    7     -1.16      0.00
    4    9    7     -0.21      0.00
    5    9    7      0.18      0.00
    6    9    7     -0.16      0.00
    7    9    7     -0.65      0.00
    8    9    7     -0.02      0.00
    9    9    7      0.66      0.00
   10    9    7      0.15      0.00
  -13   10    7      0.21      0.00
  -12   10    7     -0.18      0.00
  -11   10    7      0.59      0.00
  -10   10    7      0.27      0.00
   -9   10    7     -0.16      0.00
   -8   10    7      0.25      0.00
   -7   10    7      0.20      0.00
   -6   10    7     -0.37      0.00
   -5   10    7     -0.91      0.00
   -4   10    7     -0.63      0.00
   -3   10    7     -0.81      0.00
   -2   10    7     -0.76      0.00
   -1   10    7     -0.07      0.00
    0   10    7     -0.46      0.00
    1   10    7     -0.39      0.00
    2   10    7      0.14      0.00
    3   10    7     -0.47      0.00
    4   10    7     -0.51      0.00
    5   10    7      0.87      0.00
    6   10    7      1.75      0.00
    7   10    7      0.70      0.00
    8   10    7     -0.26      0.00
    9   10    7     -0.03      0.00
   10   10    7      0.03      0.00
  -13   11    7     -0.35      0.00
  -12   11    7     -0.91      0.00
  -11   11    7      0.31      0.00
  -10   11    7      0.51      0.00
   -9   11    7     -0.64      0.00
   -8   11    7     -1.00      0.00
   -7   11    7      0.07      0.00
   -6   11    7      0.49      0.00
   -5   11    7      0.01      0.00
   -4   11    7      0.08      0.00
   -3   11    7      0.67      0.00
   -2   11    7      0.47      0.00
   -1   11    7     -0.37      0.00
    0   11    7     -0.24      0.00
    1   11    7     -0.41      0.00
    2   11    7     -0.28      0.00
    3   11    7     -0.22      0.00
    4   11    7     -1.03      0.00
    5   11    7     -0.79      0.00
    6   11    7      0.02      0.00
    7   11    7     -0.32      0.00
    8   11    7     -0.39      0.00
    9   11    7     -0.01      0.00
   10   11    7     -0.40      0.00
  -13   12    7      0.64      0.00
  -12   12    7      0.26      0.00
  -11   12    7      0.53      0.00
  -10   12    7      0.51      0.00
   -9   12    7      0.36      0.00
   -8   12    7      0.22      0.00
   -7   12    7     -0.20      0.00
   -6   12    7      0.04      0.00
   -5   12    7      0.42      0.00
   -4   12    7      0.52      0.00
   -3   12    7     -1.09      0.00
   -2   12    7     -1.44      0.00
   -1   12    7      0.15      0.00
    0   12    7     -0.39      0.00
    1   12    7     -1.71      0.00
    2   12    7     -1.44      0.00
    3   12    7     -0.18      0.00
    4   12    7      0.68      0.00
    5   12    7      0.53      0.00
    6   12    7      0.72      0.00
    7   12    7      0.56      0.00
    8   12    7     -0.40      0.00
    9   12    7     -0.19      0.00
   10   12    7     -0.02      0.00
  -13   13    7     -0.29      0.00
  -12   13    7     -1.06      0.00
  -11   13    7      0.14      0.00
  -10   13    7      0.75      0.00
   -9   13    7     -0.17      0.00
   -8   13    7     -0.56      0.00
   -7   13    7      0.57      0.00
   -6   13    7      0.98      0.00
   -5   13    7     -0.19      0.00
   -4   13    7     -0.54      0.00
   -3   13    7      0.52      0.00
   -2   13    7      0.54      0.00
   -1   13    7     -0.46      0.00
    0   13    7     -0.51      0.00
    1   13    7     -0.21      0.00
    2   13    7      0.50      0.00
    3   13    7     -0.08      0.00
    4   13    7     -1.47      0.00
    5   13    7     -0.75      0.00
    6   13    7      0.36      0.00
    7   13    7      0.17      0.00
    8   13    7     -0.13      0.00
    9   13    7     -0.06      0.00
   10   13    7     -0.24      0.00
  -13   14    7      1.12      0.00
  -12   14    7      0.78      0.00
  -11   14    7      0.36      0.00
  -10   14    7      0.40      0.00
   -9   14    7      0.60      0.00
   -8   14    7      0.18      0.00
   -7   14    7     -0.57      0.00
   -6   14    7      0.28      0.00
   -5   14    7      1.41      0.00
   -4   14    7      1.28      0.00
   -3   14    7     -1.00      0.00
   -2   14    7     -1.12      0.00
   -1   14    7      0.89      0.00
    0   14    7     -0.14      0.00
    1   14    7     -2.45      0.00
    2   14    7     -1.99      0.00
    3   14    7      0.57      0.00
    4   14    7      1.13      0.00
    5   14    7     -0.70      0.00
    6   14    7     -0.86      0.00
    7   14    7      0.18      0.00
    8   14    7     -0.21      0.00
    9   14    7     -0.12      0.00
   10   14    7      0.03      0.00
  -12   15    7     -0.78      0.00
  -11   15    7     -0.14      0.00
  -10   15    7      0.43      0.00
   -9   15    7      0.33      0.00
   -8   15    7      0.36      0.00
   -7   15    7      1.06      0.00
   -6   15    7      1.11      0.00
   -5   15    7     -0.01      0.00
   -4   15    7     -0.18      0.00
   -3   15    7      0.35      0.00
   -2   15    7     -0.34      0.00
   -1   15    7     -0.80      0.00
    0   15    7     -0.10      0.00
    1   15    7      0.24      0.00
    2   15    7      0.33      0.00
    3   15    7     -0.46      0.00
    4   15    7     -0.94      0.00
    5   15    7      0.13      0.00
    6   15    7      0.35      0.00
    7   15    7      0.19      0.00
    8   15    7      0.38      0.00
    9   15    7      0.36      0.00
  -12   16    7      0.90      0.00
  -11   16    7      0.11      0.00
  -10   16    7     -0.07      0.00
   -9   16    7      0.39      0.00
   -8   16    7      0.31      0.00
   -7   16    7     -0.54      0.00
   -6   16    7     -0.04      0.00
   -5   16    7      0.89      0.00
   -4   16    7      1.12      0.00
   -3   16    7     -0.30      0.00
   -2   16    7     -0.31      0.00
   -1   16    7      0.95      0.00
    0   16    7     -0.05      0.00
    1   16    7     -1.74      0.00
    2   16    7     -1.07      0.00
    3   16    7      1.04      0.00
    4   16    7      0.91      0.00
    5   16    7     -0.89      0.00
    6   16    7     -1.01      0.00
    7   16    7      0.13      0.00
    8   16    7      0.10      0.00
    9   16    7      0.01      0.00
  -12   17    7     -0.38      0.00
  -11   17    7     -0.57      0.00
  -10   17    7     -0.48      0.00
   -9   17    7     -0.02      0.00
   -8   17    7      0.47      0.00
   -7   17    7      1.01      0.00
   -6   17    7      0.97      0.00
   -5   17    7      0.10      0.00
   -4   17    7      0.10      0.00
   -3   17    7      0.26      0.00
   -2   17    7     -0.42      0.00
   -1   17    7     -0.12      0.00
    0   17    7      0.64      0.00
    1   17    7      0.46      0.00
    2   17    7      0.06      0.00
    3   17    7     -0.31      0.00
    4   17    7     -0.11      0.00
    5   17    7      0.57      0.00
    6   17    7     -0.18      0.00
    7   17    7     -0.36      0.00
    8   17    7      0.46      0.00
    9   17    7      0.54      0.00
  -12   18    7      0.48      0.00
  -11   18    7     -0.02      0.00
  -10   18    7     -0.42      0.00
   -9   18    7      0.09      0.00
   -8   18    7      0.46      0.00
   -7   18    7     -0.13      0.00
   -6   18    7     -0.13      0.00
   -5   18    7      0.14      0.00
   -4   18    7      0.88      0.00
   -3   18    7      0.67      0.00
   -2   18    7      0.27      0.00
   -1   18    7      0.42      0.00
    0   18    7      0.04      0.00
    1   18    7     -0.45      0.00
    2   18    7     -0.28      0.00
    3   18    7      0.28      0.00
    4   18    7      0.25      0.00
    5   18    7      0.10      0.00
    6   18    7     -0.17      0.00
    7   18    7     -0.15      0.00
    8   18    7     -0.07      0.00
    9   18    7     -0.08      0.00
  -11   19    7     -0.70      0.00
  -10   19    7     -0.92      0.00
   -9   19    7     -0.37      0.00
   -8   19    7     -0.01      0.00
   -7   19    7      0.40      0.00
   -6   19    7      0.67      0.00
   -5   19    7     -0.14      0.00
   -4   19    7     -0.36      0.00
   -3   19    7      0.02      0.00
   -2   19    7      0.17      0.00
   -1   19    7      0.54      0.00
    0   19    7      0.29      0.00
    1   19    7     -0.13      0.00
    2   19    7      0.08      0.00
    3   19    7      0.23      0.00
    4   19    7     -0.11      0.00
    5   19    7      0.22      0.00
    6   19    7     -0.13      0.00
    7   19    7     -0.49      0.00
    8   19    7      0.29      0.00
  -11   20    7      0.09      0.00
  -10   20    7     -0.41      0.00
   -9   20    7     -0.11      0.00
   -8   20    7      0.16      0.00
   -7   20    7     -0.15      0.00
   -6   20    7     -0.04      0.00
   -5   20    7     -0.13      0.00
   -4   20    7      0.62      0.00
   -3   20    7      0.91      0.00
   -2   20    7      0.25      0.00
   -1   20    7      0.18      0.00
    0   20    7      0.37      0.00
    1   20    7      0.26      0.00
    2   20    7     -0.40      0.00
    3   20    7     -0.75      0.00
    4   20    7     -0.01      0.00
    5   20    7      0.99      0.00
    6   20    7      0.31      0.00
    7   20    7     -0.67      0.00
    8   20    7     -0.50      0.00
  -11   21    7     -0.45      0.00
  -10   21    7     -0.46      0.00
   -9   21    7      0.11      0.00
   -8   21    7     -0.23      0.00
   -7   21    7     -0.44      0.00
   -6   21    7      0.27      0.00
   -5   21    7     -0.22      0.00
   -4   21    7     -0.69      0.00
   -3   21    7     -0.01      0.00
   -2   21    7      0.57      0.00
   -1   21    7      0.26      0.00
    0   21    7     -0.94      0.00
    1   21    7     -0.98      0.00
    2   21    7      0.17      0.00
    3   21    7      0.38      0.00
    4   21    7     -0.85      0.00
    5   21    7      0.00      0.00
    6   21    7      0.98      0.00
    7   21    7      0.03      0.00
    8   21    7      0.02      0.00
  -10   22    7     -0.20      0.00
   -9   22    7     -0.13      0.00
   -8   22    7     -0.29      0.00
   -7   22    7     -0.64      0.00
   -6   22    7     -0.31      0.00
   -5   22    7     -0.49      0.00
   -4   22    7     -0.24      0.00
   -3   22    7      0.09      0.00
   -2   22    7     -0.10      0.00
   -1   22    7      0.41      0.00
    0   22    7      0.67      0.00
    1   22    7      0.28      0.00
    2   22    7     -0.53      0.00
    3   22    7     -0.54      0.00
    4   22    7      0.39      0.00
    5   22    7      0.86      0.00
    6   22    7      0.21      0.00
    7   22    7     -0.56      0.00
  -10   23    7      0.03      0.00
   -9   23    7      0.71      0.00
   -8   23    7     -0.21      0.00
   -7   23    7     -1.21      0.00
   -6   23    7     -0.05      0.00
   -5   23    7      0.13      0.00
   -4   23    7     -0.38      0.00
   -3   23    7      0.26      0.00
   -2   23    7      0.62      0.00
   -1   23    7     -0.07      0.00
    0   23    7     -1.18      0.00
    1   23    7     -0.84      0.00
    2   23    7      0.32      0.00
    3   23    7      0.19      0.00
    4   23    7     -1.17      0.00
    5   23    7      0.28      0.00
    6   23    7      1.84      0.00
    7   23    7      0.21      0.00
   -9   24    7      0.07      0.00
   -8   24    7     -0.12      0.00
   -7   24    7     -0.53      0.00
   -6   24    7     -0.32      0.00
   -5   24    7     -0.56      0.00
   -4   24    7     -0.86      0.00
   -3   24    7     -0.54      0.00
   -2   24    7     -0.18      0.00
   -1   24    7      0.55      0.00
    0   24    7      0.52      0.00
    1   24    7      0.14      0.00
    2   24    7     -0.09      0.00
    3   24    7      0.39      0.00
    4   24    7      0.51      0.00
    5   24    7     -0.27      0.00
    6   24    7     -0.04      0.00
    7   24    7      0.16      0.00
   -9   25    7      0.85      0.00
   -8   25    7     -0.22      0.00
   -7   25    7     -1.46      0.00
   -6   25    7     -0.05      0.00
   -5   25    7      0.53      0.00
   -4   25    7     -0.18      0.00
   -3   25    7      0.11      0.00
   -2   25    7      0.36      0.00
   -1   25    7      0.06      0.00
    0   25    7     -0.37      0.00
    1   25    7     -0.11      0.00
    2   25    7      0.30      0.00
    3   25    7     -0.01      0.00
    4   25    7     -0.71      0.00
    5   25    7      0.43      0.00
    6   25    7      1.36      0.00
   -8   26    7      0.33      0.00
   -7   26    7      0.14      0.00
   -6   26    7      0.21      0.00
   -5   26    7      0.17      0.00
   -4   26    7     -0.34      0.00
   -3   26    7     -0.22      0.00
   -2   26    7     -0.04      0.00
   -1   26    7      0.18      0.00
    0   26    7      0.03      0.00
    1   26    7      0.19      0.00
    2   26    7      0.49      0.00
    3   26    7      0.81      0.00
    4   26    7      0.07      0.00
    5   26    7     -1.12      0.00
    6   26    7     -0.06      0.00
   -8   27    7     -0.17      0.00
   -7   27    7     -1.05      0.00
   -6   27    7      0.28      0.00
   -5   27    7      0.63      0.00
   -4   27    7     -0.36      0.00
   -3   27    7     -0.27      0.00
   -2   27    7      0.23      0.00
   -1   27    7      0.31      0.00
    0   27    7      0.04      0.00
    1   27    7      0.04      0.00
    2   27    7     -0.02      0.00
    3   27    7     -0.16      0.00
    4   27    7     -0.16      0.00
    5   27    7      0.00      0.00
   -7   28    7      0.26      0.00
   -6   28    7      0.40      0.00
   -5   28    7      0.88      0.00
   -4   28    7      0.48      0.00
   -3   28    7      0.15      0.00
   -2   28    7     -0.24      0.00
   -1   28    7     -0.36      0.00
    0   28    7     -0.28      0.00
    1   28    7      0.26      0.00
    2   28    7      0.67      0.00
    3   28    7      0.59      0.00
    4   28    7     -0.08      0.00
   -6   29    7      0.38      0.00
   -5   29    7      0.41      0.00
   -4   29    7     -0.27      0.00
   -3   29    7      0.07      0.00
   -2   29    7      0.74      0.00
   -1   29    7      0.54      0.00
    0   29    7     -0.10      0.00
    1   29    7     -0.15      0.00
    2   29    7     -0.12      0.00
    3   29    7     -0.13      0.00
   -5   30    7      0.85      0.00
   -4   30    7      0.68      0.00
   -3   30    7      0.07      0.00
   -2   30    7     -0.49      0.00
   -1   30    7     -0.31      0.00
    0   30    7     -0.13      0.00
    1   30    7      0.00      0.00
    2   30    7      0.25      0.00
   -4   31    7      0.11      0.00
   -3   31    7      0.75      0.00
   -2   31    7      1.10      0.00
   -1   31    7      0.47      0.00
    0   31    7     -0.14      0.00
    1   31    7     -0.04      0.00
  -13    0    8     -0.30      0.00
  -12    0    8     -0.17      0.00
  -11    0    8     -0.10      0.00
  -10    0    8     -0.42      0.00
   -9    0    8     -0.50      0.00
   -8    0    8     -0.79      0.00
   -7    0    8     -0.49      0.00
   -6    0    8     -0.08      0.00
   -5    0    8      0.37      0.00
   -4    0    8     -0.03      0.00
   -3    0    8     -1.02      0.00
   -2    0    8     -0.15      0.00
   -1    0    8      0.78      0.00
    0    0    8      1.37      0.00
    1    0    8      0.25      0.00
    2    0    8     -0.54      0.00
    3    0    8      0.76      0.00
    4    0    8     -0.33      0.00
    5    0    8     -1.30      0.00
    6    0    8     -0.49      0.00
    7    0    8      0.11      0.00
    8    0    8      0.01      0.00
    9    0    8     -1.12      0.00
   10    0    8     -0.72      0.00
  -13    1    8     -0.10      0.00
  -12    1    8     -0.34      0.00
  -11    1    8     -0.28      0.00
  -10    1    8      0.05      0.00
   -9    1    8      0.17      0.00
   -8    1    8     -0.19      0.00
   -7    1    8     -0.55      0.00
   -6    1    8     -0.44      0.00
   -5    1    8      0.24      0.00
   -4    1    8      0.66      0.00
   -3    1    8     -0.04      0.00
   -2    1    8     -0.06      0.00
   -1    1    8      1.06      0.00
    0    1    8      1.25      0.00
    1    1    8      0.31      0.00
    2    1    8     -0.36      0.00
    3    1    8      0.12      0.00
    4    1    8      0.21      0.00
    5    1    8     -0.62      0.00
    6    1    8     -0.57      0.00
    7    1    8      0.03      0.00
    8    1    8      0.31      0.00
    9    1    8      0.40      0.00
   10    1    8      0.10      0.00
  -13    2    8     -0.14      0.00
  -12    2    8     -0.06      0.00
  -11    2    8     -0.18      0.00
  -10    2    8     -0.55      0.00
   -9    2    8     -0.40      0.00
   -8    2    8     -0.33      0.00
   -7    2    8     -0.02      0.00
   -6    2    8     -0.04      0.00
   -5    2    8      0.16      0.00
   -4    2    8      0.62      0.00
   -3    2    8      0.24      0.00
   -2    2    8      0.08      0.00
   -1    2    8      0.02      0.00
    0    2    8      0.78      0.00
    1    2    8      0.21      0.00
    2    2    8     -0.83      0.00
    3    2    8      0.09      0.00
    4    2    8     -0.35      0.00
    5    2    8     -0.92      0.00
    6    2    8     -0.44      0.00
    7    2    8      0.01      0.00
    8    2    8     -0.10      0.00
    9    2    8     -0.98      0.00
   10    2    8     -0.49      0.00
  -13    3    8     -0.03      0.00
  -12    3    8     -0.58      0.00
  -11    3    8     -0.48      0.00
  -10    3    8      0.27      0.00
   -9    3    8      0.41      0.00
   -8    3    8     -0.42      0.00
   -7    3    8     -1.01      0.00
   -6    3    8     -0.59      0.00
   -5    3    8      0.58      0.00
   -4    3    8      1.15      0.00
   -3    3    8     -0.11      0.00
   -2    3    8      0.32      0.00
   -1    3    8      2.61      0.00
    0    3    8      2.40      0.00
    1    3    8      0.09      0.00
    2    3    8     -1.03      0.00
    3    3    8      0.41      0.00
    4    3    8      0.56      0.00
    5    3    8     -1.39      0.00
    6    3    8     -1.18      0.00
    7    3    8      0.29      0.00
    8    3    8      0.77      0.00
    9    3    8      0.72      0.00
   10    3    8      0.05      0.00
  -13    4    8      0.04      0.00
  -12    4    8      0.17      0.00
  -11    4    8     -0.28      0.00
  -10    4    8     -0.65      0.00
   -9    4    8     -0.17      0.00
   -8    4    8      0.32      0.00
   -7    4    8      0.59      0.00
   -6    4    8     -0.11      0.00
   -5    4    8     -0.36      0.00
   -4    4    8      1.44      0.00
   -3    4    8      2.04      0.00
   -2    4    8      0.19      0.00
   -1    4    8     -1.44      0.00
    0    4    8     -0.26      0.00
    1    4    8      0.24      0.00
    2    4    8     -1.26      0.00
    3    4    8     -0.91      0.00
    4    4    8      0.15      0.00
    5    4    8      0.30      0.00
    6    4    8     -0.08      0.00
    7    4    8      0.01      0.00
    8    4    8     -0.15      0.00
    9    4    8     -0.64      0.00
   10    4    8     -0.11      0.00
  -13    5    8      0.32      0.00
  -12    5    8     -0.27      0.00
  -11    5    8     -0.35      0.00
  -10    5    8      0.40      0.00
   -9    5    8      0.38      0.00
   -8    5    8     -0.46      0.00
   -7    5    8     -0.56      0.00
   -6    5    8      0.20      0.00
   -5    5    8      0.47      0.00
   -4    5    8      0.21      0.00
   -3    5    8     -0.13      0.00
   -2    5    8      1.34      0.00
   -1    5    8      3.07      0.00
    0    5    8      1.57      0.00
    1    5    8     -0.81      0.00
    2    5    8     -1.01      0.00
    3    5    8      0.81      0.00
    4    5    8      0.71      0.00
    5    5    8     -1.28      0.00
    6    5    8     -0.94      0.00
    7    5    8      0.59      0.00
    8    5    8      0.67      0.00
    9    5    8      0.11      0.00
   10    5    8     -0.35      0.00
  -13    6    8     -0.12      0.00
  -12    6    8      0.34      0.00
  -11    6    8     -0.21      0.00
  -10    6    8     -0.45      0.00
   -9    6    8      0.08      0.00
   -8    6    8      0.33      0.00
   -7    6    8      0.43      0.00
   -6    6    8     -0.10      0.00
   -5    6    8     -0.44      0.00
   -4    6    8      1.29      0.00
   -3    6    8      2.04      0.00
   -2    6    8     -0.04      0.00
   -1    6    8     -1.90      0.00
    0    6    8     -0.61      0.00
    1    6    8      0.35      0.00
    2    6    8     -1.31      0.00
    3    6    8     -1.02      0.00
    4    6    8      1.10      0.00
    5    6    8      1.34      0.00
    6    6    8      0.15      0.00
    7    6    8      0.10      0.00
    8    6    8      0.03      0.00
    9    6    8     -0.32      0.00
   10    6    8      0.00      0.00
  -13    7    8      0.46      0.00
  -12    7    8      0.06      0.00
  -11    7    8     -0.37      0.00
  -10    7    8      0.13      0.00
   -9    7    8      0.24      0.00
   -8    7    8     -0.23      0.00
   -7    7    8     -0.07      0.00
   -6    7    8      0.61      0.00
   -5    7    8     -0.02      0.00
   -4    7    8     -0.92      0.00
   -3    7    8     -0.15      0.00
   -2    7    8      1.78      0.00
   -1    7    8      2.46      0.00
    0    7    8      0.51      0.00
    1    7    8     -0.74      0.00
    2    7    8      0.01      0.00
    3    7    8      1.05      0.00
    4    7    8      0.64      0.00
    5    7    8     -0.60      0.00
    6    7    8     -0.51      0.00
    7    7    8      0.51      0.00
    8    7    8      0.25      0.00
    9    7    8     -0.71      0.00
   10    7    8     -0.60      0.00
  -13    8    8     -0.45      0.00
  -12    8    8      0.43      0.00
  -11    8    8     -0.10      0.00
  -10    8    8     -0.24      0.00
   -9    8    8      0.15      0.00
   -8    8    8     -0.12      0.00
   -7    8    8      0.01      0.00
   -6    8    8      0.39      0.00
   -5    8    8      0.37      0.00
   -4    8    8      0.75      0.00
   -3    8    8      1.04      0.00
   -2    8    8      0.40      0.00
   -1    8    8     -0.80      0.00
    0    8    8     -0.28      0.00
    1    8    8      0.43      0.00
    2    8    8     -0.78      0.00
    3    8    8     -0.47      0.00
    4    8    8      1.06      0.00
    5    8    8      0.73      0.00
    6    8    8     -0.53      0.00
    7    8    8     -0.30      0.00
    8    8    8      0.14      0.00
    9    8    8     -0.17      0.00
   10    8    8     -0.09      0.00
  -13    9    8      0.24      0.00
  -12    9    8      0.34      0.00
  -11    9    8     -0.35      0.00
  -10    9    8     -0.19      0.00
   -9    9    8      0.42      0.00
   -8    9    8      0.49      0.00
   -7    9    8      0.13      0.00
   -6    9    8      0.13      0.00
   -5    9    8     -0.32      0.00
   -4    9    8     -0.84      0.00
   -3    9    8     -0.21      0.00
   -2    9    8      0.77      0.00
   -1    9    8      1.11      0.00
    0    9    8      0.11      0.00
    1    9    8      0.10      0.00
    2    9    8      0.79      0.00
    3    9    8      0.70      0.00
    4    9    8      0.60      0.00
    5    9    8      0.26      0.00
    6    9    8     -0.24      0.00
    7    9    8      0.25      0.00
    8    9    8      0.22      0.00
    9    9    8     -0.66      0.00
   10    9    8     -0.21      0.00
  -13   10    8     -0.58      0.00
  -12   10    8      0.37      0.00
  -11   10    8     -0.18      0.00
  -10   10    8     -0.41      0.00
   -9   10    8     -0.10      0.00
   -8   10    8     -0.44      0.00
   -7   10    8     -0.05      0.00
   -6   10    8      0.73      0.00
   -5   10    8      0.73      0.00
   -4   10    8      0.09      0.00
   -3   10    8      0.57      0.00
   -2   10    8      1.54      0.00
   -1   10    8      0.51      0.00
    0   10    8     -0.01      0.00
    1   10    8      0.75      0.00
    2   10    8      0.40      0.00
    3   10    8      0.13      0.00
    4   10    8     -0.10      0.00
    5   10    8     -0.65      0.00
    6   10    8     -1.08      0.00
    7   10    8     -0.69      0.00
    8   10    8      0.19      0.00
    9   10    8     -0.04      0.00
   10   10    8     -0.14      0.00
  -13   11    8     -0.03      0.00
  -12   11    8      0.68      0.00
  -11   11    8     -0.03      0.00
  -10   11    8     -0.42      0.00
   -9   11    8      0.47      0.00
   -8   11    8      1.06      0.00
   -7   11    8      0.16      0.00
   -6   11    8     -0.55      0.00
   -5   11    8     -0.18      0.00
   -4   11    8      0.21      0.00
   -3   11    8     -0.10      0.00
   -2   11    8     -0.43      0.00
   -1   11    8      0.17      0.00
    0   11    8      0.14      0.00
    1   11    8      0.47      0.00
    2   11    8      0.58      0.00
    3   11    8      0.17      0.00
    4   11    8      0.86      0.00
    5   11    8      0.84      0.00
    6   11    8     -0.19      0.00
    7   11    8      0.03      0.00
    8   11    8      0.47      0.00
    9   11    8     -0.03      0.00
  -12   12    8     -0.04      0.00
  -11   12    8     -0.47      0.00
  -10   12    8     -0.72      0.00
   -9   12    8     -0.43      0.00
   -8   12    8     -0.47      0.00
   -7   12    8      0.21      0.00
   -6   12    8      0.41      0.00
   -5   12    8     -0.21      0.00
   -4   12    8     -0.89      0.00
   -3   12    8      0.51      0.00
   -2   12    8      2.08      0.00
   -1   12    8      0.67      0.00
    0   12    8     -0.04      0.00
    1   12    8      1.28      0.00
    2   12    8      1.56      0.00
    3   12    8      0.38      0.00
    4   12    8     -1.00      0.00
    5   12    8     -0.76      0.00
    6   12    8     -0.20      0.00
    7   12    8     -0.32      0.00
    8   12    8      0.32      0.00
    9   12    8      0.14      0.00
  -12   13    8      0.91      0.00
  -11   13    8      0.29      0.00
  -10   13    8     -0.70      0.00
   -9   13    8     -0.19      0.00
   -8   13    8      0.58      0.00
   -7   13    8     -0.12      0.00
   -6   13    8     -0.91      0.00
   -5   13    8     -0.13      0.00
   -4   13    8      0.74      0.00
   -3   13    8      0.13      0.00
   -2   13    8     -0.37      0.00
   -1   13    8      0.33      0.00
    0   13    8      0.22      0.00
    1   13    8      0.32      0.00
    2   13    8      0.25      0.00
    3   13    8      0.19      0.00
    4   13    8      1.06      0.00
    5   13    8      0.61      0.00
    6   13    8     -0.36      0.00
    7   13    8     -0.18      0.00
    8   13    8      0.26      0.00
    9   13    8      0.10      0.00
  -12   14    8     -0.66      0.00
  -11   14    8     -0.68      0.00
  -10   14    8     -0.59      0.00
   -9   14    8     -0.44      0.00
   -8   14    8     -0.47      0.00
   -7   14    8      0.42      0.00
   -6   14    8      0.18      0.00
   -5   14    8     -0.97      0.00
   -4   14    8     -1.46      0.00
   -3   14    8      0.31      0.00
   -2   14    8      1.55      0.00
   -1   14    8      0.20      0.00
    0   14    8     -0.02      0.00
    1   14    8      1.31      0.00
    2   14    8      1.47      0.00
    3   14    8      0.00      0.00
    4   14    8     -1.03      0.00
    5   14    8      0.09      0.00
    6   14    8      0.97      0.00
    7   14    8      0.20      0.00
    8   14    8      0.22      0.00
    9   14    8      0.13      0.00
  -12   15    8      0.85      0.00
  -11   15    8      0.49      0.00
  -10   15    8     -0.56      0.00
   -9   15    8     -0.71      0.00
   -8   15    8     -0.35      0.00
   -7   15    8     -0.58      0.00
   -6   15    8     -0.97      0.00
   -5   15    8     -0.43      0.00
   -4   15    8      0.20      0.00
   -3   15    8      0.13      0.00
   -2   15    8      0.26      0.00
   -1   15    8      0.42      0.00
    0   15    8     -0.12      0.00
    1   15    8      0.08      0.00
    2   15    8      0.23      0.00
    3   15    8      0.26      0.00
    4   15    8      0.64      0.00
    5   15    8     -0.09      0.00
    6   15    8     -0.37      0.00
    7   15    8     -0.13      0.00
    8   15    8     -0.20      0.00
    9   15    8     -0.23      0.00
  -12   16    8     -0.85      0.00
  -11   16    8     -0.51      0.00
  -10   16    8      0.01      0.00
   -9   16    8     -0.10      0.00
   -8   16    8     -0.63      0.00
   -7   16    8      0.21      0.00
   -6   16    8      0.31      0.00
   -5   16    8     -0.56      0.00
   -4   16    8     -1.29      0.00
   -3   16    8     -0.25      0.00
   -2   16    8      0.68      0.00
   -1   16    8      0.12      0.00
    0   16    8      0.13      0.00
    1   16    8      0.56      0.00
    2   16    8      0.38      0.00
    3   16    8     -0.36      0.00
    4   16    8     -0.47      0.00
    5   16    8      0.31      0.00
    6   16    8      0.85      0.00
    7   16    8      0.29      0.00
    8   16    8     -0.05      0.00
  -11   17    8      0.57      0.00
  -10   17    8      0.22      0.00
   -9   17    8     -0.21      0.00
   -8   17    8     -0.59      0.00
   -7   17    8     -0.79      0.00
   -6   17    8     -0.84      0.00
   -5   17    8     -0.53      0.00
   -4   17    8     -0.31      0.00
   -3   17    8     -0.04      0.00
   -2   17    8      0.23      0.00
   -1   17    8     -0.31      0.00
    0   17    8     -0.56      0.00
    1   17    8      0.11      0.00
    2   17    8      0.09      0.00
    3   17    8     -0.33      0.00
    4   17    8     -0.02      0.00
    5   17    8     -0.22      0.00
    6   17    8     -0.04      0.00
    7   17    8      0.18      0.00
    8   17    8     -0.32      0.00
  -11   18    8     -0.14      0.00
  -10   18    8      0.53      0.00
   -9   18    8      0.32      0.00
   -8   18    8     -0.63      0.00
   -7   18    8     -0.22      0.00
   -6   18    8      0.15      0.00
   -5   18    8     -0.04      0.00
   -4   18    8     -1.07      0.00
   -3   18    8     -1.04      0.00
   -2   18    8      0.10      0.00
   -1   18    8      0.33      0.00
    0   18    8      0.05      0.00
    1   18    8     -0.22      0.00
    2   18    8     -0.20      0.00
    3   18    8      0.05      0.00
    4   18    8      0.16      0.00
    5   18    8     -0.31      0.00
    6   18    8      0.02      0.00
    7   18    8      0.49      0.00
    8   18    8      0.09      0.00
  -11   19    8      0.39      0.00
  -10   19    8      0.76      0.00
   -9   19    8      0.44      0.00
   -8   19    8     -0.28      0.00
   -7   19    8     -0.48      0.00
   -6   19    8     -0.52      0.00
   -5   19    8     -0.19      0.00
   -4   19    8     -0.05      0.00
   -3   19    8     -0.10      0.00
   -2   19    8     -0.24      0.00
   -1   19    8     -0.75      0.00
    0   19    8     -0.03      0.00
    1   19    8      0.78      0.00
    2   19    8      0.00      0.00
    3   19    8     -0.96      0.00
    4   19    8     -0.02      0.00
    5   19    8      0.38      0.00
    6   19    8     -0.09      0.00
    7   19    8      0.10      0.00
    8   19    8     -0.12      0.00
  -10   20    8      0.54      0.00
   -9   20    8      0.61      0.00
   -8   20    8     -0.04      0.00
   -7   20    8     -0.04      0.00
   -6   20    8     -0.10      0.00
   -5   20    8      0.10      0.00
   -4   20    8     -0.69      0.00
   -3   20    8     -1.15      0.00
   -2   20    8      0.02      0.00
   -1   20    8      0.21      0.00
    0   20    8     -0.32      0.00
    1   20    8     -0.34      0.00
    2   20    8      0.12      0.00
    3   20    8      0.53      0.00
    4   20    8      0.13      0.00
    5   20    8     -0.89      0.00
    6   20    8     -0.33      0.00
    7   20    8      0.83      0.00
  -10   21    8      0.55      0.00
   -9   21    8      0.29      0.00
   -8   21    8     -0.06      0.00
   -7   21    8      0.37      0.00
   -6   21    8      0.05      0.00
   -5   21    8      0.06      0.00
   -4   21    8      0.30      0.00
   -3   21    8     -0.21      0.00
   -2   21    8     -0.56      0.00
   -1   21    8     -0.33      0.00
    0   21    8      1.02      0.00
    1   21    8      1.49      0.00
    2   21    8      0.21      0.00
    3   21    8     -0.94      0.00
    4   21    8      0.42      0.00
    5   21    8      0.70      0.00
    6   21    8     -0.89      0.00
    7   21    8     -0.38      0.00
  -10   22    8      0.17      0.00
   -9   22    8      0.53      0.00
   -8   22    8      0.57      0.00
   -7   22    8      0.63      0.00
   -6   22    8      0.11      0.00
   -5   22    8      0.39      0.00
   -4   22    8      0.36      0.00
   -3   22    8     -0.26      0.00
   -2   22    8      0.14      0.00
   -1   22    8     -0.23      0.00
    0   22    8     -0.53      0.00
    1   22    8     -0.04      0.00
    2   22    8      0.38      0.00
    3   22    8      0.24      0.00
    4   22    8     -0.49      0.00
    5   22    8     -0.76      0.00
    6   22    8     -0.10      0.00
   -9   23    8     -0.23      0.00
   -8   23    8      0.03      0.00
   -7   23    8      1.40      0.00
   -6   23    8      0.65      0.00
   -5   23    8     -0.18      0.00
   -4   23    8      0.26      0.00
   -3   23    8     -0.24      0.00
   -2   23    8     -0.60      0.00
   -1   23    8     -0.06      0.00
    0   23    8      1.00      0.00
    1   23    8      1.25      0.00
    2   23    8      0.37      0.00
    3   23    8     -0.60      0.00
    4   23    8      0.40      0.00
    5   23    8      0.24      0.00
    6   23    8     -1.54      0.00
   -9   24    8      0.17      0.00
   -8   24    8      0.34      0.00
   -7   24    8      0.67      0.00
   -6   24    8      0.29      0.00
   -5   24    8      0.47      0.00
   -4   24    8      1.11      0.00
   -3   24    8      0.48      0.00
   -2   24    8     -0.05      0.00
   -1   24    8     -0.55      0.00
    0   24    8     -0.34      0.00
    1   24    8      0.05      0.00
    2   24    8      0.06      0.00
    3   24    8     -0.28      0.00
    4   24    8     -0.67      0.00
    5   24    8      0.12      0.00
   -8   25    8     -0.01      0.00
   -7   25    8      1.74      0.00
   -6   25    8      0.72      0.00
   -5   25    8     -0.67      0.00
   -4   25    8      0.21      0.00
   -3   25    8      0.29      0.00
   -2   25    8     -0.30      0.00
   -1   25    8     -0.35      0.00
    0   25    8      0.16      0.00
    1   25    8      0.56      0.00
    2   25    8      0.36      0.00
    3   25    8     -0.28      0.00
    4   25    8     -0.01      0.00
    5   25    8     -0.22      0.00
   -8   26    8     -0.29      0.00
   -7   26    8      0.05      0.00
   -6   26    8      0.05      0.00
   -5   26    8     -0.13      0.00
   -4   26    8      0.64      0.00
   -3   26    8      0.35      0.00
   -2   26    8     -0.28      0.00
   -1   26    8     -0.38      0.00
    0   26    8     -0.02      0.00
    1   26    8     -0.28      0.00
    2   26    8     -0.48      0.00
    3   26    8     -0.38      0.00
    4   26    8     -0.28      0.00
   -7   27    8      1.09      0.00
   -6   27    8      0.19      0.00
   -5   27    8     -1.02      0.00
   -4   27    8      0.22      0.00
   -3   27    8      0.85      0.00
   -2   27    8     -0.12      0.00
   -1   27    8     -0.75      0.00
    0   27    8     -0.17      0.00
    1   27    8      0.41      0.00
    2   27    8      0.31      0.00
    3   27    8      0.07      0.00
    4   27    8     -0.05      0.00
   -6   28    8     -0.07      0.00
   -5   28    8     -0.72      0.00
   -4   28    8     -0.25      0.00
   -3   28    8      0.09      0.00
   -2   28    8      0.09      0.00
   -1   28    8      0.16      0.00
    0   28    8      0.13      0.00
    1   28    8     -0.45      0.00
    2   28    8     -0.63      0.00
    3   28    8     -0.27      0.00
   -5   29    8     -0.84      0.00
   -4   29    8     -0.02      0.00
   -3   29    8      0.49      0.00
   -2   29    8     -0.51      0.00
   -1   29    8     -0.96      0.00
    0   29    8      0.05      0.00
    1   29    8      0.43      0.00
    2   29    8      0.00      0.00
   -3   30    8      0.08      0.00
   -2   30    8      0.58      0.00
   -1   30    8      0.31      0.00
    0   30    8     -0.01      0.00
  -13    0    9      0.35      0.00
  -12    0    9      0.16      0.00
  -11    0    9      0.01      0.00
  -10    0    9      0.43      0.00
   -9    0    9      0.28      0.00
   -8    0    9      0.86      0.00
   -7    0    9      0.64      0.00
   -6    0    9     -0.07      0.00
   -5    0    9      0.14      0.00
   -4    0    9      0.11      0.00
   -3    0    9      0.30      0.00
   -2    0    9      0.11      0.00
   -1    0    9      0.59      0.00
    0    0    9      0.41      0.00
    1    0    9     -0.34      0.00
    2    0    9     -0.20      0.00
    3    0    9     -0.83      0.00
    4    0    9      0.06      0.00
    5    0    9      1.25      0.00
    6    0    9      0.53      0.00
    7    0    9      0.16      0.00
    8    0    9      0.32      0.00
    9    0    9      0.94      0.00
  -13    1    9      0.12      0.00
  -12    1    9      0.27      0.00
  -11    1    9      0.17      0.00
  -10    1    9     -0.01      0.00
   -9    1    9     -0.16      0.00
   -8    1    9      0.00      0.00
   -7    1    9      0.37      0.00
   -6    1    9      0.33      0.00
   -5    1    9     -0.11      0.00
   -4    1    9     -0.48      0.00
   -3    1    9      0.05      0.00
   -2    1    9      0.23      0.00
   -1    1    9     -0.78      0.00
    0    1    9     -1.14      0.00
    1    1    9     -0.29      0.00
    2    1    9      0.42      0.00
    3    1    9      0.04      0.00
    4    1    9     -0.28      0.00
    5    1    9      0.43      0.00
    6    1    9      0.67      0.00
    7    1    9      0.02      0.00
    8    1    9     -0.37      0.00
    9    1    9     -0.36      0.00
  -13    2    9      0.19      0.00
  -12    2    9      0.14      0.00
  -11    2    9      0.12      0.00
  -10    2    9      0.46      0.00
   -9    2    9      0.13      0.00
   -8    2    9      0.43      0.00
   -7    2    9      0.23      0.00
   -6    2    9     -0.17      0.00
   -5    2    9      0.25      0.00
   -4    2    9     -0.33      0.00
   -3    2    9     -0.69      0.00
   -2    2    9     -0.24      0.00
   -1    2    9      0.93      0.00
    0    2    9      0.61      0.00
    1    2    9     -0.39      0.00
    2    2    9      0.10      0.00
    3    2    9     -0.18      0.00
    4    2    9      0.10      0.00
    5    2    9      0.76      0.00
    6    2    9      0.37      0.00
    7    2    9      0.22      0.00
    8    2    9      0.32      0.00
    9    2    9      0.77      0.00
  -13    3    9      0.06      0.00
  -12    3    9      0.38      0.00
  -11    3    9      0.27      0.00
  -10    3    9     -0.08      0.00
   -9    3    9     -0.35      0.00
   -8    3    9      0.00      0.00
   -7    3    9      0.66      0.00
   -6    3    9      0.42      0.00
   -5    3    9     -0.34      0.00
   -4    3    9     -0.89      0.00
   -3    3    9      0.04      0.00
   -2    3    9      0.13      0.00
   -1    3    9     -1.91      0.00
    0    3    9     -2.21      0.00
    1    3    9     -0.17      0.00
    2    3    9      1.24      0.00
    3    3    9      0.15      0.00
    4    3    9     -0.71      0.00
    5    3    9      0.83      0.00
    6    3    9      1.34      0.00
    7    3    9     -0.12      0.00
    8    3    9     -0.85      0.00
    9    3    9     -0.67      0.00
  -13    4    9      0.06      0.00
  -12    4    9      0.11      0.00
  -11    4    9      0.21      0.00
  -10    4    9      0.31      0.00
   -9    4    9     -0.18      0.00
   -8    4    9     -0.18      0.00
   -7    4    9     -0.30      0.00
   -6    4    9     -0.28      0.00
   -5    4    9      0.47      0.00
   -4    4    9     -0.77      0.00
   -3    4    9     -1.97      0.00
   -2    4    9     -0.60      0.00
   -1    4    9      1.54      0.00
    0    4    9      0.96      0.00
    1    4    9     -0.46      0.00
    2    4    9      0.65      0.00
    3    4    9      0.92      0.00
    4    4    9     -0.12      0.00
    5    4    9     -0.52      0.00
    6    4    9     -0.20      0.00
    7    4    9      0.10      0.00
    8    4    9      0.16      0.00
    9    4    9      0.40      0.00
  -13    5    9     -0.32      0.00
  -12    5    9     -0.01      0.00
  -11    5    9      0.14      0.00
  -10    5    9     -0.08      0.00
   -9    5    9     -0.23      0.00
   -8    5    9      0.06      0.00
   -7    5    9      0.38      0.00
   -6    5    9     -0.13      0.00
   -5    5    9     -0.32      0.00
   -4    5    9     -0.26      0.00
   -3    5    9     -0.06      0.00
   -2    5    9     -0.71      0.00
   -1    5    9     -2.13      0.00
    0    5    9     -1.47      0.00
    1    5    9      0.53      0.00
    2    5    9      1.35      0.00
    3    5    9      0.07      0.00
    4    5    9     -0.80      0.00
    5    5    9      0.48      0.00
    6    5    9      0.95      0.00
    7    5    9     -0.31      0.00
    8    5    9     -0.73      0.00
    9    5    9     -0.15      0.00
  -13    6    9      0.35      0.00
  -12    6    9      0.09      0.00
  -11    6    9      0.01      0.00
  -10    6    9     -0.09      0.00
   -9    6    9     -0.37      0.00
   -8    6    9     -0.09      0.00
   -7    6    9     -0.14      0.00
   -6    6    9     -0.48      0.00
   -5    6    9      0.23      0.00
   -4    6    9     -0.49      0.00
   -3    6    9     -1.60      0.00
   -2    6    9     -0.55      0.00
   -1    6    9      1.34      0.00
    0    6    9      0.96      0.00
    1    6    9     -0.39      0.00
    2    6    9      0.84      0.00
    3    6    9      1.26      0.00
    4    6    9     -0.54      0.00
    5    6    9     -1.43      0.00
    6    6    9     -0.64      0.00
    7    6    9     -0.17      0.00
    8    6    9     -0.14      0.00
    9    6    9      0.19      0.00
  -13    7    9     -0.46      0.00
  -12    7    9     -0.22      0.00
  -11    7    9      0.24      0.00
  -10    7    9      0.05      0.00
   -9    7    9     -0.22      0.00
   -8    7    9     -0.03      0.00
   -7    7    9      0.18      0.00
   -6    7    9     -0.26      0.00
   -5    7    9      0.02      0.00
   -4    7    9      0.56      0.00
   -3    7    9     -0.07      0.00
   -2    7    9     -1.13      0.00
   -1    7    9     -1.55      0.00
    0    7    9     -0.43      0.00
    1    7    9      0.47      0.00
    2    7    9      0.32      0.00
    3    7    9     -0.26      0.00
    4    7    9     -0.60      0.00
    5    7    9     -0.13      0.00
    6    7    9      0.30      0.00
    7    7    9     -0.19      0.00
    8    7    9     -0.23      0.00
    9    7    9      0.58      0.00
  -13    8    9      0.76      0.00
  -12    8    9     -0.06      0.00
  -11    8    9     -0.30      0.00
  -10    8    9     -0.30      0.00
   -9    8    9     -0.25      0.00
   -8    8    9      0.49      0.00
   -7    8    9      0.32      0.00
   -6    8    9     -0.93      0.00
   -5    8    9     -0.69      0.00
   -4    8    9     -0.09      0.00
   -3    8    9     -0.41      0.00
   -2    8    9     -0.88      0.00
   -1    8    9     -0.05      0.00
    0    8    9      0.54      0.00
    1    8    9     -0.30      0.00
    2    8    9      0.36      0.00
    3    8    9      0.73      0.00
    4    8    9     -0.31      0.00
    5    8    9     -0.68      0.00
    6    8    9     -0.13      0.00
    7    8    9     -0.03      0.00
    8    8    9     -0.18      0.00
    9    8    9      0.29      0.00
  -12    9    9     -0.13      0.00
  -11    9    9      0.34      0.00
  -10    9    9      0.02      0.00
   -9    9    9     -0.65      0.00
   -8    9    9     -0.61      0.00
   -7    9    9      0.14      0.00
   -6    9    9      0.28      0.00
   -5    9    9      0.24      0.00
   -4    9    9      0.40      0.00
   -3    9    9     -0.07      0.00
   -2    9    9     -0.41      0.00
   -1    9    9     -0.56      0.00
    0    9    9      0.00      0.00
    1    9    9     -0.15      0.00
    2    9    9     -0.78      0.00
    3    9    9     -0.45      0.00
    4    9    9     -0.39      0.00
    5    9    9     -0.54      0.00
    6    9    9      0.03      0.00
    7    9    9      0.06      0.00
    8    9    9     -0.13      0.00
    9    9    9      0.57      0.00
  -12   10    9     -0.27      0.00
  -11   10    9     -0.24      0.00
  -10   10    9      0.15      0.00
   -9   10    9      0.11      0.00
   -8   10    9      0.76      0.00
   -7   10    9      0.42      0.00
   -6   10    9     -1.06      0.00
   -5   10    9     -1.06      0.00
   -4   10    9      0.25      0.00
   -3   10    9      0.19      0.00
   -2   10    9     -1.64      0.00
   -1   10    9     -1.41      0.00
    0   10    9      0.10      0.00
    1   10    9     -0.42      0.00
    2   10    9     -0.57      0.00
    3   10    9     -0.12      0.00
    4   10    9      0.39      0.00
    5   10    9      0.74      0.00
    6   10    9      0.49      0.00
    7   10    9      0.17      0.00
    8   10    9     -0.16      0.00
    9   10    9      0.33      0.00
  -12   11    9     -0.14      0.00
  -11   11    9      0.10      0.00
  -10   11    9      0.00      0.00
   -9   11    9     -0.81      0.00
   -8   11    9     -1.06      0.00
   -7   11    9      0.05      0.00
   -6   11    9      0.76      0.00
   -5   11    9      0.14      0.00
   -4   11    9     -0.52      0.00
   -3   11    9     -0.34      0.00
   -2   11    9      0.39      0.00
   -1   11    9     -0.03      0.00
    0   11    9     -0.04      0.00
    1   11    9     -0.39      0.00
    2   11    9     -1.05      0.00
    3   11    9     -0.48      0.00
    4   11    9     -0.46      0.00
    5   11    9     -0.61      0.00
    6   11    9      0.14      0.00
    7   11    9      0.17      0.00
    8   11    9     -0.43      0.00
  -12   12    9     -0.20      0.00
  -11   12    9      0.29      0.00
  -10   12    9      0.89      0.00
   -9   12    9      0.37      0.00
   -8   12    9      0.52      0.00
   -7   12    9      0.15      0.00
   -6   12    9     -0.58      0.00
   -5   12    9     -0.24      0.00
   -4   12    9      0.81      0.00
   -3   12    9      0.22      0.00
   -2   12    9     -1.85      0.00
   -1   12    9     -1.55      0.00
    0   12    9     -0.10      0.00
    1   12    9     -0.59      0.00
    2   12    9     -1.06      0.00
    3   12    9     -0.55      0.00
    4   12    9      0.61      0.00
    5   12    9      0.95      0.00
    6   12    9      0.08      0.00
    7   12    9     -0.15      0.00
    8   12    9     -0.34      0.00
  -12   13    9     -0.35      0.00
  -11   13    9     -0.32      0.00
  -10   13    9      0.29      0.00
   -9   13    9     -0.01      0.00
   -8   13    9     -0.57      0.00
   -7   13    9      0.08      0.00
   -6   13    9      0.82      0.00
   -5   13    9      0.20      0.00
   -4   13    9     -0.80      0.00
   -3   13    9     -0.60      0.00
   -2   13    9      0.23      0.00
   -1   13    9     -0.23      0.00
    0   13    9     -0.11      0.00
    1   13    9     -0.32      0.00
    2   13    9     -0.97      0.00
    3   13    9     -0.50      0.00
    4   13    9     -0.56      0.00
    5   13    9     -0.33      0.00
    6   13    9      0.39      0.00
    7   13    9      0.21      0.00
    8   13    9     -0.45      0.00
  -12   14    9      0.21      0.00
  -11   14    9      0.80      0.00
  -10   14    9      1.13      0.00
   -9   14    9      0.30      0.00
   -8   14    9      0.29      0.00
   -7   14    9     -0.07      0.00
   -6   14    9     -0.20      0.00
   -5   14    9      0.46      0.00
   -4   14    9      1.11      0.00
   -3   14    9      0.18      0.00
   -2   14    9     -1.32      0.00
   -1   14    9     -0.97      0.00
    0   14    9     -0.27      0.00
    1   14    9     -0.40      0.00
    2   14    9     -0.44      0.00
    3   14    9     -0.22      0.00
    4   14    9      0.21      0.00
    5   14    9      0.15      0.00
    6   14    9     -0.56      0.00
    7   14    9     -0.43      0.00
    8   14    9     -0.35      0.00
  -11   15    9     -0.65      0.00
  -10   15    9      0.42      0.00
   -9   15    9      0.80      0.00
   -8   15    9      0.37      0.00
   -7   15    9      0.36      0.00
   -6   15    9      0.69      0.00
   -5   15    9      0.58      0.00
   -4   15    9      0.03      0.00
   -3   15    9     -0.38      0.00
   -2   15    9     -0.28      0.00
   -1   15    9     -0.17      0.00
    0   15    9      0.24      0.00
    1   15    9     -0.29      0.00
    2   15    9     -0.81      0.00
    3   15    9     -0.10      0.00
    4   15    9     -0.15      0.00
    5   15    9      0.02      0.00
    6   15    9      0.41      0.00
    7   15    9      0.19      0.00
    8   15    9     -0.11      0.00
  -11   16    9      0.73      0.00
  -10   16    9      0.59      0.00
   -9   16    9     -0.03      0.00
   -8   16    9      0.40      0.00
   -7   16    9      0.14      0.00
   -6   16    9     -0.13      0.00
   -5   16    9      0.25      0.00
   -4   16    9      0.95      0.00
   -3   16    9      0.44      0.00
   -2   16    9     -0.67      0.00
   -1   16    9     -0.69      0.00
    0   16    9     -0.38      0.00
    1   16    9      0.13      0.00
    2   16    9      0.48      0.00
    3   16    9      0.20      0.00
    4   16    9     -0.31      0.00
    5   16    9     -0.29      0.00
    6   16    9     -0.34      0.00
    7   16    9     -0.27      0.00
  -11   17    9     -0.75      0.00
  -10   17    9     -0.01      0.00
   -9   17    9      0.58      0.00
   -8   17    9      0.77      0.00
   -7   17    9      0.65      0.00
   -6   17    9      0.53      0.00
   -5   17    9      0.70      0.00
   -4   17    9      0.80      0.00
   -3   17    9      0.12      0.00
   -2   17    9     -0.32      0.00
   -1   17    9      0.46      0.00
    0   17    9      0.61      0.00
    1   17    9     -0.50      0.00
    2   17    9     -0.48      0.00
    3   17    9      0.84      0.00
    4   17    9      0.51      0.00
    5   17    9     -0.13      0.00
    6   17    9      0.05      0.00
    7   17    9      0.12      0.00
  -10   18    9     -0.19      0.00
   -9   18    9     -0.47      0.00
   -8   18    9      0.41      0.00
   -7   18    9      0.44      0.00
   -6   18    9      0.13      0.00
   -5   18    9      0.03      0.00
   -4   18    9      0.85      0.00
   -3   18    9      1.02      0.00
   -2   18    9     -0.28      0.00
   -1   18    9     -0.66      0.00
    0   18    9     -0.08      0.00
    1   18    9      0.50      0.00
    2   18    9      0.53      0.00
    3   18    9      0.04      0.00
    4   18    9     -0.52      0.00
    5   18    9     -0.04      0.00
    6   18    9      0.18      0.00
    7   18    9     -0.30      0.00
  -10   19    9     -0.44      0.00
   -9   19    9     -0.11      0.00
   -8   19    9      0.64      0.00
   -7   19    9      0.62      0.00
   -6   19    9      0.24      0.00
   -5   19    9      0.33      0.00
   -4   19    9      0.71      0.00
   -3   19    9      0.43      0.00
   -2   19    9     -0.05      0.00
   -1   19    9      0.60      0.00
    0   19    9      0.08      0.00
    1   19    9     -1.09      0.00
    2   19    9     -0.39      0.00
    3   19    9      1.32      0.00
    4   19    9      0.62      0.00
    5   19    9     -0.74      0.00
    6   19    9     -0.16      0.00
  -10   20    9     -0.45      0.00
   -9   20    9     -0.76      0.00
   -8   20    9     -0.15      0.00
   -7   20    9      0.10      0.00
   -6   20    9      0.33      0.00
   -5   20    9      0.10      0.00
   -4   20    9      0.56      0.00
   -3   20    9      1.09      0.00
   -2   20    9     -0.20      0.00
   -1   20    9     -0.42      0.00
    0   20    9      0.46      0.00
    1   20    9      0.33      0.00
    2   20    9     -0.13      0.00
    3   20    9     -0.18      0.00
    4   20    9     -0.09      0.00
    5   20    9      0.39      0.00
    6   20    9      0.24      0.00
   -9   21    9     -0.34      0.00
   -8   21    9      0.38      0.00
   -7   21    9     -0.10      0.00
   -6   21    9     -0.46      0.00
   -5   21    9     -0.06      0.00
   -4   21    9      0.31      0.00
   -3   21    9      0.57      0.00
   -2   21    9      0.21      0.00
   -1   21    9      0.05      0.00
    0   21    9     -0.82      0.00
    1   21    9     -1.50      0.00
    2   21    9     -0.70      0.00
    3   21    9      0.95      0.00
    4   21    9      0.41      0.00
    5   21    9     -0.88      0.00
    6   21    9      0.19      0.00
   -9   22    9     -0.63      0.00
   -8   22    9     -0.67      0.00
   -7   22    9     -0.60      0.00
   -6   22    9      0.01      0.00
   -5   22    9     -0.08      0.00
   -4   22    9     -0.37      0.00
   -3   22    9      0.26      0.00
   -2   22    9     -0.22      0.00
   -1   22    9      0.05      0.00
    0   22    9      0.65      0.00
    1   22    9     -0.11      0.00
    2   22    9     -0.48      0.00
    3   22    9      0.02      0.00
    4   22    9      0.56      0.00
    5   22    9      0.48      0.00
   -8   23    9      0.13      0.00
   -7   23    9     -1.14      0.00
   -6   23    9     -1.29      0.00
   -5   23    9     -0.07      0.00
   -4   23    9      0.11      0.00
   -3   23    9      0.39      0.00
   -2   23    9      0.28      0.00
   -1   23    9     -0.18      0.00
    0   23    9     -0.74      0.00
    1   23    9     -1.07      0.00
    2   23    9     -0.86      0.00
    3   23    9      0.46      0.00
    4   23    9      0.58      0.00
    5   23    9     -0.23      0.00
   -8   24    9     -0.42      0.00
   -7   24    9     -0.64      0.00
   -6   24    9     -0.36      0.00
   -5   24    9     -0.27      0.00
   -4   24    9     -1.04      0.00
   -3   24    9     -0.48      0.00
   -2   24    9      0.08      0.00
   -1   24    9      0.53      0.00
    0   24    9      0.42      0.00
    1   24    9     -0.21      0.00
    2   24    9     -0.12      0.00
    3   24    9      0.17      0.00
    4   24    9      0.57      0.00
   -7   25    9     -1.39      0.00
   -6   25    9     -1.36      0.00
   -5   25    9      0.33      0.00
   -4   25    9      0.06      0.00
   -3   25    9     -0.31      0.00
   -2   25    9      0.01      0.00
   -1   25    9      0.18      0.00
    0   25    9      0.04      0.00
    1   25    9     -0.46      0.00
    2   25    9     -0.74      0.00
    3   25    9      0.21      0.00
   -6   26    9     -0.34      0.00
   -5   26    9      0.00      0.00
   -4   26    9     -0.68      0.00
   -3   26    9     -0.47      0.00
   -2   26    9      0.37      0.00
   -1   26    9      0.59      0.00
    0   26    9      0.16      0.00
    1   26    9      0.20      0.00
    2   26    9      0.49      0.00
    3   26    9      0.05      0.00
   -5   27    9      0.77      0.00
   -4   27    9      0.17      0.00
   -3   27    9     -0.83      0.00
   -2   27    9     -0.22      0.00
   -1   27    9      0.64      0.00
    0   27    9      0.39      0.00
    1   27    9     -0.42      0.00
    2   27    9     -0.50      0.00
   -4   28    9      0.02      0.00
   -3   28    9     -0.28      0.00
   -2   28    9      0.02      0.00
   -1   28    9      0.10      0.00
    0   28    9      0.03      0.00
  -12    0   10      0.03      0.00
  -11    0   10      0.29      0.00
  -10    0   10     -0.79      0.00
   -9    0   10     -0.59      0.00
   -8    0   10     -0.49      0.00
   -7    0   10     -0.53      0.00
   -6    0   10      0.06      0.00
   -5    0   10     -0.49      0.00
   -4    0   10     -0.27      0.00
   -3    0   10      0.25      0.00
   -2    0   10      0.00      0.00
   -1    0   10     -1.24      0.00
    0    0   10     -1.61      0.00
    1    0   10      0.15      0.00
    2    0   10      0.90      0.00
    3    0   10      0.93      0.00
    4    0   10      0.30      0.00
    5    0   10     -0.77      0.00
    6    0   10     -0.52      0.00
    7    0   10     -0.63      0.00
    8    0   10     -0.80      0.00
  -12    1   10     -0.29      0.00
  -11    1   10     -0.09      0.00
  -10    1   10      0.07      0.00
   -9    1   10      0.07      0.00
   -8    1   10      0.04      0.00
   -7    1   10     -0.15      0.00
   -6    1   10     -0.12      0.00
   -5    1   10     -0.01      0.00
   -4    1   10      0.18      0.00
   -3    1   10      0.03      0.00
   -2    1   10     -0.16      0.00
   -1    1   10      0.45      0.00
    0    1   10      0.79      0.00
    1    1   10      0.24      0.00
    2    1   10     -0.23      0.00
    3    1   10     -0.09      0.00
    4    1   10      0.06      0.00
    5    1   10     -0.37      0.00
    6    1   10     -0.52      0.00
    7    1   10     -0.01      0.00
    8    1   10      0.29      0.00
  -12    2   10     -0.03      0.00
  -11    2   10      0.07      0.00
  -10    2   10     -0.72      0.00
   -9    2   10     -0.31      0.00
   -8    2   10     -0.11      0.00
   -7    2   10     -0.27      0.00
   -6    2   10      0.18      0.00
   -5    2   10     -0.39      0.00
   -4    2   10      0.02      0.00
   -3    2   10      0.88      0.00
   -2    2   10      0.38      0.00
   -1    2   10     -1.23      0.00
    0    2   10     -1.54      0.00
    1    2   10      0.16      0.00
    2    2   10      0.54      0.00
    3    2   10      0.43      0.00
    4    2   10      0.24      0.00
    5    2   10     -0.39      0.00
    6    2   10     -0.33      0.00
    7    2   10     -0.59      0.00
    8    2   10     -0.69      0.00
  -12    3   10     -0.42      0.00
  -11    3   10     -0.05      0.00
  -10    3   10      0.17      0.00
   -9    3   10      0.05      0.00
   -8    3   10      0.02      0.00
   -7    3   10     -0.22      0.00
   -6    3   10     -0.01      0.00
   -5    3   10      0.07      0.00
   -4    3   10      0.33      0.00
   -3    3   10      0.21      0.00
   -2    3   10     -0.04      0.00
   -1    3   10      1.08      0.00
    0    3   10      1.44      0.00
    1    3   10      0.13      0.00
    2    3   10     -0.78      0.00
    3    3   10     -0.34      0.00
    4    3   10      0.13      0.00
    5    3   10     -0.63      0.00
    6    3   10     -0.91      0.00
    7    3   10      0.15      0.00
    8    3   10      0.66      0.00
  -12    4   10     -0.20      0.00
  -11    4   10     -0.25      0.00
  -10    4   10     -0.33      0.00
   -9    4   10      0.29      0.00
   -8    4   10      0.37      0.00
   -7    4   10     -0.03      0.00
   -6    4   10      0.40      0.00
   -5    4   10     -0.11      0.00
   -4    4   10      0.30      0.00
   -3    4   10      1.49      0.00
   -2    4   10      0.81      0.00
   -1    4   10     -1.09      0.00
    0    4   10     -1.36      0.00
    1    4   10      0.05      0.00
    2    4   10     -0.22      0.00
    3    4   10     -0.50      0.00
    4    4   10      0.27      0.00
    5    4   10      0.53      0.00
    6    4   10      0.27      0.00
    7    4   10     -0.24      0.00
    8    4   10     -0.29      0.00
  -12    5   10      0.01      0.00
  -11    5   10      0.13      0.00
  -10    5   10      0.11      0.00
   -9    5   10     -0.18      0.00
   -8    5   10     -0.15      0.00
   -7    5   10     -0.10      0.00
   -6    5   10      0.33      0.00
   -5    5   10      0.12      0.00
   -4    5   10      0.01      0.00
   -3    5   10      0.42      0.00
   -2    5   10      0.64      0.00
   -1    5   10      1.15      0.00
    0    5   10      0.75      0.00
    1    5   10     -0.45      0.00
    2    5   10     -0.95      0.00
    3    5   10     -0.43      0.00
    4    5   10      0.18      0.00
    5    5   10     -0.15      0.00
    6    5   10     -0.33      0.00
    7    5   10      0.37      0.00
    8    5   10      0.50      0.00
  -12    6   10     -0.38      0.00
  -11    6   10     -0.17      0.00
  -10    6   10      0.36      0.00
   -9    6   10      0.71      0.00
   -8    6   10      0.11      0.00
   -7    6   10     -0.44      0.00
   -6    6   10      0.66      0.00
   -5    6   10      0.56      0.00
   -4    6   10      0.11      0.00
   -3    6   10      0.74      0.00
   -2    6   10      0.70      0.00
   -1    6   10     -0.39      0.00
    0    6   10     -0.95      0.00
    1    6   10     -0.22      0.00
    2    6   10     -0.69      0.00
    3    6   10     -0.91      0.00
    4    6   10      0.33      0.00
    5    6   10      1.06      0.00
    6    6   10      0.76      0.00
    7    6   10      0.30      0.00
    8    6   10      0.18      0.00
  -12    7   10      0.23      0.00
  -11    7   10     -0.01      0.00
  -10    7   10      0.02      0.00
   -9    7   10     -0.02      0.00
   -8    7   10     -0.05      0.00
   -7    7   10     -0.21      0.00
   -6    7   10      0.07      0.00
   -5    7   10     -0.07      0.00
   -4    7   10     -0.31      0.00
   -3    7   10      0.42      0.00
   -2    7   10      0.84      0.00
   -1    7   10      0.70      0.00
    0    7   10     -0.01      0.00
    1    7   10     -0.42      0.00
    2    7   10     -0.20      0.00
    3    7   10     -0.05      0.00
    4    7   10      0.19      0.00
    5    7   10      0.40      0.00
    6    7   10      0.31      0.00
    7    7   10      0.24      0.00
    8    7   10      0.02      0.00
  -12    8   10     -0.30      0.00
  -11    8   10      0.22      0.00
  -10    8   10      0.72      0.00
   -9    8   10      0.62      0.00
   -8    8   10     -0.59      0.00
   -7    8   10     -1.04      0.00
   -6    8   10      0.97      0.00
   -5    8   10      1.49      0.00
   -4    8   10     -0.02      0.00
   -3    8   10     -0.46      0.00
   -2    8   10      0.69      0.00
   -1    8   10      0.99      0.00
    0    8   10     -0.29      0.00
    1    8   10     -0.32      0.00
    2    8   10     -0.39      0.00
    3    8   10     -0.53      0.00
    4    8   10      0.06      0.00
    5    8   10      0.35      0.00
    6    8   10      0.37      0.00
    7    8   10      0.39      0.00
    8    8   10      0.28      0.00
  -12    9   10      0.00      0.00
  -11    9   10     -0.32      0.00
  -10    9   10      0.14      0.00
   -9    9   10      0.80      0.00
   -8    9   10      0.63      0.00
   -7    9   10     -0.40      0.00
   -6    9   10     -0.70      0.00
   -5    9   10     -0.17      0.00
   -4    9   10      0.09      0.00
   -3    9   10      0.42      0.00
   -2    9   10      0.14      0.00
   -1    9   10      0.05      0.00
    0    9   10     -0.09      0.00
    1    9   10      0.10      0.00
    2    9   10      0.75      0.00
    3    9   10      0.48      0.00
    4    9   10      0.17      0.00
    5    9   10      0.49      0.00
    6    9   10      0.34      0.00
    7    9   10     -0.08      0.00
    8    9   10     -0.11      0.00
  -12   10   10      0.05      0.00
  -11   10   10      0.36      0.00
  -10   10   10      0.20      0.00
   -9   10   10      0.16      0.00
   -8   10   10     -0.80      0.00
   -7   10   10     -1.09      0.00
   -6   10   10      0.88      0.00
   -5   10   10      1.63      0.00
   -4   10   10     -0.04      0.00
   -3   10   10     -0.88      0.00
   -2   10   10      1.00      0.00
   -1   10   10      2.01      0.00
    0   10   10      0.26      0.00
    1   10   10     -0.10      0.00
    2   10   10      0.32      0.00
    3   10   10      0.15      0.00
    4   10   10     -0.23      0.00
    5   10   10     -0.67      0.00
    6   10   10     -0.26      0.00
    7   10   10      0.23      0.00
    8   10   10      0.23      0.00
  -11   11   10     -0.31      0.00
  -10   11   10      0.25      0.00
   -9   11   10      1.24      0.00
   -8   11   10      1.19      0.00
   -7   11   10     -0.35      0.00
   -6   11   10     -1.14      0.00
   -5   11   10     -0.04      0.00
   -4   11   10      0.92      0.00
   -3   11   10      0.71      0.00
   -2   11   10     -0.46      0.00
   -1   11   10     -0.15      0.00
    0   11   10      0.22      0.00
    1   11   10      0.34      0.00
    2   11   10      1.18      0.00
    3   11   10      0.83      0.00
    4   11   10      0.21      0.00
    5   11   10      0.27      0.00
    6   11   10      0.00      0.00
    7   11   10     -0.21      0.00
  -11   12   10     -0.03      0.00
  -10   12   10     -0.86      0.00
   -9   12   10     -0.30      0.00
   -8   12   10     -0.33      0.00
   -7   12   10     -0.57      0.00
   -6   12   10      0.30      0.00
   -5   12   10      0.67      0.00
   -4   12   10     -0.27      0.00
   -3   12   10     -0.59      0.00
   -2   12   10      1.04      0.00
   -1   12   10      1.80      0.00
    0   12   10      0.44      0.00
    1   12   10      0.13      0.00
    2   12   10      0.46      0.00
    3   12   10      0.38      0.00
    4   12   10     -0.02      0.00
    5   12   10     -0.61      0.00
    6   12   10     -0.17      0.00
    7   12   10      0.31      0.00
  -11   13   10      0.06      0.00
  -10   13   10      0.00      0.00
   -9   13   10      0.45      0.00
   -8   13   10      0.77      0.00
   -7   13   10     -0.22      0.00
   -6   13   10     -0.97      0.00
   -5   13   10     -0.08      0.00
   -4   13   10      0.93      0.00
   -3   13   10      0.83      0.00
   -2   13   10     -0.27      0.00
   -1   13   10      0.13      0.00
    0   13   10      0.33      0.00
    1   13   10      0.29      0.00
    2   13   10      1.27      0.00
    3   13   10      0.84      0.00
    4   13   10      0.11      0.00
    5   13   10      0.03      0.00
    6   13   10     -0.22      0.00
    7   13   10     -0.20      0.00
  -11   14   10     -0.52      0.00
  -10   14   10     -1.47      0.00
   -9   14   10     -0.48      0.00
   -8   14   10      0.07      0.00
   -7   14   10     -0.10      0.00
   -6   14   10     -0.15      0.00
   -5   14   10     -0.15      0.00
   -4   14   10     -0.38      0.00
   -3   14   10     -0.16      0.00
   -2   14   10      0.76      0.00
   -1   14   10      1.01      0.00
    0   14   10      0.48      0.00
    1   14   10      0.04      0.00
    2   14   10     -0.25      0.00
    3   14   10     -0.03      0.00
    4   14   10      0.44      0.00
    5   14   10      0.17      0.00
    6   14   10      0.16      0.00
    7   14   10      0.28      0.00
  -11   15   10      0.53      0.00
  -10   15   10     -0.19      0.00
   -9   15   10     -0.65      0.00
   -8   15   10     -0.25      0.00
   -7   15   10     -0.30      0.00
   -6   15   10     -0.57      0.00
   -5   15   10     -0.40      0.00
   -4   15   10     -0.14      0.00
   -3   15   10      0.29      0.00
   -2   15   10      0.19      0.00
   -1   15   10      0.12      0.00
    0   15   10     -0.13      0.00
    1   15   10      0.26      0.00
    2   15   10      1.17      0.00
    3   15   10      0.19      0.00
    4   15   10     -0.49      0.00
    5   15   10     -0.10      0.00
    6   15   10     -0.12      0.00
  -10   16   10     -1.04      0.00
   -9   16   10     -0.29      0.00
   -8   16   10     -0.06      0.00
   -7   16   10     -0.15      0.00
   -6   16   10     -0.27      0.00
   -5   16   10     -0.20      0.00
   -4   16   10     -0.27      0.00
   -3   16   10     -0.12      0.00
   -2   16   10      0.46      0.00
   -1   16   10      0.60      0.00
    0   16   10      0.44      0.00
    1   16   10     -0.29      0.00
    2   16   10     -0.83      0.00
    3   16   10     -0.32      0.00
    4   16   10      0.68      0.00
    5   16   10      0.52      0.00
    6   16   10      0.02      0.00
  -10   17   10      0.06      0.00
   -9   17   10     -0.83      0.00
   -8   17   10     -0.94      0.00
   -7   17   10     -0.64      0.00
   -6   17   10     -0.31      0.00
   -5   17   10     -0.53      0.00
   -4   17   10     -1.10      0.00
   -3   17   10     -0.51      0.00
   -2   17   10      0.36      0.00
   -1   17   10     -0.22      0.00
    0   17   10     -0.61      0.00
    1   17   10      0.42      0.00
    2   17   10      0.86      0.00
    3   17   10     -0.79      0.00
    4   17   10     -1.16      0.00
    5   17   10      0.09      0.00
    6   17   10      0.24      0.00
  -10   18   10     -0.10      0.00
   -9   18   10      0.19      0.00
   -8   18   10     -0.19      0.00
   -7   18   10     -0.34      0.00
   -6   18   10     -0.44      0.00
   -5   18   10     -0.22      0.00
   -4   18   10     -0.34      0.00
   -3   18   10     -0.59      0.00
   -2   18   10      0.23      0.00
   -1   18   10      0.55      0.00
    0   18   10      0.01      0.00
    1   18   10     -0.55      0.00
    2   18   10     -0.46      0.00
    3   18   10     -0.04      0.00
    4   18   10      0.49      0.00
    5   18   10      0.26      0.00
    6   18   10     -0.16      0.00
   -9   19   10     -0.27      0.00
   -8   19   10     -1.05      0.00
   -7   19   10     -0.86      0.00
   -6   19   10     -0.04      0.00
   -5   19   10     -0.22      0.00
   -4   19   10     -1.18      0.00
   -3   19   10     -0.95      0.00
   -2   19   10      0.33      0.00
   -1   19   10     -0.08      0.00
    0   19   10     -0.20      0.00
    1   19   10      0.85      0.00
    2   19   10      0.72      0.00
    3   19   10     -1.04      0.00
    4   19   10     -1.13      0.00
    5   19   10      0.51      0.00
   -9   20   10      0.58      0.00
   -8   20   10      0.20      0.00
   -7   20   10     -0.03      0.00
   -6   20   10     -0.47      0.00
   -5   20   10     -0.39      0.00
   -4   20   10     -0.28      0.00
   -3   20   10     -0.77      0.00
   -2   20   10      0.17      0.00
   -1   20   10      0.50      0.00
    0   20   10     -0.56      0.00
    1   20   10     -0.47      0.00
    2   20   10      0.34      0.00
    3   20   10      0.21      0.00
    4   20   10     -0.11      0.00
    5   20   10     -0.17      0.00
   -8   21   10     -0.71      0.00
   -7   21   10     -0.36      0.00
   -6   21   10      0.70      0.00
   -5   21   10      0.27      0.00
   -4   21   10     -0.76      0.00
   -3   21   10     -0.99      0.00
   -2   21   10      0.18      0.00
   -1   21   10      0.47      0.00
    0   21   10      0.60      0.00
    1   21   10      1.05      0.00
    2   21   10      0.79      0.00
    3   21   10     -0.48      0.00
    4   21   10     -0.77      0.00
   -8   22   10      0.61      0.00
   -7   22   10      0.49      0.00
   -6   22   10     -0.07      0.00
   -5   22   10     -0.21      0.00
   -4   22   10      0.31      0.00
   -3   22   10     -0.22      0.00
   -2   22   10      0.18      0.00
   -1   22   10      0.25      0.00
    0   22   10     -0.71      0.00
    1   22   10     -0.06      0.00
    2   22   10      0.68      0.00
    3   22   10      0.07      0.00
    4   22   10     -0.58      0.00
   -7   23   10      0.58      0.00
   -6   23   10      1.57      0.00
   -5   23   10      0.52      0.00
   -4   23   10     -0.37      0.00
   -3   23   10     -0.61      0.00
   -2   23   10      0.03      0.00
   -1   23   10      0.58      0.00
    0   23   10      0.64      0.00
    1   23   10      0.59      0.00
    2   23   10      0.68      0.00
    3   23   10     -0.05      0.00
   -6   24   10      0.35      0.00
   -5   24   10      0.16      0.00
   -4   24   10      0.79      0.00
   -3   24   10      0.33      0.00
   -2   24   10     -0.09      0.00
   -1   24   10     -0.26      0.00
    0   24   10     -0.54      0.00
    1   24   10      0.17      0.00
    2   24   10      0.30      0.00
   -5   25   10      0.25      0.00
   -4   25   10     -0.18      0.00
   -3   25   10      0.08      0.00
   -2   25   10      0.14      0.00
   -1   25   10      0.20      0.00
    0   25   10      0.07      0.00
    1   25   10      0.11      0.00
   -4   26   10      0.59      0.00
   -3   26   10      0.40      0.00
   -2   26   10     -0.34      0.00
   -1   26   10     -0.59      0.00
    0   26   10     -0.37      0.00
  -12    0   11      0.00      0.00
  -11    0   11     -0.57      0.00
  -10    0   11      0.81      0.00
   -9    0   11      1.12      0.00
   -8    0   11      0.33      0.00
   -7    0   11      0.11      0.00
   -6    0   11     -0.28      0.00
   -5    0   11      0.57      0.00
   -4    0   11      0.68      0.00
   -3    0   11     -0.25      0.00
   -2    0   11      0.00      0.00
   -1    0   11      1.13      0.00
    0    0   11      1.72      0.00
    1    0   11      0.27      0.00
    2    0   11     -1.09      0.00
    3    0   11     -1.23      0.00
    4    0   11     -0.71      0.00
    5    0   11      0.42      0.00
    6    0   11      0.49      0.00
    7    0   11      0.79      0.00
  -12    1   11      0.31      0.00
  -11    1   11      0.17      0.00
  -10    1   11     -0.10      0.00
   -9    1   11     -0.10      0.00
   -8    1   11     -0.04      0.00
   -7    1   11      0.08      0.00
   -6    1   11     -0.06      0.00
   -5    1   11     -0.04      0.00
   -4    1   11      0.04      0.00
   -3    1   11     -0.01      0.00
   -2    1   11      0.11      0.00
   -1    1   11     -0.16      0.00
    0    1   11     -0.49      0.00
    1    1   11     -0.16      0.00
    2    1   11      0.11      0.00
    3    1   11      0.00      0.00
    4    1   11      0.08      0.00
    5    1   11      0.43      0.00
    6    1   11      0.42      0.00
    7    1   11     -0.06      0.00
  -12    2   11      0.02      0.00
  -11    2   11     -0.24      0.00
  -10    2   11      0.80      0.00
   -9    2   11      0.75      0.00
   -8    2   11     -0.10      0.00
   -7    2   11     -0.05      0.00
   -6    2   11     -0.30      0.00
   -5    2   11      0.34      0.00
   -4    2   11      0.37      0.00
   -3    2   11     -0.63      0.00
   -2    2   11     -0.31      0.00
   -1    2   11      0.98      0.00
    0    2   11      1.54      0.00
    1    2   11      0.25      0.00
    2    2   11     -0.69      0.00
    3    2   11     -0.82      0.00
    4    2   11     -0.70      0.00
    5    2   11      0.18      0.00
    6    2   11      0.40      0.00
    7    2   11      0.72      0.00
  -12    3   11      0.47      0.00
  -11    3   11      0.19      0.00
  -10    3   11     -0.23      0.00
   -9    3   11     -0.05      0.00
   -8    3   11      0.04      0.00
   -7    3   11      0.12      0.00
   -6    3   11     -0.33      0.00
   -5    3   11     -0.18      0.00
   -4    3   11      0.11      0.00
   -3    3   11     -0.22      0.00
   -2    3   11     -0.05      0.00
   -1    3   11     -0.36      0.00
    0    3   11     -0.79      0.00
    1    3   11     -0.03      0.00
    2    3   11      0.49      0.00
    3    3   11      0.15      0.00
    4    3   11      0.17      0.00
    5    3   11      0.74      0.00
    6    3   11      0.64      0.00
    7    3   11     -0.32      0.00
  -12    4   11      0.13      0.00
  -11    4   11      0.31      0.00
  -10    4   11      0.53      0.00
   -9    4   11     -0.08      0.00
   -8    4   11     -0.70      0.00
   -7    4   11     -0.05      0.00
   -6    4   11     -0.29      0.00
   -5    4   11     -0.22      0.00
   -4    4   11     -0.07      0.00
   -3    4   11     -0.89      0.00
   -2    4   11     -0.63      0.00
   -1    4   11      0.61      0.00
    0    4   11      1.13      0.00
    1    4   11      0.36      0.00
    2    4   11      0.23      0.00
    3    4   11      0.03      0.00
    4    4   11     -0.70      0.00
    5    4   11     -0.40      0.00
    6    4   11      0.01      0.00
    7    4   11      0.33      0.00
  -11    5   11     -0.09      0.00
  -10    5   11     -0.16      0.00
   -9    5   11      0.32      0.00
   -8    5   11      0.34      0.00
   -7    5   11      0.10      0.00
   -6    5   11     -0.53      0.00
   -5    5   11     -0.26      0.00
   -4    5   11      0.20      0.00
   -3    5   11     -0.52      0.00
   -2    5   11     -0.60      0.00
   -1    5   11     -0.32      0.00
    0    5   11     -0.18      0.00
    1    5   11      0.46      0.00
    2    5   11      0.73      0.00
    3    5   11      0.33      0.00
    4    5   11      0.06      0.00
    5    5   11      0.17      0.00
    6    5   11      0.01      0.00
    7    5   11     -0.58      0.00
  -11    6   11      0.44      0.00
  -10    6   11     -0.12      0.00
   -9    6   11     -0.74      0.00
   -8    6   11     -0.52      0.00
   -7    6   11      0.59      0.00
   -6    6   11     -0.28      0.00
   -5    6   11     -1.04      0.00
   -4    6   11     -0.23      0.00
   -3    6   11     -0.15      0.00
   -2    6   11     -0.40      0.00
   -1    6   11     -0.10      0.00
    0    6   11      0.56      0.00
    1    6   11      0.59      0.00
    2    6   11      0.89      0.00
    3    6   11      0.58      0.00
    4    6   11     -0.56      0.00
    5    6   11     -0.70      0.00
    6    6   11     -0.39      0.00
    7    6   11     -0.25      0.00
  -11    7   11     -0.12      0.00
  -10    7   11     -0.06      0.00
   -9    7   11      0.23      0.00
   -8    7   11      0.26      0.00
   -7    7   11      0.26      0.00
   -6    7   11     -0.05      0.00
   -5    7   11     -0.06      0.00
   -4    7   11      0.16      0.00
   -3    7   11     -0.62      0.00
   -2    7   11     -0.68      0.00
   -1    7   11      0.00      0.00
    0    7   11      0.30      0.00
    1    7   11      0.38      0.00
    2    7   11      0.25      0.00
    3    7   11      0.11      0.00
    4    7   11     -0.15      0.00
    5    7   11     -0.46      0.00
    6    7   11     -0.55      0.00
    7    7   11     -0.42      0.00
  -11    8   11      0.08      0.00
  -10    8   11     -0.63      0.00
   -9    8   11     -0.80      0.00
   -8    8   11      0.19      0.00
   -7    8   11      1.33      0.00
   -6    8   11     -0.36      0.00
   -5    8   11     -1.82      0.00
   -4    8   11     -0.38      0.00
   -3    8   11      0.75      0.00
   -2    8   11     -0.13      0.00
   -1    8   11     -1.12      0.00
    0    8   11     -0.13      0.00
    1    8   11      0.58      0.00
    2    8   11      0.66      0.00
    3    8   11      0.44      0.00
    4    8   11     -0.19      0.00
    5    8   11     -0.26      0.00
    6    8   11     -0.22      0.00
    7    8   11     -0.39      0.00
  -11    9   11      0.17      0.00
  -10    9   11     -0.15      0.00
   -9    9   11     -0.64      0.00
   -8    9   11     -0.53      0.00
   -7    9   11      0.42      0.00
   -6    9   11      0.84      0.00
   -5    9   11      0.12      0.00
   -4    9   11     -0.36      0.00
   -3    9   11     -0.69      0.00
   -2    9   11     -0.09      0.00
   -1    9   11      0.35      0.00
    0    9   11      0.10      0.00
    1    9   11     -0.16      0.00
    2    9   11     -0.52      0.00
    3    9   11     -0.42      0.00
    4    9   11     -0.25      0.00
    5    9   11     -0.45      0.00
    6    9   11     -0.45      0.00
  -11   10   11     -0.25      0.00
  -10   10   11     -0.35      0.00
   -9   10   11     -0.32      0.00
   -8   10   11      0.48      0.00
   -7   10   11      1.34      0.00
   -6   10   11     -0.24      0.00
   -5   10   11     -1.75      0.00
   -4   10   11     -0.52      0.00
   -3   10   11      0.88      0.00
   -2   10   11     -0.14      0.00
   -1   10   11     -1.67      0.00
    0   10   11     -0.57      0.00
    1   10   11      0.25      0.00
    2   10   11     -0.07      0.00
    3   10   11     -0.02      0.00
    4   10   11      0.02      0.00
    5   10   11      0.22      0.00
    6   10   11      0.14      0.00
  -11   11   11      0.32      0.00
  -10   11   11     -0.25      0.00
   -9   11   11     -1.25      0.00
   -8   11   11     -1.24      0.00
   -7   11   11      0.33      0.00
   -6   11   11      1.29      0.00
   -5   11   11      0.03      0.00
   -4   11   11     -1.04      0.00
   -3   11   11     -0.92      0.00
   -2   11   11      0.34      0.00
   -1   11   11      0.31      0.00
    0   11   11     -0.44      0.00
    1   11   11     -0.42      0.00
    2   11   11     -0.97      0.00
    3   11   11     -0.93      0.00
    4   11   11     -0.20      0.00
    5   11   11     -0.06      0.00
    6   11   11     -0.12      0.00
  -10   12   11      0.56      0.00
   -9   12   11      0.31      0.00
   -8   12   11      0.13      0.00
   -7   12   11      0.66      0.00
   -6   12   11      0.16      0.00
   -5   12   11     -0.76      0.00
   -4   12   11     -0.42      0.00
   -3   12   11      0.36      0.00
   -2   12   11     -0.18      0.00
   -1   12   11     -1.23      0.00
    0   12   11     -0.55      0.00
    1   12   11      0.00      0.00
    2   12   11     -0.23      0.00
    3   12   11     -0.09      0.00
    4   12   11     -0.19      0.00
    5   12   11     -0.05      0.00
    6   12   11      0.05      0.00
  -10   13   11     -0.09      0.00
   -9   13   11     -0.66      0.00
   -8   13   11     -0.92      0.00
   -7   13   11      0.17      0.00
   -6   13   11      1.02      0.00
   -5   13   11     -0.02      0.00
   -4   13   11     -0.91      0.00
   -3   13   11     -0.82      0.00
   -2   13   11      0.23      0.00
   -1   13   11     -0.05      0.00
    0   13   11     -0.64      0.00
    1   13   11     -0.30      0.00
    2   13   11     -1.13      0.00
    3   13   11     -1.07      0.00
    4   13   11      0.12      0.00
    5   13   11      0.28      0.00
    6   13   11     -0.08      0.00
  -10   14   11      1.19      0.00
   -9   14   11      0.74      0.00
   -8   14   11     -0.13      0.00
   -7   14   11      0.04      0.00
   -6   14   11      0.43      0.00
   -5   14   11      0.07      0.00
   -4   14   11     -0.37      0.00
   -3   14   11     -0.26      0.00
   -2   14   11     -0.18      0.00
   -1   14   11     -0.46      0.00
    0   14   11     -0.44      0.00
    1   14   11      0.00      0.00
    2   14   11      0.35      0.00
    3   14   11      0.28      0.00
    4   14   11     -0.50      0.00
    5   14   11     -0.56      0.00
  -10   15   11      0.02      0.00
   -9   15   11      0.38      0.00
   -8   15   11      0.13      0.00
   -7   15   11      0.24      0.00
   -6   15   11      0.49      0.00
   -5   15   11      0.12      0.00
   -4   15   11      0.12      0.00
   -3   15   11     -0.02      0.00
   -2   15   11     -0.01      0.00
   -1   15   11     -0.15      0.00
    0   15   11     -0.15      0.00
    1   15   11     -0.07      0.00
    2   15   11     -1.06      0.00
    3   15   11     -0.52      0.00
    4   15   11      0.86      0.00
    5   15   11      0.45      0.00
   -9   16   11      0.66      0.00
   -8   16   11      0.10      0.00
   -7   16   11      0.01      0.00
   -6   16   11      0.46      0.00
   -5   16   11      0.24      0.00
   -4   16   11     -0.39      0.00
   -3   16   11     -0.41      0.00
   -2   16   11     -0.15      0.00
   -1   16   11     -0.11      0.00
    0   16   11     -0.35      0.00
    1   16   11      0.18      0.00
    2   16   11      0.70      0.00
    3   16   11      0.32      0.00
    4   16   11     -0.58      0.00
    5   16   11     -0.51      0.00
   -9   17   11      0.73      0.00
   -8   17   11      1.02      0.00
   -7   17   11      0.72      0.00
   -6   17   11      0.24      0.00
   -5   17   11      0.20      0.00
   -4   17   11      1.01      0.00
   -3   17   11      0.92      0.00
   -2   17   11     -0.14      0.00
   -1   17   11     -0.10      0.00
    0   17   11      0.39      0.00
    1   17   11     -0.05      0.00
    2   17   11     -0.83      0.00
    3   17   11      0.29      0.00
    4   17   11      1.41      0.00
   -8   18   11      0.26      0.00
   -7   18   11      0.19      0.00
   -6   18   11      0.47      0.00
   -5   18   11      0.35      0.00
   -4   18   11     -0.17      0.00
   -3   18   11      0.02      0.00
   -2   18   11      0.00      0.00
   -1   18   11     -0.17      0.00
    0   18   11     -0.04      0.00
    1   18   11      0.45      0.00
    2   18   11      0.31      0.00
    3   18   11     -0.19      0.00
    4   18   11     -0.34      0.00
   -8   19   11      1.26      0.00
   -7   19   11      1.16      0.00
   -6   19   11      0.10      0.00
   -5   19   11     -0.01      0.00
   -4   19   11      1.12      0.00
   -3   19   11      1.33      0.00
   -2   19   11     -0.27      0.00
   -1   19   11     -0.41      0.00
    0   19   11      0.17      0.00
    1   19   11     -0.36      0.00
    2   19   11     -0.67      0.00
    3   19   11      0.44      0.00
    4   19   11      1.10      0.00
   -7   20   11      0.02      0.00
   -6   20   11      0.39      0.00
   -5   20   11      0.53      0.00
   -4   20   11      0.00      0.00
   -3   20   11      0.34      0.00
   -2   20   11      0.09      0.00
   -1   20   11     -0.38      0.00
    0   20   11      0.32      0.00
    1   20   11      0.57      0.00
    2   20   11     -0.34      0.00
    3   20   11     -0.55      0.00
   -7   21   11      0.81      0.00
   -6   21   11     -0.50      0.00
   -5   21   11     -0.48      0.00
   -4   21   11      0.70      0.00
   -3   21   11      1.18      0.00
   -2   21   11     -0.28      0.00
   -1   21   11     -0.83      0.00
    0   21   11     -0.46      0.00
    1   21   11     -0.56      0.00
    2   21   11     -0.50      0.00
   -6   22   11      0.06      0.00
   -5   22   11      0.36      0.00
   -4   22   11     -0.25      0.00
   -3   22   11      0.12      0.00
   -2   22   11      0.07      0.00
   -1   22   11     -0.45      0.00
    0   22   11      0.39      0.00
    1   22   11      0.33      0.00
    2   22   11     -0.62      0.00
   -5   23   11     -0.86      0.00
   -4   23   11      0.22      0.00
   -3   23   11      0.64      0.00
   -2   23   11     -0.15      0.00
   -1   23   11     -0.75      0.00
    0   23   11     -0.63      0.00
    1   23   11     -0.30      0.00
   -4   24   11     -0.51      0.00
   -3   24   11     -0.15      0.00
   -2   24   11      0.24      0.00
   -1   24   11     -0.08      0.00
  -11    0   12      0.42      0.00
  -10    0   12     -0.43      0.00
   -9    0   12     -1.10      0.00
   -8    0   12     -0.50      0.00
   -7    0   12      0.01      0.00
   -6    0   12      0.70      0.00
   -5    0   12     -0.16      0.00
   -4    0   12     -1.18      0.00
   -3    0   12     -0.32      0.00
   -2    0   12     -0.10      0.00
   -1    0   12     -0.66      0.00
    0    0   12     -0.93      0.00
    1    0   12     -0.38      0.00
    2    0   12      0.67      0.00
    3    0   12      1.31      0.00
    4    0   12      1.20      0.00
    5    0   12     -0.23      0.00
    6    0   12     -0.65      0.00
  -11    1   12     -0.30      0.00
  -10    1   12     -0.02      0.00
   -9    1   12      0.22      0.00
   -8    1   12      0.22      0.00
   -7    1   12     -0.11      0.00
   -6    1   12      0.01      0.00
   -5    1   12      0.18      0.00
   -4    1   12     -0.06      0.00
   -3    1   12     -0.09      0.00
   -2    1   12     -0.14      0.00
   -1    1   12     -0.10      0.00
    0    1   12      0.31      0.00
    1    1   12      0.22      0.00
    2    1   12     -0.11      0.00
    3    1   12      0.01      0.00
    4    1   12     -0.01      0.00
    5    1   12     -0.39      0.00
    6    1   12     -0.43      0.00
  -11    2   12      0.14      0.00
  -10    2   12     -0.56      0.00
   -9    2   12     -0.82      0.00
   -8    2   12      0.01      0.00
   -7    2   12      0.23      0.00
   -6    2   12      0.57      0.00
   -5    2   12     -0.02      0.00
   -4    2   12     -0.79      0.00
   -3    2   12      0.02      0.00
   -2    2   12      0.15      0.00
   -1    2   12     -0.57      0.00
    0    2   12     -0.85      0.00
    1    2   12     -0.32      0.00
    2    2   12      0.37      0.00
    3    2   12      0.93      0.00
    4    2   12      1.18      0.00
    5    2   12     -0.06      0.00
    6    2   12     -0.66      0.00
  -11    3   12     -0.48      0.00
  -10    3   12     -0.06      0.00
   -9    3   12      0.27      0.00
   -8    3   12      0.32      0.00
   -7    3   12     -0.21      0.00
   -6    3   12      0.18      0.00
   -5    3   12      0.51      0.00
   -4    3   12     -0.12      0.00
   -3    3   12     -0.01      0.00
   -2    3   12     -0.06      0.00
   -1    3   12     -0.26      0.00
    0    3   12      0.44      0.00
    1    3   12      0.22      0.00
    2    3   12     -0.47      0.00
    3    3   12     -0.12      0.00
    4    3   12      0.03      0.00
    5    3   12     -0.62      0.00
    6    3   12     -0.71      0.00
  -11    4   12     -0.36      0.00
  -10    4   12     -0.63      0.00
   -9    4   12     -0.18      0.00
   -8    4   12      0.83      0.00
   -7    4   12      0.38      0.00
   -6    4   12      0.20      0.00
   -5    4   12      0.33      0.00
   -4    4   12     -0.11      0.00
   -3    4   12      0.35      0.00
   -2    4   12      0.40      0.00
   -1    4   12     -0.37      0.00
    0    4   12     -0.67      0.00
    1    4   12     -0.31      0.00
    2    4   12     -0.36      0.00
    3    4   12      0.07      0.00
    4    4   12      1.07      0.00
    5    4   12      0.35      0.00
    6    4   12     -0.47      0.00
  -10    5   12     -0.11      0.00
   -9    5   12     -0.21      0.00
   -8    5   12     -0.08      0.00
   -7    5   12     -0.21      0.00
   -6    5   12      0.32      0.00
   -5    5   12      0.59      0.00
   -4    5   12     -0.09      0.00
   -3    5   12      0.32      0.00
   -2    5   12      0.40      0.00
   -1    5   12     -0.33      0.00
    0    5   12     -0.07      0.00
    1    5   12     -0.17      0.00
    2    5   12     -0.73      0.00
    3    5   12     -0.36      0.00
    4    5   12      0.22      0.00
    5    5   12      0.03      0.00
    6    5   12     -0.13      0.00
  -10    6   12     -0.26      0.00
   -9    6   12      0.36      0.00
   -8    6   12      0.89      0.00
   -7    6   12     -0.10      0.00
   -6    6   12     -0.18      0.00
   -5    6   12      0.83      0.00
   -4    6   12      0.36      0.00
   -3    6   12      0.05      0.00
   -2    6   12      0.21      0.00
   -1    6   12     -0.01      0.00
    0    6   12     -0.37      0.00
    1    6   12     -0.41      0.00
    2    6   12     -0.87      0.00
    3    6   12     -0.59      0.00
    4    6   12      0.73      0.00
    5    6   12      0.60      0.00
  -10    7   12     -0.09      0.00
   -9    7   12     -0.38      0.00
   -8    7   12     -0.24      0.00
   -7    7   12     -0.21      0.00
   -6    7   12     -0.02      0.00
   -5    7   12      0.26      0.00
   -4    7   12     -0.01      0.00
   -3    7   12      0.52      0.00
   -2    7   12      0.56      0.00
   -1    7   12     -0.40      0.00
    0    7   12     -0.41      0.00
    1    7   12     -0.16      0.00
    2    7   12     -0.38      0.00
    3    7   12     -0.27      0.00
    4    7   12      0.40      0.00
    5    7   12      0.67      0.00
  -10    8   12      0.26      0.00
   -9    8   12      0.50      0.00
   -8    8   12      0.27      0.00
   -7    8   12     -0.80      0.00
   -6    8   12     -0.28      0.00
   -5    8   12      1.30      0.00
   -4    8   12      0.67      0.00
   -3    8   12     -0.35      0.00
   -2    8   12     -0.09      0.00
   -1    8   12      0.51      0.00
    0    8   12      0.08      0.00
    1    8   12     -0.32      0.00
    2    8   12     -0.57      0.00
    3    8   12     -0.54      0.00
    4    8   12      0.24      0.00
    5    8   12      0.40      0.00
  -10    9   12      0.07      0.00
   -9    9   12      0.24      0.00
   -8    9   12      0.33      0.00
   -7    9   12     -0.16      0.00
   -6    9   12     -0.67      0.00
   -5    9   12     -0.07      0.00
   -4    9   12      0.31      0.00
   -3    9   12      0.62      0.00
   -2    9   12      0.26      0.00
   -1    9   12     -0.40      0.00
    0    9   12     -0.11      0.00
    1    9   12      0.24      0.00
    2    9   12      0.28      0.00
    3    9   12      0.20      0.00
    4    9   12      0.42      0.00
    5    9   12      0.58      0.00
  -10   10   12      0.31      0.00
   -9   10   12      0.23      0.00
   -8   10   12     -0.16      0.00
   -7   10   12     -0.91      0.00
   -6   10   12     -0.24      0.00
   -5   10   12      1.19      0.00
   -4   10   12      0.81      0.00
   -3   10   12     -0.26      0.00
   -2   10   12     -0.22      0.00
   -1   10   12      0.68      0.00
    0   10   12      0.37      0.00
    1   10   12     -0.07      0.00
    2   10   12      0.14      0.00
    3   10   12     -0.07      0.00
    4   10   12     -0.02      0.00
    5   10   12      0.21      0.00
  -10   11   12      0.18      0.00
   -9   11   12      0.84      0.00
   -8   11   12      0.97      0.00
   -7   11   12     -0.03      0.00
   -6   11   12     -0.99      0.00
   -5   11   12     -0.05      0.00
   -4   11   12      0.71      0.00
   -3   11   12      0.73      0.00
   -2   11   12      0.03      0.00
   -1   11   12     -0.16      0.00
    0   11   12      0.50      0.00
    1   11   12      0.46      0.00
    2   11   12      0.66      0.00
    3   11   12      0.79      0.00
    4   11   12      0.31      0.00
    5   11   12      0.03      0.00
   -9   12   12     -0.27      0.00
   -8   12   12     -0.13      0.00
   -7   12   12     -0.42      0.00
   -6   12   12     -0.31      0.00
   -5   12   12      0.48      0.00
   -4   12   12      0.75      0.00
   -3   12   12      0.21      0.00
   -2   12   12     -0.24      0.00
   -1   12   12      0.25      0.00
    0   12   12      0.31      0.00
    1   12   12      0.05      0.00
    2   12   12      0.30      0.00
    3   12   12      0.04      0.00
    4   12   12      0.07      0.00
   -9   13   12      0.59      0.00
   -8   13   12      0.80      0.00
   -7   13   12      0.03      0.00
   -6   13   12     -0.73      0.00
   -5   13   12      0.13      0.00
   -4   13   12      0.58      0.00
   -3   13   12      0.47      0.00
   -2   13   12     -0.01      0.00
   -1   13   12      0.14      0.00
    0   13   12      0.77      0.00
    1   13   12      0.29      0.00
    2   13   12      0.70      0.00
    3   13   12      1.07      0.00
    4   13   12      0.00      0.00
   -9   14   12     -0.69      0.00
   -8   14   12     -0.13      0.00
   -7   14   12     -0.01      0.00
   -6   14   12     -0.38      0.00
   -5   14   12     -0.07      0.00
   -4   14   12      0.75      0.00
   -3   14   12      0.69      0.00
   -2   14   12     -0.15      0.00
   -1   14   12     -0.26      0.00
    0   14   12      0.24      0.00
    1   14   12      0.08      0.00
    2   14   12     -0.18      0.00
    3   14   12     -0.25      0.00
    4   14   12      0.25      0.00
   -8   15   12     -0.04      0.00
   -7   15   12     -0.18      0.00
   -6   15   12     -0.32      0.00
   -5   15   12      0.17      0.00
   -4   15   12     -0.09      0.00
   -3   15   12     -0.32      0.00
   -2   15   12     -0.13      0.00
   -1   15   12      0.18      0.00
    0   15   12      0.40      0.00
    1   15   12     -0.05      0.00
    2   15   12      0.55      0.00
    3   15   12      0.73      0.00
   -8   16   12     -0.38      0.00
   -7   16   12     -0.07      0.00
   -6   16   12     -0.37      0.00
   -5   16   12     -0.15      0.00
   -4   16   12      0.76      0.00
   -3   16   12      0.75      0.00
   -2   16   12     -0.11      0.00
   -1   16   12     -0.41      0.00
    0   16   12      0.27      0.00
    1   16   12      0.07      0.00
    2   16   12     -0.48      0.00
    3   16   12     -0.23      0.00
   -7   17   12     -0.78      0.00
   -6   17   12     -0.27      0.00
   -5   17   12      0.07      0.00
   -4   17   12     -0.64      0.00
   -3   17   12     -1.08      0.00
   -2   17   12     -0.23      0.00
   -1   17   12      0.18      0.00
    0   17   12     -0.07      0.00
    1   17   12     -0.20      0.00
    2   17   12      0.39      0.00
   -7   18   12     -0.26      0.00
   -6   18   12     -0.33      0.00
   -5   18   12     -0.22      0.00
   -4   18   12      0.49      0.00
   -3   18   12      0.36      0.00
   -2   18   12     -0.24      0.00
   -1   18   12     -0.28      0.00
    0   18   12      0.17      0.00
    1   18   12     -0.11      0.00
    2   18   12     -0.26      0.00
   -6   19   12     -0.40      0.00
   -5   19   12      0.07      0.00
   -4   19   12     -0.63      0.00
   -3   19   12     -1.26      0.00
   -2   19   12     -0.09      0.00
   -1   19   12      0.50      0.00
    0   19   12     -0.01      0.00
    1   19   12      0.04      0.00
   -5   20   12     -0.38      0.00
   -4   20   12      0.16      0.00
   -3   20   12      0.03      0.00
   -2   20   12     -0.32      0.00
   -1   20   12      0.05      0.00
    0   20   12      0.07      0.00
   -4   21   12     -0.24      0.00
   -3   21   12     -0.91      0.00
   -2   21   12      0.09      0.00
   -1   21   12      0.78      0.00
   -9    0   13      0.50      0.00
   -8    0   13      0.55      0.00
   -7    0   13      0.34      0.00
   -6    0   13     -0.78      0.00
   -5    0   13     -0.56      0.00
   -4    0   13      1.32      0.00
   -3    0   13      1.09      0.00
   -2    0   13      0.15      0.00
   -1    0   13      0.20      0.00
    0    0   13      0.13      0.00
    1    0   13     -0.04      0.00
    2    0   13     -0.30      0.00
    3    0   13     -0.81      0.00
    4    0   13     -1.29      0.00
   -9    1   13     -0.25      0.00
   -8    1   13     -0.49      0.00
   -7    1   13      0.03      0.00
   -6    1   13      0.18      0.00
   -5    1   13     -0.23      0.00
   -4    1   13     -0.06      0.00
   -3    1   13      0.20      0.00
   -2    1   13      0.20      0.00
   -1    1   13      0.23      0.00
    0    1   13     -0.16      0.00
    1    1   13     -0.32      0.00
    2    1   13      0.05      0.00
    3    1   13      0.06      0.00
    4    1   13     -0.07      0.00
   -9    2   13      0.42      0.00
   -8    2   13      0.07      0.00
   -7    2   13     -0.03      0.00
   -6    2   13     -0.61      0.00
   -5    2   13     -0.50      0.00
   -4    2   13      0.93      0.00
   -3    2   13      0.73      0.00
   -2    2   13     -0.03      0.00
   -1    2   13      0.20      0.00
    0    2   13      0.22      0.00
    1    2   13     -0.06      0.00
    2    2   13     -0.18      0.00
    3    2   13     -0.53      0.00
    4    2   13     -1.20      0.00
   -9    3   13     -0.32      0.00
   -8    3   13     -0.91      0.00
   -7    3   13      0.04      0.00
   -6    3   13      0.31      0.00
   -5    3   13     -0.60      0.00
   -4    3   13     -0.19      0.00
   -3    3   13      0.29      0.00
   -2    3   13      0.24      0.00
   -1    3   13      0.54      0.00
    0    3   13     -0.14      0.00
    1    3   13     -0.52      0.00
    2    3   13      0.31      0.00
    3    3   13      0.28      0.00
    4    3   13     -0.24      0.00
   -9    4   13      0.24      0.00
   -8    4   13     -0.71      0.00
   -7    4   13     -0.57      0.00
   -6    4   13     -0.14      0.00
   -5    4   13     -0.36      0.00
   -4    4   13      0.21      0.00
   -3    4   13      0.16      0.00
   -2    4   13     -0.27      0.00
   -1    4   13      0.21      0.00
    0    4   13      0.44      0.00
    1    4   13     -0.01      0.00
    2    4   13      0.15      0.00
    3    4   13      0.14      0.00
    4    4   13     -0.92      0.00
   -9    5   13      0.19      0.00
   -8    5   13     -0.45      0.00
   -7    5   13      0.01      0.00
   -6    5   13      0.19      0.00
   -5    5   13     -0.63      0.00
   -4    5   13     -0.27      0.00
   -3    5   13     -0.01      0.00
   -2    5   13     -0.15      0.00
   -1    5   13      0.57      0.00
    0    5   13      0.26      0.00
    1    5   13     -0.19      0.00
    2    5   13      0.54      0.00
    3    5   13      0.49      0.00
    4    5   13     -0.42      0.00
   -9    6   13      0.05      0.00
   -8    6   13     -0.82      0.00
   -7    6   13     -0.49      0.00
   -6    6   13      0.32      0.00
   -5    6   13     -0.31      0.00
   -4    6   13     -0.28      0.00
   -3    6   13     -0.05      0.00
   -2    6   13     -0.27      0.00
   -1    6   13      0.15      0.00
    0    6   13      0.56      0.00
    1    6   13      0.12      0.00
    2    6   13      0.38      0.00
    3    6   13      0.65      0.00
    4    6   13     -0.47      0.00
   -9    7   13      0.51      0.00
   -8    7   13      0.06      0.00
   -7    7   13     -0.06      0.00
   -6    7   13      0.17      0.00
   -5    7   13     -0.27      0.00
   -4    7   13     -0.18      0.00
   -3    7   13     -0.24      0.00
   -2    7   13     -0.44      0.00
   -1    7   13      0.39      0.00
    0    7   13      0.44      0.00
    1    7   13     -0.02      0.00
    2    7   13      0.31      0.00
    3    7   13      0.38      0.00
    4    7   13     -0.49      0.00
   -9    8   13     -0.07      0.00
   -8    8   13     -0.32      0.00
   -7    8   13      0.02      0.00
   -6    8   13      0.40      0.00
   -5    8   13     -0.45      0.00
   -4    8   13     -0.51      0.00
   -3    8   13     -0.10      0.00
   -2    8   13     -0.15      0.00
   -1    8   13      0.02      0.00
    0    8   13      0.39      0.00
    1    8   13      0.09      0.00
    2    8   13      0.10      0.00
    3    8   13      0.49      0.00
   -8    9   13     -0.07      0.00
   -7    9   13     -0.17      0.00
   -6    9   13      0.34      0.00
   -5    9   13      0.07      0.00
   -4    9   13     -0.15      0.00
   -3    9   13     -0.29      0.00
   -2    9   13     -0.42      0.00
   -1    9   13      0.09      0.00
    0    9   13      0.10      0.00
    1    9   13     -0.21      0.00
    2    9   13     -0.16      0.00
    3    9   13     -0.05      0.00
   -8   10   13      0.08      0.00
   -7   10   13      0.28      0.00
   -6   10   13      0.20      0.00
   -5   10   13     -0.48      0.00
   -4   10   13     -0.56      0.00
   -3   10   13     -0.29      0.00
   -2   10   13     -0.02      0.00
   -1   10   13      0.11      0.00
    0   10   13      0.20      0.00
    1   10   13     -0.05      0.00
    2   10   13     -0.38      0.00
    3   10   13     -0.07      0.00
   -8   11   13     -0.50      0.00
   -7   11   13     -0.24      0.00
   -6   11   13      0.45      0.00
   -5   11   13      0.02      0.00
   -4   11   13     -0.26      0.00
   -3   11   13     -0.24      0.00
   -2   11   13     -0.35      0.00
   -1   11   13     -0.26      0.00
    0   11   13     -0.46      0.00
    1   11   13     -0.36      0.00
    2   11   13     -0.38      0.00
    3   11   13     -0.56      0.00
   -8   12   13      0.18      0.00
   -7   12   13      0.17      0.00
   -6   12   13      0.09      0.00
   -5   12   13     -0.22      0.00
   -4   12   13     -0.55      0.00
   -3   12   13     -0.58      0.00
   -2   12   13      0.11      0.00
   -1   12   13      0.47      0.00
    0   12   13      0.14      0.00
    1   12   13     -0.09      0.00
    2   12   13     -0.37      0.00
   -7   13   13     -0.17      0.00
   -6   13   13      0.32      0.00
   -5   13   13     -0.26      0.00
   -4   13   13     -0.22      0.00
   -3   13   13      0.06      0.00
   -2   13   13     -0.18      0.00
   -1   13   13     -0.39      0.00
    0   13   13     -0.71      0.00
    1   13   13     -0.27      0.00
    2   13   13     -0.26      0.00
   -7   14   13      0.10      0.00
   -6   14   13      0.16      0.00
   -5   14   13     -0.01      0.00
   -4   14   13     -0.68      0.00
   -3   14   13     -0.81      0.00
   -2   14   13      0.15      0.00
   -1   14   13      0.71      0.00
    0   14   13      0.02      0.00
    1   14   13     -0.17      0.00
   -6   15   13      0.16      0.00
   -5   15   13     -0.38      0.00
   -4   15   13      0.03      0.00
   -3   15   13      0.59      0.00
   -2   15   13      0.21      0.00
   -1   15   13     -0.17      0.00
    0   15   13     -0.46      0.00
    1   15   13     -0.01      0.00
   -5   16   13     -0.02      0.00
   -4   16   13     -0.80      0.00
   -3   16   13     -0.76      0.00
   -2   16   13      0.19      0.00
   -1   16   13      0.68      0.00
    0   16   13     -0.17      0.00
   -5   17   13     -0.16      0.00
   -4   17   13      0.23      0.00
   -3   17   13      0.93      0.00
   -2   17   13      0.52      0.00
   -1   17   13      0.00      0.00
   -8    0   14     -0.28      0.00
   -7    0   14     -0.60      0.00
   -6    0   14      0.33      0.00
   -5    0   14      0.93      0.00
   -4    0   14     -0.86      0.00
   -3    0   14     -1.53      0.00
   -2    0   14     -0.23      0.00
   -1    0   14      0.12      0.00
    0    0   14      0.14      0.00
    1    0   14      0.46      0.00
    2    0   14      0.44      0.00
   -8    1   14      0.57      0.00
   -7    1   14      0.15      0.00
   -6    1   14     -0.26      0.00
   -5    1   14      0.13      0.00
   -4    1   14      0.16      0.00
   -3    1   14     -0.25      0.00
   -2    1   14     -0.23      0.00
   -1    1   14     -0.16      0.00
    0    1   14      0.04      0.00
    1    1   14      0.29      0.00
    2    1   14      0.08      0.00
   -8    2   14      0.03      0.00
   -7    2   14     -0.18      0.00
   -6    2   14      0.27      0.00
   -5    2   14      0.77      0.00
   -4    2   14     -0.57      0.00
   -3    2   14     -1.18      0.00
   -2    2   14     -0.13      0.00
   -1    2   14      0.08      0.00
    0    2   14     -0.01      0.00
    1    2   14      0.40      0.00
    2    2   14      0.42      0.00
   -8    3   14      1.10      0.00
   -7    3   14      0.36      0.00
   -6    3   14     -0.54      0.00
   -5    3   14      0.33      0.00
   -4    3   14      0.42      0.00
   -3    3   14     -0.45      0.00
   -2    3   14     -0.36      0.00
   -1    3   14     -0.38      0.00
    0    3   14     -0.08      0.00
    1    3   14      0.50      0.00
    2    3   14      0.02      0.00
   -7    4   14      0.51      0.00
   -6    4   14      0.03      0.00
   -5    4   14      0.34      0.00
   -4    4   14     -0.06      0.00
   -3    4   14     -0.52      0.00
   -2    4   14      0.06      0.00
   -1    4   14      0.00      0.00
    0    4   14     -0.35      0.00
    1    4   14      0.18      0.00
    2    4   14      0.29      0.00
   -7    5   14      0.38      0.00
   -6    5   14     -0.43      0.00
   -5    5   14      0.29      0.00
   -4    5   14      0.49      0.00
   -3    5   14     -0.20      0.00
   -2    5   14     -0.04      0.00
   -1    5   14     -0.36      0.00
    0    5   14     -0.37      0.00
    1    5   14      0.22      0.00
    2    5   14     -0.16      0.00
   -7    6   14      0.64      0.00
   -6    6   14     -0.22      0.00
   -5    6   14     -0.03      0.00
   -4    6   14      0.20      0.00
   -3    6   14     -0.07      0.00
   -2    6   14      0.22      0.00
   -1    6   14     -0.01      0.00
    0    6   14     -0.62      0.00
    1    6   14     -0.09      0.00
   -7    7   14      0.34      0.00
   -6    7   14     -0.16      0.00
   -5    7   14      0.04      0.00
   -4    7   14      0.27      0.00
   -3    7   14      0.04      0.00
   -2    7   14      0.29      0.00
   -1    7   14     -0.13      0.00
    0    7   14     -0.40      0.00
    1    7   14      0.02      0.00
   -7    8   14      0.30      0.00
   -6    8   14     -0.19      0.00
   -5    8   14     -0.04      0.00
   -4    8   14      0.20      0.00
   -3    8   14      0.15      0.00
   -2    8   14      0.36      0.00
   -1    8   14      0.00      0.00
    0    8   14     -0.65      0.00
    1    8   14     -0.14      0.00
   -6    9   14     -0.02      0.00
   -5    9   14     -0.14      0.00
   -4    9   14      0.04      0.00
   -3    9   14      0.03      0.00
   -2    9   14      0.41      0.00
   -1    9   14      0.23      0.00
    0    9   14     -0.04      0.00
   -6   10   14      0.07      0.00
   -5   10   14      0.15      0.00
   -4   10   14      0.14      0.00
   -3   10   14      0.30      0.00
   -2   10   14      0.35      0.00
   -1   10   14     -0.22      0.00
    0   10   14     -0.58      0.00
   -5   11   14     -0.02      0.00
   -4   11   14      0.01      0.00
   -3   11   14     -0.13      0.00
   -2   11   14      0.38      0.00
   -1   11   14      0.54      0.00
   -4   12   14      0.17      0.00
   -3   12   14      0.44      0.00
   -2   12   14      0.20      0.00
   -1   12   14     -0.55      0.00
   -3    0   15      1.26      0.00
   -3    1   15      0.24      0.00
    1    0    0     17.77      0.00
    0    2    0     29.56      0.00
    1    2    0     12.05      0.00
    0    6    0     -9.62      0.00
    1    6    0     -3.52      0.00
   14   11    0     -0.09      0.00
   11   24    0      0.29      0.00
    6   33    0      0.26      0.00
    5   34    0      0.54      0.00
    0   36    0      0.27      0.00
    1   36    0     -0.23      0.00
    0    0    1    -36.39      0.00
    1    0    1    -22.25      0.00
    0    1    1      0.07      0.00
    0    2    1    -24.86      0.00
   14    8    1      0.47      0.00
   14    9    1     -0.08      0.00
  -14   12    1     -1.03      0.00
   12   20    1      0.14      0.00
   11   23    1      0.36      0.00
    9   28    1      0.14      0.00
   -7   32    1     -1.06      0.00
   -6   33    1      0.13      0.00
   -5   34    1     -0.12      0.00
    3   35    1      0.13      0.00
   -1   36    1      0.28      0.00
    0   36    1     -0.17      0.00
    1   36    1      0.22      0.00
    1    0    2     19.66      0.00
    0    2    2     14.52      0.00
   14    4    2     -0.40      0.00
   14    5    2     -0.70      0.00
  -14   13    2     -0.27      0.00
   13   14    2     -0.29      0.00
  -13   18    2      0.59      0.00
   11   22    2     -0.40      0.00
   10   25    2      0.21      0.00
  -10   27    2      1.15      0.00
   -9   29    2      0.79      0.00
    8   29    2      0.01      0.00
   -7   32    2      1.13      0.00
    6   32    2      0.54      0.00
   -6   33    2      0.26      0.00
   -5   34    2     -0.09      0.00
    4   34    2      0.04      0.00
  -15    0    3     -1.21      0.00
  -15    1    3     -0.06      0.00
  -15    2    3     -0.66      0.00
   13   11    3      0.12      0.00
  -14   13    3     -0.09      0.00
   12   17    3     -0.52      0.00
  -13   18    3     -0.63      0.00
   11   21    3      0.06      0.00
   10   24    3      0.11      0.00
    7   30    3     -0.56      0.00
   -3   35    3     -0.37      0.00
    1   35    3     -0.18      0.00
  -15    0    4      0.80      0.00
  -15    1    4      0.03      0.00
   -2    2    4      7.86      0.00
   13    7    4     -0.09      0.00
   11   19    4      0.08      0.00
  -11   24    4      0.78      0.00
    9   25    4     -0.79      0.00
    8   27    4     -0.46      0.00
    7   29    4      0.35      0.00
   -8   30    4      0.91      0.00
   -4   34    4      0.07      0.00
    2   34    4      0.39      0.00
   12   11    5      0.51      0.00
  -14   12    5      0.07      0.00
  -13   17    5     -0.26      0.00
   11   17    5     -0.25      0.00
  -10   26    5      0.14      0.00
   -9   28    5     -0.26      0.00
   -2   34    5      0.71      0.00
   -1   34    5      0.74      0.00
    0   34    5      0.69      0.00
   12    6    6     -0.19      0.00
  -14   10    6     -0.35      0.00
   11   14    6      0.10      0.00
  -13   16    6     -1.13      0.00
   10   18    6     -0.21      0.00
  -12   20    6     -0.18      0.00
    8   24    6     -0.20      0.00
  -10   25    6     -0.34      0.00
    7   26    6     -0.46      0.00
   -9   27    6     -0.48      0.00
    6   28    6     -0.45      0.00
   -7   30    6      0.27      0.00
   -6   31    6      0.12      0.00
    2   32    6      0.42      0.00
   -2   33    6     -0.46      0.00
   -1   33    6      0.13      0.00
    0   33    6     -0.10      0.00
  -14    8    7      0.75      0.00
   11    9    7      0.11      0.00
   10   15    7      0.18      0.00
    9   19    7      0.52      0.00
    8   22    7     -0.41      0.00
  -10   24    7     -0.02      0.00
   -9   26    7      0.16      0.00
   -7   29    7     -0.50      0.00
    4   29    7      0.07      0.00
   -6   30    7      0.06      0.00
    3   30    7      0.09      0.00
    2   31    7      0.08      0.00
   -2   32    7     -0.16      0.00
   -1   32    7      0.34      0.00
  -14    0    8     -0.05      0.00
  -14    1    8     -0.05      0.00
  -14    2    8     -0.01      0.00
  -14    3    8     -0.04      0.00
  -14    4    8     -0.06      0.00
   10   11    8      0.26      0.00
  -13   12    8     -0.58      0.00
    9   16    8     -0.07      0.00
  -12   17    8      0.52      0.00
  -11   20    8     -0.04      0.00
    7   22    8      0.56      0.00
    6   24    8      0.27      0.00
    5   26    8      0.80      0.00
   -4   30    8     -0.62      0.00
    1   30    8     -0.05      0.00
  -13    9    9     -0.18      0.00
    9   11    9     -0.01      0.00
    8   16    9     -0.12      0.00
  -11   18    9      0.19      0.00
    7   19    9      0.24      0.00
  -10   21    9     -0.38      0.00
   -9   23    9     -0.19      0.00
    4   25    9      0.76      0.00
   -7   26    9     -0.02      0.00
   -6   27    9     -0.55      0.00
   -5   28    9      0.34      0.00
    1   28    9      0.46      0.00
   -3   29    9     -0.49      0.00
   -2   29    9      0.04      0.00
   -1   29    9      0.85      0.00
  -13    0   10     -0.49      0.00
  -13    1   10     -0.13      0.00
  -13    2   10     -0.28      0.00
  -13    3   10     -0.09      0.00
  -12   11   10     -0.19      0.00
    8   11   10      0.23      0.00
    7   15   10     -0.18      0.00
   -9   21   10      0.21      0.00
   -7   24   10      0.43      0.00
    3   24   10     -0.08      0.00
   -6   25   10      1.50      0.00
    2   25   10      0.49      0.00
   -5   26   10      0.22      0.00
    1   26   10     -0.07      0.00
   -3   27   10      0.45      0.00
   -2   27   10      0.30      0.00
   -1   27   10     -0.21      0.00
  -12    5   11      0.02      0.00
  -12    6   11      0.30      0.00
    7    9   11     -0.01      0.00
    7   10   11     -0.19      0.00
  -11   12   11     -0.14      0.00
    6   14   11     -0.11      0.00
  -10   16   11      0.88      0.00
    5   17   11      0.32      0.00
   -9   18   11      0.12      0.00
   -8   20   11     -0.07      0.00
    3   21   11      0.05      0.00
   -6   23   11     -1.27      0.00
    0   24   11      0.36      0.00
  -11    5   12     -0.11      0.00
  -11    6   12     -0.51      0.00
    6    6   12     -0.11      0.00
    6    7   12      0.40      0.00
    5   12   12      0.43      0.00
   -9   15   12     -0.10      0.00
    4   15   12     -0.64      0.00
   -8   17   12     -0.85      0.00
    3   17   12      0.14      0.00
   -7   19   12     -1.27      0.00
    2   19   12      0.37      0.00
   -6   20   12     -0.21      0.00
    1   20   12     -0.35      0.00
   -5   21   12      0.40      0.00
    0   21   12      0.35      0.00
   -3   22   12      0.03      0.00
   -2   22   12     -0.29      0.00
  -10    0   13      0.13      0.00
  -10    1   13      0.19      0.00
  -10    2   13      0.31      0.00
  -10    3   13      0.43      0.00
  -10    4   13      0.54      0.00
    4    8   13     -0.06      0.00
   -9    9   13      0.12      0.00
   -9   10   13     -0.07      0.00
    3   12   13     -0.23      0.00
   -8   13   13     -0.53      0.00
    2   14   13      0.06      0.00
   -7   15   13      0.11      0.00
   -6   16   13      0.25      0.00
    1   16   13     -0.32      0.00
    0   17   13     -0.13      0.00
   -4   18   13     -0.59      0.00
   -3   18   13     -0.42      0.00
   -2   18   13      0.30      0.00
   -1   18   13      0.54      0.00
   -8    4   14      0.47      0.00
   -8    5   14      0.64      0.00
    2    6   14      0.14      0.00
   -7    9   14      0.33      0.00
    1    9   14      0.12      0.00
   -6   11   14     -0.06      0.00
    0   11   14      0.41      0.00
   -5   12   14      0.18      0.00
   -4   13   14      0.09      0.00
   -3   13   14     -0.39      0.00
   -2   13   14      0.16      0.00
   -1   13   14      0.52      0.00
   -5    0   15     -0.59      0.00
   -4    0   15      0.22      0.00
   -2    0   15      0.38      0.00
   -5    1   15     -0.02      0.00
   -4    1   15     -0.13      0.00
   -2    1   15      0.22      0.00
   -4    2   15      0.04      0.00
   -3    2   15      1.00      0.00
   -2    2   15      0.36      0.00
   -4    3   15     -0.34      0.00
   -3    3   15      0.46      0.00
   -2    3   15      0.40      0.00
   -4    4   15     -0.23      0.00
   -3    4   15      0.51      0.00
   -2    4   15      0.29      0.00
    0    0    0      0.00      0.00
# SQUEEZE RESULTS (Version = 190619)
# Note: Data are Listed for all Voids in the P1 Unit Cell
# i.e. Centre of Gravity, Solvent Accessible Volume,
# Recovered number of Electrons in the Void and
# Details about the Squeezed Material
loop_
  _platon_squeeze_void_nr
  _platon_squeeze_void_average_x
  _platon_squeeze_void_average_y
  _platon_squeeze_void_average_z
  _platon_squeeze_void_volume
  _platon_squeeze_void_count_electrons
  _platon_squeeze_void_content
   1  0.000  0.000  0.500       167        17 ' '
   2  0.000  0.500  0.500       167        17 ' '
# Missing Reflections Below sin(th)/lambda = 0.25
loop_
  _platon_missing_refln_index_h
  _platon_missing_refln_index_k
  _platon_missing_refln_index_l
  _platon_missing_refln_theta
    1    0    0     1.813
    0    2    0     1.472
    1    2    0     2.336
    0    6    0     4.421
    1    6    0     4.780
    0    0    1     1.801
    1    0    1     2.808
    0    1    1     1.946
    0    2    1     2.327
    1    0    2     4.358
    0    2    2     3.894
   -2    2    4     7.532
_platon_squeeze_void_probe_radius                  1.20
_platon_squeeze_details
)
TITL an1tb4           P 1 21/m 1   R = 0.03
CELL   11.4772   27.6587   11.5564     90.00    101.93     90.00
SPGR P21/m
# Solvent Accessible Volume =       333
# Electrons Found in S.A.V. =        33
# Note: Atoms in Void are Labelled as Cxxx and Qxxx for all Others
Q101 0.252 0.466 0.374 !       1.31 eA-3
Q102 0.231 0.599 0.537 !       1.21 eA-3
Q103 0.047 0.164 0.455 !       1.19 eA-3
Q104 0.113 0.500 0.047 !       1.16 eA-3
C105 0.888 0.473 0.439 !       1.04 eA-3
C106 0.917 0.926 0.521 !       1.01 eA-3
Q107 0.936 0.013 0.488 !       0.96 eA-3
Q108 0.783 0.375 0.077 !       0.78 eA-3
Q109 0.236 0.563 0.299 !       0.74 eA-3
Q110 0.671 0.249 0.422 !       0.74 eA-3
Q111 0.063 0.678 0.429 !       0.72 eA-3
Q112 0.618 0.253 0.625 !       0.68 eA-3
Q113 0.433 0.704 0.174 !       0.64 eA-3
Q114 0.307 0.883 0.262 !       0.63 eA-3
Q115 0.835 0.251 0.109 !       0.61 eA-3
Q116 0.114 0.249 0.109 !       0.60 eA-3
Q117 0.169 0.251 0.109 !       0.59 eA-3
Q118 0.676 0.251 0.234 !       0.58 eA-3
Q119 0.630 0.108 0.190 !       0.56 eA-3
Q120 0.718 0.214 0.766 !       0.56 eA-3
Q121 0.989 0.749 0.422 !       0.55 eA-3
Q122 0.573 0.342 0.026 !       0.53 eA-3
Q123 0.127 0.033 0.654 !       0.52 eA-3
Q124 0.281 0.249 0.750 !       0.52 eA-3
Q125 0.816 0.373 0.187 !       0.52 eA-3
Q126 0.990 0.689 0.146 !       0.51 eA-3
Q127 0.483 0.736 0.202 !       0.51 eA-3
)
;
_shelx_fab_checksum              17405
_platon_squeeze_void_probe_radius 1.20
_olex2_submission_special_instructions 'No special instructions were received'
loop_
_space_group_symop_operation_xyz
'x, y, z'
'-x, y+1/2, -z'
'-x, -y, -z'
'x, -y-1/2, z'
loop_
_atom_site_label
_atom_site_type_symbol
_atom_site_fract_x
_atom_site_fract_y
_atom_site_fract_z
_atom_site_U_iso_or_equiv
_atom_site_adp_type
_atom_site_occupancy
_atom_site_site_symmetry_order
_atom_site_calc_flag
_atom_site_refinement_flags_posn
_atom_site_refinement_flags_adp
_atom_site_refinement_flags_occupancy
_atom_site_disorder_assembly
_atom_site_disorder_group
Tb1 Tb 0.58919(2) 0.62637(2) 0.87240(2) 0.01758(5) Uani 1 1 d D . . . .
Tb2 Tb 0.76830(2) 0.750000 0.82169(2) 0.01647(6) Uani 1 2 d S T P . .
O1 O 0.4140(6) 0.6126(5) 0.9494(9) 0.044(2) Uani 0.56(3) 1 d D U . A 1
O1A O 0.4196(8) 0.6338(7) 0.9654(7) 0.044(2) Uani 0.44(3) 1 d D U . A 2
O2 O 0.3747(7) 0.6360(5) 0.7643(6) 0.0312(17) Uani 0.56(3) 1 d D U . A 1
O2A O 0.3746(9) 0.6212(6) 0.7743(10) 0.039(2) Uani 0.44(3) 1 d D U . A 2
O3 O -0.2062(2) 0.66680(9) 0.8901(2) 0.0282(5) Uani 1 1 d . . . . .
O4 O -0.2154(2) 0.58774(10) 0.8822(3) 0.0353(6) Uani 1 1 d . . . . .
O5 O 0.6107(2) 0.63188(9) 0.6770(2) 0.0289(5) Uani 1 1 d . U . . .
O6 O 0.6992(15) 0.7025(5) 0.6561(19) 0.029(3) Uani 0.60(3) 1 d . U . B 1
O6A O 0.726(2) 0.6955(8) 0.660(3) 0.023(3) Uani 0.40(3) 1 d . U . B 2
O7 O 0.6520(13) 0.5924(4) 0.0727(10) 0.0261(18) Uani 0.60(3) 1 d . U . B 1
O7A O 0.634(2) 0.5809(6) 0.0697(15) 0.024(3) Uani 0.40(3) 1 d . U . B 2
O8 O 0.6186(13) 0.6707(4) 0.0575(8) 0.035(2) Uani 0.60(3) 1 d . U . B 1
O8A O 0.6616(16) 0.6594(5) 0.0658(10) 0.027(3) Uani 0.40(3) 1 d . U . B 2
O9 O 0.9365(3) 0.750000 0.7344(4) 0.0610(15) Uani 1 2 d S T P B .
O10 O 0.9751(3) 0.750000 0.9236(3) 0.0416(10) Uani 1 2 d S T P B .
O11 O 1.5671(2) 0.78921(8) 0.8317(2) 0.0247(5) Uani 1 1 d . . . . .
O12 O 0.7537(3) 0.750000 1.0277(3) 0.0267(7) Uani 1 2 d S T P B .
H12A H 0.723193 0.721488 1.051113 0.040 Uiso 0.5 1 d GR . . . .
H12B H 0.698828 0.772126 1.044166 0.040 Uiso 0.5 1 d GR . . . .
N1 N -0.0030(8) 0.5309(4) 1.2810(8) 0.0791(17) Uani 0.546(3) 1 d . U . C -1
H1 H -0.015479 0.516747 1.343524 0.095 Uiso 0.546(3) 1 calc R . . C -1
N1A N -0.0125(10) 0.6777(5) 1.3303(10) 0.0771(18) Uani 0.454(3) 1 d . U . C -2
H1A H -0.018593 0.683192 1.402045 0.092 Uiso 0.454(3) 1 calc R . . C -2
N2 N 0.4614(3) 0.45809(11) 0.1991(3) 0.0310(7) Uani 1 1 d . . . . .
N3 N 1.3866(9) 0.8001(5) 0.3957(8) 0.080(2) Uani 0.5 1 d . U . D -1
C1 C 0.2113(4) 0.62175(15) 0.8666(4) 0.0392(9) Uani 1 1 d . U . . .
C2 C 0.1756(6) 0.5995(3) 0.9532(7) 0.0387(17) Uani 0.546(3) 1 d . U . C -1
H2 H 0.232396 0.583547 1.009355 0.046 Uiso 0.546(3) 1 calc R . . C -1
C2A C 0.1809(7) 0.6387(3) 0.9857(9) 0.0368(17) Uani 0.454(3) 1 d . U . C -2
H2A H 0.240636 0.647767 1.049266 0.044 Uiso 0.454(3) 1 calc R . . C -2
C3 C 0.0583(6) 0.5983(3) 0.9661(6) 0.0340(15) Uani 0.546(3) 1 d . U . C -1
C3A C 0.0608(7) 0.6400(4) 0.9938(8) 0.0348(16) Uani 0.454(3) 1 d . U . C -2
C4 C -0.0266(3) 0.62325(14) 0.8839(4) 0.0315(7) Uani 1 1 d . U . . .
C5 C 0.0044(6) 0.6371(3) 0.7755(7) 0.0309(15) Uani 0.546(3) 1 d . U . C -1
H5 H -0.054871 0.646827 0.712107 0.037 Uiso 0.546(3) 1 calc R . . C -1
C5A C 0.0120(9) 0.6117(4) 0.7930(10) 0.042(2) Uani 0.454(3) 1 d . U . C -2
H5A H -0.043368 0.602561 0.725874 0.051 Uiso 0.454(3) 1 calc R . . C -2
C6 C 0.1210(6) 0.6363(3) 0.7638(7) 0.0322(15) Uani 0.546(3) 1 d . U . C -1
H6 H 0.141940 0.644761 0.692865 0.039 Uiso 0.546(3) 1 calc R . . C -1
C6A C 0.1321(9) 0.6116(4) 0.7863(10) 0.041(2) Uani 0.454(3) 1 d . U . C -2
H6A H 0.151368 0.603032 0.714754 0.050 Uiso 0.454(3) 1 calc R . . C -2
C7 C 0.3411(3) 0.62482(14) 0.8627(4) 0.0368(8) Uani 1 1 d D U . . .
C8 C 0.0314(8) 0.5749(4) 1.0755(8) 0.0581(14) Uani 0.546(3) 1 d . U . C -1
C8A C 0.0302(10) 0.6540(5) 1.1078(10) 0.0614(15) Uani 0.454(3) 1 d . U . C -2
C9 C 0.0861(9) 0.5280(4) 1.1105(9) 0.0661(16) Uani 0.546(3) 1 d . U . C -1
H9 H 0.129715 0.511027 1.064346 0.079 Uiso 0.546(3) 1 calc R . . C -1
C9A C 0.0770(11) 0.6955(5) 1.1630(10) 0.0675(18) Uani 0.454(3) 1 d . U . C -2
H9A H 0.125754 0.715374 1.128701 0.081 Uiso 0.454(3) 1 calc R . . C -2
C10 C 0.0680(10) 0.5112(5) 1.2156(9) 0.0734(18) Uani 0.546(3) 1 d . U . C -1
H10 H 0.108887 0.483276 1.245074 0.088 Uiso 0.546(3) 1 calc R . . C -1
C10A C 0.0503(12) 0.7073(6) 1.2712(11) 0.0766(19) Uani 0.454(3) 1 d . U . C -2
H10A H 0.076469 0.736862 1.305170 0.092 Uiso 0.454(3) 1 calc R . . C -2
C11 C -0.0556(10) 0.5745(5) 1.2451(9) 0.0727(16) Uani 0.546(3) 1 d . U . C -1
H11 H -0.102294 0.589712 1.291155 0.087 Uiso 0.546(3) 1 calc R . . C -1
C11A C -0.0641(12) 0.6394(6) 1.2687(11) 0.0715(17) Uani 0.454(3) 1 d . U . C -2
H11A H -0.115398 0.620013 1.301150 0.086 Uiso 0.454(3) 1 calc R . . C -2
C12 C -0.0402(10) 0.5960(5) 1.1428(9) 0.0671(15) Uani 0.546(3) 1 d . U . C -1
H12 H -0.078440 0.625017 1.118670 0.080 Uiso 0.546(3) 1 calc R . . C -1
C12A C -0.0431(12) 0.6281(6) 1.1592(12) 0.0674(16) Uani 0.454(3) 1 d . U . C -2
H12C H -0.081318 0.601436 1.119386 0.081 Uiso 0.454(3) 1 calc R . . C -2
C13 C -0.1571(3) 0.62582(13) 0.8868(3) 0.0260(7) Uani 1 1 d . . . . .
C14 C 0.6425(15) 0.6538(5) 0.4881(12) 0.027(3) Uani 0.60(3) 1 d . U . B 1
C14A C 0.668(2) 0.6455(6) 0.4925(17) 0.019(3) Uani 0.40(3) 1 d . U . B 2
C15 C 0.6040(3) 0.60795(13) 0.4392(3) 0.0290(7) Uani 1 1 d . U . . .
H15 H 0.581752 0.584366 0.487804 0.035 Uiso 0.60(3) 1 calc R . . B 1
H15A H 0.562217 0.588674 0.482623 0.035 Uiso 0.40(3) 1 calc R . . B 2
C16 C 0.5987(3) 0.59739(13) 0.3199(3) 0.0280(7) Uani 1 1 d . U . . .
C17 C 0.6301(12) 0.6367(4) 0.2472(8) 0.025(2) Uani 0.60(3) 1 d . U . B 1
C17A C 0.6593(15) 0.6258(5) 0.2541(11) 0.017(2) Uani 0.40(3) 1 d . U . B 2
C18 C 0.6719(17) 0.6811(5) 0.3001(8) 0.043(3) Uani 0.60(3) 1 d . U . B 1
H18 H 0.695380 0.705226 0.253788 0.051 Uiso 0.60(3) 1 calc R . . B 1
C18A C 0.7174(13) 0.6664(5) 0.3088(9) 0.021(3) Uani 0.40(3) 1 d . U . B 2
H18A H 0.752657 0.687757 0.264273 0.026 Uiso 0.40(3) 1 calc R . . B 2
C19 C 0.6787(18) 0.6895(5) 0.4181(8) 0.045(4) Uani 0.60(3) 1 d . U . B 1
H19 H 0.707482 0.718843 0.451344 0.054 Uiso 0.60(3) 1 calc R . . B 1
C19A C 0.7242(13) 0.6759(5) 0.4270(10) 0.022(2) Uani 0.40(3) 1 d . U . B 2
H19A H 0.766319 0.702638 0.462165 0.027 Uiso 0.40(3) 1 calc R . . B 2
C20 C 0.650(2) 0.6640(7) 0.6177(17) 0.022(4) Uani 0.60(3) 1 d . U . B 1
C20A C 0.670(3) 0.6581(9) 0.621(2) 0.016(3) Uani 0.40(3) 1 d . U . B 2
C21 C 0.5483(3) 0.55015(13) 0.2757(3) 0.0275(7) Uani 1 1 d . . . . .
C21A C 0.6503(17) 0.6196(6) 0.1205(15) 0.022(3) Uani 0.40(3) 1 d . U . B 2
C22 C 0.5838(4) 0.50889(14) 0.3425(3) 0.0385(9) Uani 1 1 d . . . . .
H22 H 0.637737 0.511414 0.414307 0.046 Uiso 1 1 calc R . . . .
C23 C 0.5395(4) 0.46444(15) 0.3026(3) 0.0409(10) Uani 1 1 d . . . . .
H23 H 0.564618 0.437445 0.349041 0.049 Uiso 1 1 calc R . . . .
C24 C 0.4246(3) 0.49775(14) 0.1377(3) 0.0327(8) Uani 1 1 d . . . . .
H24 H 0.369099 0.494329 0.067111 0.039 Uiso 1 1 calc R . . . .
C25 C 0.4638(3) 0.54377(14) 0.1720(3) 0.0312(8) Uani 1 1 d . . . . .
H25 H 0.433757 0.570321 0.125967 0.037 Uiso 1 1 calc R . . . .
C26 C 0.6357(13) 0.6319(4) 0.1203(10) 0.0224(19) Uani 0.60(3) 1 d . U . B 1
C27 C 1.1408(4) 0.750000 0.8301(5) 0.0288(10) Uani 1 2 d S TU P . .
C28 C 1.1791(6) 0.7662(3) 0.7282(7) 0.0330(16) Uani 0.5 1 d . U . D -1
H28 H 1.123120 0.776997 0.663317 0.040 Uiso 0.5 1 calc R . . D -1
C29 C 1.2976(6) 0.7662(3) 0.7235(6) 0.0319(15) Uani 0.5 1 d . U . D -1
C30 C 1.3807(4) 0.750000 0.8259(4) 0.0242(9) Uani 1 2 d S TU P . .
C31 C 1.3435(5) 0.7378(2) 0.9263(6) 0.0274(18) Uani 0.5 1 d . U . D -1
H31 H 1.398849 0.728764 0.993518 0.033 Uiso 0.5 1 calc R . . D -1
C32 C 1.2217(5) 0.7387(3) 0.9289(6) 0.032(2) Uani 0.5 1 d . U . D -1
H32 H 1.196746 0.731448 0.998578 0.038 Uiso 0.5 1 calc R . . D -1
C33 C 1.0102(4) 0.750000 0.8300(5) 0.0272(10) Uani 1 2 d S T P B .
C34 C 1.3337(8) 0.7787(5) 0.6104(8) 0.063(2) Uani 0.5 1 d . U . D -1
C35 C 1.2935(10) 0.8219(5) 0.5493(9) 0.073(2) Uani 0.5 1 d . U . D -1
H35 H 1.248733 0.843628 0.583320 0.088 Uiso 0.5 1 calc R . . D -1
C36 C 1.3188(11) 0.8324(6) 0.4421(10) 0.079(2) Uani 0.5 1 d . U . D -1
H36 H 1.290801 0.860599 0.401868 0.095 Uiso 0.5 1 calc R . . D -1
C37 C 1.4265(9) 0.7653(5) 0.4516(8) 0.077(2) Uani 0.5 1 d . U . D -1
H37 H 1.483024 0.748588 0.419964 0.092 Uiso 0.5 1 calc R . . D -1
C38 C 1.4029(7) 0.7440(10) 0.5601(7) 0.073(2) Uani 0.5 1 d . U . D -1
H38 H 1.427810 0.713850 0.591025 0.087 Uiso 0.5 1 calc R . . D -1
C39 C 1.5123(4) 0.750000 0.8297(4) 0.0190(9) Uani 1 2 d S T P D .
O13 O 0.9516(9) 0.750000 0.4940(8) 0.077(4) Uani 0.5 2 d S T P . .
H13A H 0.956376 0.750000 0.567652 0.115 Uiso 0.5 2 d RS T P . .
H13B H 0.892196 0.732530 0.466392 0.115 Uiso 0.25 1 d R . . . .
O14 O 0.4016(14) 0.7022(5) 1.1750(9) 0.187(8) Uani 0.5 1 d . . . . .
H14A H 0.406644 0.677409 1.132975 0.280 Uiso 0.5 1 d R . . . .
H14B H 0.394464 0.693459 1.243645 0.280 Uiso 0.5 1 d R . . . .
O15 O 0.213(2) 0.4918(8) 0.840(2) 0.126(9) Uani 0.25 1 d . . . . .
H15B H 0.255921 0.466810 0.838529 0.188 Uiso 0.25 1 d R . . . .
H15C H 0.152301 0.490390 0.784009 0.188 Uiso 0.25 1 d R . . . .
loop_
_atom_site_aniso_label
_atom_site_aniso_U_11
_atom_site_aniso_U_22
_atom_site_aniso_U_33
_atom_site_aniso_U_23
_atom_site_aniso_U_13
_atom_site_aniso_U_12
Tb1 0.01596(8) 0.02285(8) 0.01507(8) -0.00245(5) 0.00588(5) -0.00281(6)
Tb2 0.01223(10) 0.02381(11) 0.01397(10) 0.000 0.00406(7) 0.000
O1 0.021(2) 0.057(5) 0.059(3) 0.025(3) 0.0165(19) 0.001(3)
O1A 0.023(3) 0.061(7) 0.050(2) 0.028(3) 0.0151(19) 0.005(4)
O2 0.026(3) 0.024(5) 0.046(2) -0.007(2) 0.0124(19) -0.009(2)
O2A 0.021(3) 0.041(6) 0.059(2) -0.006(3) 0.015(2) -0.009(4)
O3 0.0193(12) 0.0312(13) 0.0337(13) 0.0062(11) 0.0048(10) 0.0035(10)
O4 0.0201(12) 0.0350(15) 0.0530(17) -0.0053(12) 0.0129(12) -0.0001(11)
O5 0.0382(14) 0.0334(13) 0.0172(11) -0.0030(9) 0.0107(10) -0.0100(10)
O6 0.036(7) 0.033(4) 0.019(3) -0.005(3) 0.007(5) -0.012(4)
O6A 0.029(7) 0.026(4) 0.015(4) -0.004(4) 0.007(5) -0.003(4)
O7 0.032(4) 0.025(4) 0.020(3) -0.006(3) 0.005(3) -0.006(3)
O7A 0.034(7) 0.019(5) 0.019(3) -0.002(3) 0.008(3) -0.010(4)
O8 0.063(6) 0.027(3) 0.019(2) -0.002(2) 0.015(3) -0.005(3)
O8A 0.046(7) 0.019(5) 0.018(3) 0.001(3) 0.009(4) -0.010(4)
O9 0.0180(19) 0.134(5) 0.032(2) 0.000 0.0073(17) 0.000
O10 0.0145(17) 0.073(3) 0.038(2) 0.000 0.0076(15) 0.000
O11 0.0166(11) 0.0277(13) 0.0304(12) -0.0027(10) 0.0061(9) -0.0015(9)
O12 0.0277(18) 0.0312(18) 0.0220(16) 0.000 0.0068(14) 0.000
N1 0.075(3) 0.105(4) 0.061(3) 0.023(3) 0.023(3) 0.014(3)
N1A 0.070(4) 0.111(4) 0.059(3) 0.000(3) 0.032(3) 0.003(3)
N2 0.0365(17) 0.0272(15) 0.0287(15) -0.0039(13) 0.0051(13) -0.0049(13)
N3 0.055(4) 0.138(6) 0.048(3) 0.012(3) 0.010(3) -0.002(4)
C1 0.0230(16) 0.041(2) 0.056(2) 0.0164(17) 0.0131(14) 0.0079(15)
C2 0.021(2) 0.051(4) 0.045(3) 0.014(3) 0.009(2) 0.008(3)
C2A 0.017(3) 0.043(5) 0.050(3) 0.011(3) 0.007(2) 0.000(3)
C3 0.021(2) 0.044(4) 0.037(3) 0.007(2) 0.0079(19) 0.006(2)
C3A 0.018(2) 0.049(5) 0.038(2) 0.015(3) 0.0076(18) 0.003(3)
C4 0.0177(15) 0.0368(19) 0.0418(16) 0.0107(14) 0.0099(12) 0.0053(13)
C5 0.020(2) 0.038(4) 0.034(3) 0.008(3) 0.006(2) 0.004(3)
C5A 0.024(3) 0.057(6) 0.048(3) -0.004(4) 0.013(3) -0.003(4)
C6 0.022(2) 0.038(4) 0.039(3) 0.004(3) 0.0110(18) 0.003(3)
C6A 0.026(2) 0.048(6) 0.055(3) 0.001(4) 0.018(2) 0.005(3)
C7 0.0223(16) 0.0334(19) 0.0579(17) 0.0125(16) 0.0159(12) 0.0044(14)
C8 0.049(3) 0.085(3) 0.044(3) 0.019(2) 0.019(2) 0.006(3)
C8A 0.051(3) 0.093(4) 0.044(2) 0.006(2) 0.020(2) 0.006(3)
C9 0.058(3) 0.088(4) 0.055(3) 0.025(3) 0.017(3) 0.009(3)
C9A 0.063(4) 0.096(4) 0.048(3) 0.003(3) 0.022(3) 0.000(3)
C10 0.071(4) 0.095(4) 0.058(3) 0.027(3) 0.022(3) 0.011(3)
C10A 0.073(4) 0.109(4) 0.054(3) -0.005(3) 0.027(3) -0.005(4)
C11 0.067(3) 0.103(4) 0.054(3) 0.019(3) 0.027(3) 0.013(3)
C11A 0.063(3) 0.106(4) 0.052(3) 0.008(3) 0.026(3) 0.004(3)
C12 0.059(3) 0.097(4) 0.050(3) 0.015(3) 0.024(2) 0.011(3)
C12A 0.059(3) 0.099(4) 0.050(3) 0.011(3) 0.024(2) 0.004(3)
C13 0.0182(16) 0.038(2) 0.0233(16) 0.0058(14) 0.0073(13) 0.0030(14)
C14 0.031(8) 0.032(3) 0.018(2) -0.004(2) 0.006(3) -0.009(4)
C14A 0.020(6) 0.023(4) 0.014(3) 0.000(3) 0.005(3) 0.002(4)
C15 0.039(2) 0.0319(17) 0.0176(13) -0.0022(12) 0.0102(13) -0.0123(14)
C16 0.0369(19) 0.0302(17) 0.0173(13) -0.0025(11) 0.0069(12) -0.0126(14)
C17 0.030(6) 0.027(3) 0.019(2) -0.0021(19) 0.010(3) -0.006(3)
C17A 0.019(5) 0.015(4) 0.016(3) 0.000(2) 0.003(3) 0.003(4)
C18 0.077(9) 0.032(4) 0.023(3) -0.004(3) 0.020(4) -0.024(5)
C18A 0.031(6) 0.019(4) 0.016(3) -0.001(3) 0.010(3) -0.004(4)
C19 0.076(9) 0.037(4) 0.024(3) -0.010(3) 0.017(4) -0.029(5)
C19A 0.029(6) 0.022(5) 0.017(3) -0.004(3) 0.008(3) -0.005(4)
C20 0.021(9) 0.029(4) 0.016(2) -0.001(2) 0.003(3) -0.003(5)
C20A 0.016(7) 0.019(4) 0.013(3) 0.000(3) 0.003(4) 0.006(5)
C21 0.0332(19) 0.0309(18) 0.0200(15) -0.0036(14) 0.0094(14) -0.0062(15)
C21A 0.033(7) 0.017(5) 0.017(3) 0.000(3) 0.007(3) -0.008(4)
C22 0.052(3) 0.034(2) 0.0235(17) -0.0018(15) -0.0054(17) -0.0095(18)
C23 0.059(3) 0.030(2) 0.0298(19) 0.0009(16) -0.0005(18) -0.0023(19)
C24 0.036(2) 0.0299(19) 0.0292(18) -0.0057(15) 0.0006(15) -0.0047(16)
C25 0.034(2) 0.0308(19) 0.0273(18) -0.0019(15) 0.0033(15) -0.0033(16)
C26 0.027(4) 0.024(4) 0.018(2) -0.005(2) 0.007(2) -0.012(3)
C27 0.016(2) 0.033(3) 0.038(2) 0.000 0.0087(15) 0.000
C28 0.017(2) 0.046(4) 0.037(3) 0.004(2) 0.006(2) 0.002(2)
C29 0.016(2) 0.047(4) 0.033(2) -0.003(2) 0.0035(17) -0.002(2)
C30 0.0148(19) 0.025(2) 0.034(2) 0.000 0.0086(15) 0.000
C31 0.015(2) 0.034(5) 0.035(2) 0.004(2) 0.0076(19) -0.003(2)
C32 0.017(2) 0.045(7) 0.036(2) 0.004(3) 0.0117(17) 0.001(2)
C33 0.017(2) 0.030(3) 0.037(3) 0.000 0.010(2) 0.000
C34 0.030(3) 0.123(6) 0.035(3) 0.010(3) 0.008(2) -0.004(3)
C35 0.053(4) 0.125(6) 0.042(3) 0.014(3) 0.008(3) -0.003(4)
C36 0.061(4) 0.130(6) 0.047(3) 0.016(3) 0.014(3) -0.003(4)
C37 0.055(4) 0.135(6) 0.045(3) 0.009(3) 0.019(3) 0.003(4)
C38 0.049(3) 0.132(6) 0.041(3) 0.008(4) 0.015(2) 0.005(4)
C39 0.013(2) 0.028(2) 0.017(2) 0.000 0.0048(16) 0.000
O13 0.043(6) 0.155(12) 0.030(5) 0.000 0.002(4) 0.000
O14 0.272(18) 0.229(15) 0.048(5) -0.001(8) 0.007(8) 0.165(14)
O15 0.131(18) 0.109(16) 0.15(2) 0.056(15) 0.063(16) 0.073(15)
loop_
_atom_type_symbol
_atom_type_description
_atom_type_scat_dispersion_real
_atom_type_scat_dispersion_imag
_atom_type_scat_source
C C 0.0033 0.0016 'International Tables Vol C Tables 4.2.6.8 and 6.1.1.4'
H H 0.0000 0.0000 'International Tables Vol C Tables 4.2.6.8 and 6.1.1.4'
N N 0.0061 0.0033 'International Tables Vol C Tables 4.2.6.8 and 6.1.1.4'
O O 0.0106 0.0060 'International Tables Vol C Tables 4.2.6.8 and 6.1.1.4'
Tb Tb -0.1723 4.1537 'International Tables Vol C Tables 4.2.6.8 and 6.1.1.4'
loop_
_geom_angle_atom_site_label_1
_geom_angle_atom_site_label_2
_geom_angle_atom_site_label_3
_geom_angle
_geom_angle_site_symmetry_1
_geom_angle_site_symmetry_3
_geom_angle_publ_flag
O1 Tb1 O2 52.7(2) . . ?
O1 Tb1 O4 137.8(2) . 1_655 ?
O1 Tb1 O7 72.2(4) . 1_556 ?
O1 Tb1 O7A 67.8(5) . 1_556 ?
O1 Tb1 O8 74.1(5) . 1_556 ?
O1 Tb1 O8A 82.5(5) . 1_556 ?
O1 Tb1 N2 79.6(4) . 3_666 ?
O1A Tb1 O2A 52.9(3) . . ?
O2 Tb1 O7A 119.2(5) . 1_556 ?
O4 Tb1 O2 148.2(2) 1_655 . ?
O4 Tb1 O2A 143.1(3) 1_655 . ?
O4 Tb1 O7A 74.4(5) 1_655 1_556 ?
O4 Tb1 N2 75.97(10) 1_655 3_666 ?
O5 Tb1 O1 129.6(3) . . ?
O5 Tb1 O1A 133.03(19) . . ?
O5 Tb1 O2 78.57(16) . . ?
O5 Tb1 O2A 81.7(3) . . ?
O5 Tb1 O4 78.15(9) . 1_655 ?
O5 Tb1 O7 150.2(3) . 1_556 ?
O5 Tb1 O7A 148.6(4) . 1_556 ?
O5 Tb1 O8 143.0(2) . 1_556 ?
O5 Tb1 O8A 142.5(3) . 1_556 ?
O5 Tb1 O11 76.87(8) . 4_475 ?
O5 Tb1 N2 78.74(9) . 3_666 ?
O7 Tb1 O2 124.7(4) 1_556 . ?
O7 Tb1 O4 72.9(3) 1_556 1_655 ?
O7 Tb1 O7A 8.3(4) 1_556 1_556 ?
O7 Tb1 N2 87.6(3) 1_556 3_666 ?
O8 Tb1 O2 109.0(4) 1_556 . ?
O8 Tb1 O4 102.7(4) 1_556 1_655 ?
O8 Tb1 O7 53.4(2) 1_556 1_556 ?
O8 Tb1 O7A 59.9(4) 1_556 1_556 ?
O8 Tb1 N2 137.9(2) 1_556 3_666 ?
O8A Tb1 O1A 73.1(5) 1_556 . ?
O8A Tb1 O2A 124.4(5) 1_556 . ?
O11 Tb1 O1 99.5(3) 4_475 . ?
O11 Tb1 O1A 86.7(5) 4_475 . ?
O11 Tb1 O2 75.3(3) 4_475 . ?
O11 Tb1 O2A 84.9(4) 4_475 . ?
O11 Tb1 O4 119.46(8) 4_475 1_655 ?
O11 Tb1 O7 123.8(3) 4_475 1_556 ?
O11 Tb1 O7A 130.6(4) 4_475 1_556 ?
O11 Tb1 O8 70.7(3) 4_475 1_556 ?
O11 Tb1 O8A 79.2(4) 4_475 1_556 ?
O11 Tb1 N2 147.11(9) 4_475 3_666 ?
N2 Tb1 O2 78.5(3) 3_666 . ?
N2 Tb1 O7A 80.0(4) 3_666 1_556 ?
O3 Tb2 O3 142.35(12) 4_675 1_655 ?
O3 Tb2 O11 115.65(8) 1_655 1_455 ?
O3 Tb2 O11 115.65(8) 4_675 4_475 ?
O3 Tb2 O11 68.64(8) 4_675 1_455 ?
O3 Tb2 O11 68.64(8) 1_655 4_475 ?
O6 Tb2 O3 143.3(5) . 4_675 ?
O6 Tb2 O3 74.3(5) . 1_655 ?
O6 Tb2 O3 143.3(5) 4_575 1_655 ?
O6 Tb2 O3 74.3(5) 4_575 4_675 ?
O6 Tb2 O6 69.0(10) . 4_575 ?
O6 Tb2 O6A 74.4(4) . 4_575 ?
O6 Tb2 O6A 8.7(8) 4_575 4_575 ?
O6 Tb2 O9 79.5(5) 4_575 . ?
O6 Tb2 O9 79.5(5) . . ?
O6 Tb2 O10 122.3(4) . . ?
O6 Tb2 O10 122.3(4) 4_575 . ?
O6 Tb2 O11 96.8(4) . 1_455 ?
O6 Tb2 O11 69.0(5) 4_575 1_455 ?
O6 Tb2 O11 69.0(5) . 4_475 ?
O6 Tb2 O11 96.8(4) 4_575 4_475 ?
O6 Tb2 O12 136.8(5) 4_575 . ?
O6 Tb2 O12 136.8(5) . . ?
O6A Tb2 O10 113.8(6) 4_575 . ?
O6A Tb2 O10 113.8(6) . . ?
O6A Tb2 O12 136.9(7) . . ?
O6A Tb2 O12 136.9(7) 4_575 . ?
O9 Tb2 O3 94.87(7) . 4_675 ?
O9 Tb2 O3 94.87(6) . 1_655 ?
O9 Tb2 O6A 73.4(6) . 4_575 ?
O9 Tb2 O6A 73.4(6) . . ?
O9 Tb2 O10 53.19(14) . . ?
O9 Tb2 O11 147.24(8) . 1_455 ?
O9 Tb2 O11 147.24(8) . 4_475 ?
O9 Tb2 O12 130.60(13) . . ?
O10 Tb2 O3 78.56(6) . 1_655 ?
O10 Tb2 O3 78.56(6) . 4_675 ?
O10 Tb2 O11 140.89(9) . 1_455 ?
O10 Tb2 O11 140.89(9) . 4_475 ?
O11 Tb2 O11 49.81(10) 4_475 1_455 ?
O12 Tb2 O3 73.05(6) . 1_655 ?
O12 Tb2 O3 73.05(6) . 4_675 ?
O12 Tb2 O10 77.40(12) . . ?
O12 Tb2 O11 73.19(9) . 1_455 ?
O12 Tb2 O11 73.19(9) . 4_475 ?
C7 O1 Tb1 97.9(4) . . ?
C7 O1A Tb1 92.6(5) . . ?
C7 O2 Tb1 88.7(4) . . ?
C7 O2A Tb1 94.0(6) . . ?
Tb2 O3 Tb1 109.81(9) 1_455 1_455 ?
C13 O3 Tb1 90.8(2) . 1_455 ?
C13 O3 Tb2 149.2(2) . 1_455 ?
C13 O4 Tb1 96.4(2) . 1_455 ?
C20 O5 Tb1 134.0(9) . . ?
C20A O5 Tb1 135.4(14) . . ?
C20 O6 Tb2 146.3(17) . . ?
C20A O6A Tb2 144(2) . . ?
C26 O7 Tb1 92.2(7) . 1_554 ?
C26 O8 Tb1 93.0(5) . 1_554 ?
C33 O9 Tb2 94.9(3) . . ?
C33 O9 Tb2 94.9(3) 4_575 . ?
C33 O9 C33 0.0(3) 4_575 . ?
C33 O10 Tb2 92.2(3) 4_575 . ?
C33 O10 Tb2 92.2(3) . . ?
C33 O10 C33 0.00(16) 4_575 . ?
Tb1 O11 Tb2 111.19(8) 4_675 1_655 ?
C39 O11 Tb1 152.2(2) . 4_675 ?
C39 O11 Tb2 95.0(2) . 1_655 ?
Tb2 O12 H12A 113.3 . . ?
Tb2 O12 H12B 113.0 . . ?
H12A O12 H12B 100.9 . . ?
C10 N1 H1 121.0 . . ?
C10 N1 C11 118.0(9) . . ?
C11 N1 H1 121.0 . . ?
C10A N1A H1A 122.3 . . ?
C11A N1A H1A 122.3 . . ?
C11A N1A C10A 115.4(11) . . ?
C23 N2 Tb1 118.7(3) . 3_666 ?
C24 N2 Tb1 124.6(2) . 3_666 ?
C24 N2 C23 116.5(3) . . ?
C37 N3 C36 120.0(10) . . ?
C2 C1 C6 118.0(5) . . ?
C2 C1 C7 121.1(5) . . ?
C6 C1 C7 120.0(4) . . ?
C6A C1 C2A 119.0(6) . . ?
C6A C1 C7 126.4(6) . . ?
C7 C1 C2A 114.4(5) . . ?
C1 C2 H2 118.1 . . ?
C1 C2 C3 123.8(6) . . ?
C3 C2 H2 118.1 . . ?
C1 C2A H2A 121.0 . . ?
C3A C2A C1 118.0(8) . . ?
C3A C2A H2A 121.0 . . ?
C2 C3 C4 118.2(6) . . ?
C2 C3 C8 118.2(7) . . ?
C4 C3 C8 123.2(6) . . ?
C2A C3A C4 115.2(8) . . ?
C2A C3A C8A 118.9(9) . . ?
C8A C3A C4 125.8(7) . . ?
C3 C4 C5 117.8(5) . . ?
C3 C4 C13 124.5(4) . . ?
C5 C4 C13 115.9(4) . . ?
C5A C4 C3A 119.2(6) . . ?
C5A C4 C13 123.4(6) . . ?
C13 C4 C3A 117.1(4) . . ?
C4 C5 H5 119.7 . . ?
C6 C5 C4 120.5(7) . . ?
C6 C5 H5 119.7 . . ?
C4 C5A H5A 117.8 . . ?
C4 C5A C6A 124.5(10) . . ?
C6A C5A H5A 117.8 . . ?
C1 C6 H6 121.1 . . ?
C5 C6 C1 117.8(7) . . ?
C5 C6 H6 121.1 . . ?
C1 C6A C5A 124.1(10) . . ?
C1 C6A H6A 118.0 . . ?
C5A C6A H6A 118.0 . . ?
O1 C7 O2 120.4(6) . . ?
O1 C7 C1 118.6(5) . . ?
O1A C7 C1 117.9(5) . . ?
O2 C7 C1 120.7(5) . . ?
O2A C7 O1A 120.1(7) . . ?
O2A C7 C1 121.9(6) . . ?
C9 C8 C3 117.5(8) . . ?
C12 C8 C3 123.0(9) . . ?
C12 C8 C9 119.5(9) . . ?
C9A C8A C3A 119.5(10) . . ?
C12A C8A C3A 122.8(13) . . ?
C12A C8A C9A 117.7(12) . . ?
C8 C9 H9 122.7 . . ?
C10 C9 C8 114.6(10) . . ?
C10 C9 H9 122.7 . . ?
C8A C9A H9A 120.7 . . ?
C8A C9A C10A 118.7(12) . . ?
C10A C9A H9A 120.7 . . ?
N1 C10 C9 126.1(11) . . ?
N1 C10 H10 116.9 . . ?
C9 C10 H10 116.9 . . ?
N1A C10A C9A 123.3(14) . . ?
N1A C10A H10A 118.4 . . ?
C9A C10A H10A 118.4 . . ?
N1 C11 H11 119.5 . . ?
C12 C11 N1 121.0(11) . . ?
C12 C11 H11 119.5 . . ?
N1A C11A H11A 119.2 . . ?
N1A C11A C12A 121.7(13) . . ?
C12A C11A H11A 119.2 . . ?
C8 C12 H12 119.8 . . ?
C11 C12 C8 120.4(11) . . ?
C11 C12 H12 119.8 . . ?
C8A C12A C11A 122.4(15) . . ?
C8A C12A H12C 118.8 . . ?
C11A C12A H12C 118.8 . . ?
O3 C13 Tb1 63.10(17) . 1_455 ?
O3 C13 C4 119.5(3) . . ?
O4 C13 Tb1 58.23(17) . 1_455 ?
O4 C13 O3 121.3(3) . . ?
O4 C13 C4 119.2(3) . . ?
C4 C13 Tb1 175.0(3) . 1_455 ?
C15 C14 C20 120.8(11) . . ?
C19 C14 C15 120.4(10) . . ?
C19 C14 C20 118.8(9) . . ?
C15 C14A C19A 119.5(14) . . ?
C15 C14A C20A 121.1(17) . . ?
C19A C14A C20A 119.1(14) . . ?
C14 C15 H15 119.2 . . ?
C14A C15 H15A 119.3 . . ?
C14A C15 C16 121.3(9) . . ?
C16 C15 C14 121.6(6) . . ?
C16 C15 H15 119.2 . . ?
C16 C15 H15A 119.3 . . ?
C15 C16 C17 116.5(5) . . ?
C15 C16 C21 117.3(3) . . ?
C17 C16 C21 125.7(5) . . ?
C17A C16 C15 120.1(6) . . ?
C17A C16 C21 121.4(6) . . ?
C16 C17 C26 124.5(7) . . ?
C18 C17 C16 119.9(7) . . ?
C18 C17 C26 115.2(7) . . ?
C16 C17A C18A 117.4(10) . . ?
C16 C17A C21A 123.6(12) . . ?
C18A C17A C21A 118.3(11) . . ?
C17 C18 H18 119.2 . . ?
C19 C18 C17 121.6(8) . . ?
C19 C18 H18 119.2 . . ?
C17A C18A H18A 119.0 . . ?
C19A C18A C17A 122.0(11) . . ?
C19A C18A H18A 119.0 . . ?
C14 C19 H19 120.1 . . ?
C18 C19 C14 119.8(9) . . ?
C18 C19 H19 120.1 . . ?
C14A C19A H19A 120.3 . . ?
C18A C19A C14A 119.4(12) . . ?
C18A C19A H19A 120.3 . . ?
O5 C20 C14 116.9(14) . . ?
O6 C20 O5 126.6(18) . . ?
O6 C20 C14 116.4(14) . . ?
O5 C20A C14A 118(2) . . ?
O6A C20A O5 126(2) . . ?
O6A C20A C14A 116(2) . . ?
C22 C21 C16 119.0(3) . . ?
C25 C21 C16 124.4(3) . . ?
C25 C21 C22 116.6(3) . . ?
O7A C21A O8A 122.3(13) . . ?
O7A C21A C17A 123.8(11) . . ?
O8A C21A C17A 113.9(12) . . ?
C21 C22 H22 119.9 . . ?
C23 C22 C21 120.2(3) . . ?
C23 C22 H22 119.9 . . ?
N2 C23 C22 123.1(4) . . ?
N2 C23 H23 118.5 . . ?
C22 C23 H23 118.5 . . ?
N2 C24 H24 118.0 . . ?
N2 C24 C25 124.0(3) . . ?
C25 C24 H24 118.0 . . ?
C21 C25 H25 120.2 . . ?
C24 C25 C21 119.5(4) . . ?
C24 C25 H25 120.2 . . ?
O7 C26 Tb1 61.3(6) . 1_554 ?
O7 C26 O8 119.9(8) . . ?
O7 C26 C17 123.4(8) . . ?
O8 C26 Tb1 59.7(5) . 1_554 ?
O8 C26 C17 116.7(7) . . ?
C17 C26 Tb1 166.7(9) . 1_554 ?
C28 C27 C33 118.9(5) . . ?
C28 C27 C33 118.9(5) . 4_575 ?
C32 C27 C28 120.0(5) . . ?
C32 C27 C33 120.9(5) . . ?
C32 C27 C33 120.9(5) . 4_575 ?
C33 C27 C33 0.000(1) 4_575 . ?
C27 C28 H28 119.5 . . ?
C29 C28 C27 121.0(6) . . ?
C29 C28 H28 119.5 . . ?
C28 C29 C30 117.6(6) . . ?
C28 C29 C34 119.5(7) . . ?
C30 C29 C34 122.7(6) . . ?
C29 C30 C39 121.3(4) . . ?
C31 C30 C29 120.7(5) . . ?
C31 C30 C39 117.8(5) . . ?
C30 C31 H31 119.9 . . ?
C30 C31 C32 120.2(6) . . ?
C32 C31 H31 119.9 . . ?
C27 C32 C31 119.9(6) . . ?
C27 C32 H32 120.0 . . ?
C31 C32 H32 120.0 . . ?
O9 C33 C27 119.7(5) . . ?
O10 C33 O9 119.7(5) . . ?
O10 C33 C27 120.6(5) . . ?
C33 C33 O9 0(10) 4_575 . ?
C33 C33 O10 0(10) 4_575 . ?
C33 C33 C27 0(10) 4_575 . ?
C35 C34 C29 120.8(9) . . ?
C35 C34 C38 120.6(11) . . ?
C38 C34 C29 118.4(11) . . ?
C34 C35 H35 119.1 . . ?
C36 C35 C34 121.8(13) . . ?
C36 C35 H35 119.1 . . ?
N3 C36 H36 121.2 . . ?
C35 C36 N3 117.6(13) . . ?
C35 C36 H36 121.2 . . ?
N3 C37 H37 114.0 . . ?
N3 C37 C38 132.0(13) . . ?
C38 C37 H37 114.0 . . ?
C34 C38 C37 107.2(17) . . ?
C34 C38 H38 126.4 . . ?
C37 C38 H38 126.4 . . ?
O11 C39 Tb2 60.1(2) 4_575 1_655 ?
O11 C39 Tb2 60.1(2) . 1_655 ?
O11 C39 O11 120.1(4) 4_575 . ?
O11 C39 C30 119.9(2) 4_575 . ?
O11 C39 C30 119.9(2) . . ?
C30 C39 Tb2 176.6(3) . 1_655 ?
H13A O13 H13B 105.2 . 4_575 ?
H13A O13 H13B 105.2 . . ?
H13B O13 H13B 70.0 . 4_575 ?
H14A O14 H14B 109.5 . . ?
H15B O15 H15C 109.5 . . ?
loop_
_geom_bond_atom_site_label_1
_geom_bond_atom_site_label_2
_geom_bond_distance
_geom_bond_site_symmetry_2
_geom_bond_publ_flag
Tb1 O1 2.391(7) . ?
Tb1 O1A 2.419(9) . ?
Tb1 O2 2.534(8) . ?
Tb1 O2A 2.493(10) . ?
Tb1 O4 2.466(2) 1_655 ?
Tb1 O5 2.327(2) . ?
Tb1 O7 2.464(12) 1_556 ?
Tb1 O7A 2.561(17) 1_556 ?
Tb1 O8 2.428(8) 1_556 ?
Tb1 O8A 2.398(12) 1_556 ?
Tb1 O11 2.385(2) 4_475 ?
Tb1 N2 2.506(3) 3_666 ?
Tb2 O3 2.431(2) 4_675 ?
Tb2 O3 2.431(2) 1_655 ?
Tb2 O6 2.323(17) . ?
Tb2 O6 2.323(17) 4_575 ?
Tb2 O6A 2.37(2) 4_575 ?
Tb2 O6A 2.37(2) . ?
Tb2 O9 2.356(4) . ?
Tb2 O10 2.422(4) . ?
Tb2 O11 2.575(2) 1_455 ?
Tb2 O11 2.575(2) 4_475 ?
Tb2 O12 2.421(3) . ?
O1 C7 1.213(8) . ?
O1A C7 1.356(11) . ?
O2 C7 1.312(8) . ?
O2A C7 1.168(11) . ?
O3 C13 1.270(4) . ?
O4 C13 1.243(4) . ?
O5 C20 1.262(13) . ?
O5 C20A 1.26(2) . ?
O6 C20 1.241(13) . ?
O6A C20A 1.26(2) . ?
O7 C26 1.253(10) . ?
O7A C21A 1.217(15) . ?
O8 C26 1.287(10) . ?
O8A C21A 1.290(13) . ?
O9 C33 1.246(7) 4_575 ?
O9 C33 1.246(7) . ?
O10 C33 1.229(6) 4_575 ?
O10 C33 1.229(6) . ?
O11 C39 1.252(3) . ?
O12 H12A 0.9256 . ?
O12 H12B 0.9255 . ?
N1 H1 0.8600 . ?
N1 C10 1.337(14) . ?
N1 C11 1.374(14) . ?
N1A H1A 0.8600 . ?
N1A C10A 1.363(17) . ?
N1A C11A 1.345(18) . ?
N2 C23 1.350(5) . ?
N2 C24 1.328(5) . ?
N3 C36 1.366(17) . ?
N3 C37 1.198(16) . ?
C1 C2 1.312(8) . ?
C1 C2A 1.561(11) . ?
C1 C6 1.462(9) . ?
C1 C6A 1.190(12) . ?
C1 C7 1.502(5) . ?
C2 H2 0.9300 . ?
C2 C3 1.385(9) . ?
C2A H2A 0.9300 . ?
C2A C3A 1.401(11) . ?
C3 C4 1.395(8) . ?
C3 C8 1.507(11) . ?
C3A C4 1.519(10) . ?
C3A C8A 1.483(14) . ?
C4 C5 1.424(8) . ?
C4 C5A 1.264(11) . ?
C4 C13 1.506(5) . ?
C5 H5 0.9300 . ?
C5 C6 1.374(10) . ?
C5A H5A 0.9300 . ?
C5A C6A 1.396(13) . ?
C6 H6 0.9300 . ?
C6A H6A 0.9300 . ?
C8 C9 1.463(14) . ?
C8 C12 1.372(14) . ?
C8A C9A 1.368(18) . ?
C8A C12A 1.335(17) . ?
C9 H9 0.9300 . ?
C9 C10 1.357(13) . ?
C9A H9A 0.9300 . ?
C9A C10A 1.387(16) . ?
C10 H10 0.9300 . ?
C10A H10A 0.9300 . ?
C11 H11 0.9300 . ?
C11 C12 1.366(14) . ?
C11A H11A 0.9300 . ?
C11A C12A 1.372(17) . ?
C12 H12 0.9300 . ?
C12A H12C 0.9300 . ?
C14 C15 1.422(12) . ?
C14 C19 1.392(13) . ?
C14 C20 1.508(15) . ?
C14A C15 1.347(18) . ?
C14A C19A 1.377(18) . ?
C14A C20A 1.52(2) . ?
C15 H15 0.9300 . ?
C15 H15A 0.9300 . ?
C15 C16 1.399(4) . ?
C16 C17 1.464(10) . ?
C16 C17A 1.377(13) . ?
C16 C21 1.477(5) . ?
C17 C18 1.411(10) . ?
C17 C26 1.487(11) . ?
C17A C18A 1.388(15) . ?
C17A C21A 1.536(18) . ?
C18 H18 0.9300 . ?
C18 C19 1.369(10) . ?
C18A H18A 0.9300 . ?
C18A C19A 1.377(12) . ?
C19 H19 0.9300 . ?
C19A H19A 0.9300 . ?
C21 C22 1.390(5) . ?
C21 C25 1.389(5) . ?
C22 H22 0.9300 . ?
C22 C23 1.373(5) . ?
C23 H23 0.9300 . ?
C24 H24 0.9300 . ?
C24 C25 1.381(5) . ?
C25 H25 0.9300 . ?
C27 C28 1.412(8) . ?
C27 C32 1.351(8) . ?
C27 C33 1.499(6) . ?
C27 C33 1.499(6) 4_575 ?
C28 H28 0.9300 . ?
C28 C29 1.373(9) . ?
C29 C30 1.429(8) . ?
C29 C34 1.490(11) . ?
C30 C31 1.360(8) . ?
C30 C39 1.502(6) . ?
C31 H31 0.9300 . ?
C31 C32 1.405(8) . ?
C32 H32 0.9300 . ?
C33 C33 0.000(10) 4_575 ?
C34 C35 1.416(17) . ?
C34 C38 1.44(2) . ?
C35 H35 0.9300 . ?
C35 C36 1.361(14) . ?
C36 H36 0.9300 . ?
C37 H37 0.9300 . ?
C37 C38 1.460(16) . ?
C38 H38 0.9300 . ?
O13 H13A 0.8415 . ?
O13 H13B 0.8425 . ?
O13 H13B 0.8426 4_575 ?
O14 H14A 0.8501 . ?
O14 H14B 0.8499 . ?
O15 H15B 0.8498 . ?
O15 H15C 0.8501 . ?
loop_
_geom_hbond_atom_site_label_D
_geom_hbond_atom_site_label_H
_geom_hbond_atom_site_label_A
_geom_hbond_distance_DH
_geom_hbond_distance_HA
_geom_hbond_distance_DA
_geom_hbond_angle_DHA
_geom_hbond_site_symmetry_A
_geom_hbond_publ_flag
O12 H12A O8 0.93 1.86 2.748(9) 160.3 1_556 yes
O12 H12A O8A 0.93 1.88 2.789(12) 167.8 1_556 yes
O12 H12B O8 0.93 1.85 2.748(9) 162.3 4_576 yes
O12 H12B O8A 0.93 1.97 2.789(12) 146.8 4_576 yes
N1A H1A O13 0.86 2.19 2.841(13) 131.9 1_456 yes
C24 H24 O7A 0.93 2.61 3.203(17) 122.3 3_665 yes
C25 H25 O1 0.93 2.32 3.156(8) 149.1 1_554 yes
O14 H14A O1A 0.85 2.31 3.115(19) 157.5 . yes
loop_
_geom_torsion_atom_site_label_1
_geom_torsion_atom_site_label_2
_geom_torsion_atom_site_label_3
_geom_torsion_atom_site_label_4
_geom_torsion
_geom_torsion_site_symmetry_1
_geom_torsion_site_symmetry_2
_geom_torsion_site_symmetry_3
_geom_torsion_site_symmetry_4
_geom_torsion_publ_flag
Tb1 O1 C7 O2 5.3(8) . . . . ?
Tb1 O1 C7 C1 179.0(3) . . . . ?
Tb1 O1A C7 O2A -5.9(8) . . . . ?
Tb1 O1A C7 C1 176.5(3) . . . . ?
Tb1 O2 C7 O1 -5.0(7) . . . . ?
Tb1 O2 C7 C1 -178.5(4) . . . . ?
Tb1 O2A C7 O1A 5.7(8) . . . . ?
Tb1 O2A C7 C1 -176.7(3) . . . . ?
Tb1 O3 C13 O4 -2.7(3) 1_455 . . . ?
Tb1 O3 C13 C4 175.1(3) 1_455 . . . ?
Tb1 O4 C13 O3 2.9(4) 1_455 . . . ?
Tb1 O4 C13 C4 -175.0(3) 1_455 . . . ?
Tb1 O5 C20 O6 6(4) . . . . ?
Tb1 O5 C20 C14 -177.0(9) . . . . ?
Tb1 O5 C20A O6A -11(5) . . . . ?
Tb1 O5 C20A C14A 173.1(12) . . . . ?
Tb1 O7 C26 O8 -12.0(11) 1_554 . . . ?
Tb1 O7 C26 C17 165.5(11) 1_554 . . . ?
Tb1 O7A C21A O8A -13.1(16) 1_554 . . . ?
Tb1 O7A C21A C17A 167.2(15) 1_554 . . . ?
Tb1 O8 C26 O7 12.2(11) 1_554 . . . ?
Tb1 O8 C26 C17 -165.4(9) 1_554 . . . ?
Tb1 O8A C21A O7A 14.0(17) 1_554 . . . ?
Tb1 O8A C21A C17A -166.2(12) 1_554 . . . ?
Tb1 O11 C39 Tb2 -160.3(6) 4_675 . . 1_655 ?
Tb1 O11 C39 O11 -155.9(2) 4_675 . . 4_575 ?
Tb1 O11 C39 C30 23.7(8) 4_675 . . . ?
Tb1 N2 C23 C22 172.0(3) 3_666 . . . ?
Tb1 N2 C24 C25 -172.3(3) 3_666 . . . ?
Tb2 O3 C13 Tb1 -133.2(4) 1_455 . . 1_455 ?
Tb2 O3 C13 O4 -136.0(4) 1_455 . . . ?
Tb2 O3 C13 C4 41.8(6) 1_455 . . . ?
Tb2 O6 C20 O5 3(5) . . . . ?
Tb2 O6 C20 C14 -174.0(15) . . . . ?
Tb2 O6A C20A O5 -6(7) . . . . ?
Tb2 O6A C20A C14A 171(2) . . . . ?
Tb2 O9 C33 O10 0.000(2) . . . . ?
Tb2 O9 C33 C27 180.000(2) . . . . ?
Tb2 O9 C33 C33 0.0(6) . . . 4_575 ?
Tb2 O10 C33 O9 0.000(1) . . . . ?
Tb2 O10 C33 C27 180.000(2) . . . . ?
Tb2 O10 C33 C33 0(100) . . . 4_575 ?
Tb2 O11 C39 O11 4.4(4) 1_655 . . 4_575 ?
Tb2 O11 C39 C30 -176.0(4) 1_655 . . . ?
N1 C11 C12 C8 -2.0(19) . . . . ?
N1A C11A C12A C8A 1(2) . . . . ?
N2 C24 C25 C21 1.2(6) . . . . ?
N3 C37 C38 C34 -12(2) . . . . ?
C1 C2 C3 C4 -1.7(12) . . . . ?
C1 C2 C3 C8 -174.9(8) . . . . ?
C1 C2A C3A C4 1.2(11) . . . . ?
C1 C2A C3A C8A 177.5(8) . . . . ?
C2 C1 C6 C5 16.1(10) . . . . ?
C2 C1 C7 O1 -10.7(12) . . . . ?
C2 C1 C7 O2 163.0(8) . . . . ?
C2 C3 C4 C5 16.8(10) . . . . ?
C2 C3 C4 C13 -179.3(6) . . . . ?
C2 C3 C8 C9 -46.5(13) . . . . ?
C2 C3 C8 C12 132.8(11) . . . . ?
C2A C1 C6A C5A -3.1(15) . . . . ?
C2A C1 C7 O1A 10.7(11) . . . . ?
C2A C1 C7 O2A -166.9(11) . . . . ?
C2A C3A C4 C5A -3.0(11) . . . . ?
C2A C3A C4 C13 -177.6(6) . . . . ?
C2A C3A C8A C9A 50.7(15) . . . . ?
C2A C3A C8A C12A -130.2(13) . . . . ?
C3 C4 C5 C6 -15.0(10) . . . . ?
C3 C4 C13 O3 123.3(5) . . . . ?
C3 C4 C13 O4 -58.8(7) . . . . ?
C3 C8 C9 C10 173.8(9) . . . . ?
C3 C8 C12 C11 -175.9(10) . . . . ?
C3A C4 C5A C6A 2.1(15) . . . . ?
C3A C4 C13 O3 67.2(6) . . . . ?
C3A C4 C13 O4 -115.0(5) . . . . ?
C3A C8A C9A C10A -178.1(11) . . . . ?
C3A C8A C12A C11A 175.1(12) . . . . ?
C4 C3 C8 C9 140.7(8) . . . . ?
C4 C3 C8 C12 -40.0(14) . . . . ?
C4 C3A C8A C9A -133.5(11) . . . . ?
C4 C3A C8A C12A 45.7(17) . . . . ?
C4 C5 C6 C1 -1.2(11) . . . . ?
C4 C5A C6A C1 1.2(19) . . . . ?
C5 C4 C13 O3 -72.5(6) . . . . ?
C5 C4 C13 O4 105.4(5) . . . . ?
C5A C4 C13 O3 -107.2(8) . . . . ?
C5A C4 C13 O4 70.7(8) . . . . ?
C6 C1 C2 C3 -14.9(11) . . . . ?
C6 C1 C7 O1 179.7(10) . . . . ?
C6 C1 C7 O2 -6.6(9) . . . . ?
C6A C1 C2A C3A 1.7(12) . . . . ?
C6A C1 C7 O1A -175.6(12) . . . . ?
C6A C1 C7 O2A 6.9(14) . . . . ?
C7 C1 C2 C3 175.3(7) . . . . ?
C7 C1 C2A C3A 176.0(7) . . . . ?
C7 C1 C6 C5 -174.0(6) . . . . ?
C7 C1 C6A C5A -176.5(8) . . . . ?
C8 C3 C4 C5 -170.4(8) . . . . ?
C8 C3 C4 C13 -6.5(11) . . . . ?
C8 C9 C10 N1 7.1(18) . . . . ?
C8A C3A C4 C5A -179.0(11) . . . . ?
C8A C3A C4 C13 6.4(12) . . . . ?
C8A C9A C10A N1A 6(2) . . . . ?
C9 C8 C12 C11 3.3(18) . . . . ?
C9A C8A C12A C11A -6(2) . . . . ?
C10 N1 C11 C12 3.0(18) . . . . ?
C10A N1A C11A C12A 7(2) . . . . ?
C11 N1 C10 C9 -6.0(19) . . . . ?
C11A N1A C10A C9A -10(2) . . . . ?
C12 C8 C9 C10 -5.5(16) . . . . ?
C12A C8A C9A C10A 3(2) . . . . ?
C13 C4 C5 C6 179.7(6) . . . . ?
C13 C4 C5A C6A 176.3(9) . . . . ?
C14 C15 C16 C17 -2.5(10) . . . . ?
C14 C15 C16 C21 -175.1(9) . . . . ?
C14A C15 C16 C17A -0.5(13) . . . . ?
C14A C15 C16 C21 167.2(12) . . . . ?
C15 C14 C19 C18 3.1(18) . . . . ?
C15 C14 C20 O5 -6(3) . . . . ?
C15 C14 C20 O6 170.8(17) . . . . ?
C15 C14A C19A C18A -3(2) . . . . ?
C15 C14A C20A O5 1(4) . . . . ?
C15 C14A C20A O6A -175(2) . . . . ?
C15 C16 C17 C18 4.7(10) . . . . ?
C15 C16 C17 C26 176.9(9) . . . . ?
C15 C16 C17A C18A -4.3(14) . . . . ?
C15 C16 C17A C21A -174.7(9) . . . . ?
C15 C16 C21 C22 -45.3(5) . . . . ?
C15 C16 C21 C25 132.8(4) . . . . ?
C16 C17 C18 C19 -3.2(14) . . . . ?
C16 C17 C26 Tb1 83(3) . . . 1_554 ?
C16 C17 C26 O7 -23.7(16) . . . . ?
C16 C17 C26 O8 153.9(9) . . . . ?
C16 C17A C18A C19A 5.9(16) . . . . ?
C16 C17A C21A Tb1 94(4) . . . 1_554 ?
C16 C17A C21A O7A -32(2) . . . . ?
C16 C17A C21A O8A 148.2(12) . . . . ?
C16 C21 C22 C23 -179.1(4) . . . . ?
C16 C21 C25 C24 178.5(3) . . . . ?
C17 C16 C21 C22 142.9(8) . . . . ?
C17 C16 C21 C25 -39.0(9) . . . . ?
C17 C18 C19 C14 -0.8(16) . . . . ?
C17A C16 C21 C22 122.2(9) . . . . ?
C17A C16 C21 C25 -59.6(10) . . . . ?
C17A C18A C19A C14A -2.5(18) . . . . ?
C18 C17 C26 Tb1 -105(3) . . . 1_554 ?
C18 C17 C26 O7 148.7(11) . . . . ?
C18 C17 C26 O8 -33.7(15) . . . . ?
C18A C17A C21A Tb1 -76(5) . . . 1_554 ?
C18A C17A C21A O7A 157.7(17) . . . . ?
C18A C17A C21A O8A -22(2) . . . . ?
C19 C14 C15 C16 -1.4(16) . . . . ?
C19 C14 C20 O5 176.4(16) . . . . ?
C19 C14 C20 O6 -6(3) . . . . ?
C19A C14A C15 C16 4(2) . . . . ?
C19A C14A C20A O5 175(2) . . . . ?
C19A C14A C20A O6A -2(4) . . . . ?
C20 C14 C15 C16 -178.5(13) . . . . ?
C20 C14 C19 C18 -179.7(15) . . . . ?
C20A C14A C15 C16 177.5(19) . . . . ?
C20A C14A C19A C18A -176(2) . . . . ?
C21 C16 C17 C18 176.7(8) . . . . ?
C21 C16 C17 C26 -11.2(15) . . . . ?
C21 C16 C17A C18A -171.5(7) . . . . ?
C21 C16 C17A C21A 18.1(16) . . . . ?
C21 C22 C23 N2 0.2(7) . . . . ?
C21A C17A C18A C19A 176.8(11) . . . . ?
C22 C21 C25 C24 -3.3(5) . . . . ?
C23 N2 C24 C25 1.7(6) . . . . ?
C24 N2 C23 C22 -2.4(6) . . . . ?
C25 C21 C22 C23 2.7(6) . . . . ?
C26 C17 C18 C19 -176.0(10) . . . . ?
C27 C28 C29 C30 -1.0(10) . . . . ?
C27 C28 C29 C34 173.7(7) . . . . ?
C28 C27 C32 C31 -7.1(8) . . . . ?
C28 C27 C33 O9 21.2(4) . . . . ?
C28 C27 C33 O10 -158.8(4) . . . . ?
C28 C27 C33 C33 0(100) . . . 4_575 ?
C28 C29 C30 C31 -3.7(8) . . . . ?
C28 C29 C30 C39 -178.4(5) . . . . ?
C28 C29 C34 C35 52.5(13) . . . . ?
C28 C29 C34 C38 -122.8(10) . . . . ?
C29 C30 C31 C32 3.1(8) . . . . ?
C29 C30 C39 O11 -111.7(5) . . . 4_575 ?
C29 C30 C39 O11 68.7(6) . . . . ?
C29 C34 C35 C36 -175.5(10) . . . . ?
C29 C34 C38 C37 -179.6(9) . . . . ?
C30 C29 C34 C35 -133.0(9) . . . . ?
C30 C29 C34 C38 51.6(12) . . . . ?
C30 C31 C32 C27 2.4(9) . . . . ?
C31 C30 C39 O11 73.5(5) . . . 4_575 ?
C31 C30 C39 O11 -106.1(4) . . . . ?
C32 C27 C28 C29 6.4(9) . . . . ?
C32 C27 C33 O9 -164.3(4) . . . . ?
C32 C27 C33 O10 15.7(4) . . . . ?
C32 C27 C33 C33 0(100) . . . 4_575 ?
C33 O9 C33 O10 0(42) 4_575 . . . ?
C33 O9 C33 C27 0(100) 4_575 . . . ?
C33 O10 C33 O9 0(100) 4_575 . . . ?
C33 O10 C33 C27 0(100) 4_575 . . . ?
C33 C27 C28 C29 -179.0(5) . . . . ?
C33 C27 C28 C29 -179.0(5) 4_575 . . . ?
C33 C27 C32 C31 178.5(5) . . . . ?
C33 C27 C32 C31 178.5(5) 4_575 . . . ?
C33 C27 C33 O9 0(100) 4_575 . . . ?
C33 C27 C33 O10 0(100) 4_575 . . . ?
C34 C29 C30 C31 -178.2(7) . . . . ?
C34 C29 C30 C39 7.1(9) . . . . ?
C34 C35 C36 N3 -1.2(18) . . . . ?
C35 C34 C38 C37 5.0(15) . . . . ?
C36 N3 C37 C38 11(2) . . . . ?
C37 N3 C36 C35 -3.7(19) . . . . ?
C38 C34 C35 C36 -0.2(18) . . . . ?
C39 C30 C31 C32 177.9(5) . . . . ?
loop_
_platon_squeeze_void_nr
_platon_squeeze_void_average_x
_platon_squeeze_void_average_y
_platon_squeeze_void_average_z
_platon_squeeze_void_volume
_platon_squeeze_void_count_electrons
_platon_squeeze_void_content
1 0.000 0.000 0.500 167 17 ' '
2 0.000 0.500 0.500 167 17 ' '
