#------------------------------------------------------------------------------
#$Date: 2020-11-06 14:16:49 +0200 (Fri, 06 Nov 2020) $
#$Revision: 258843 $
#$URL: file:///home/coder/svn-repositories/cod/cif/7/70/54/7705434.cif $
#------------------------------------------------------------------------------
#
# This file is available in the Crystallography Open Database (COD),
# http://www.crystallography.net/
#
# All data on this site have been placed in the public domain by the
# contributors.
#
data_7705434
loop_
_publ_author_name
'Zhang, Chengcheng'
'Ma, Xiufang'
'Cen, Peipei'
'Jin, Xiaoyong'
'Yang, Jinhui'
'Zhang, Yi-Quan'
'Ferrando-Soria, Jes\'us'
'Pardo, Emilio'
'Liu, Xiangyu'
_publ_section_title
;
 A series of lanthanide(III) metal-organic frameworks derived from a
 pyridyl-dicarboxylate ligand: single-molecule magnet behaviour and
 luminescence properties.
;
_journal_issue                   40
_journal_name_full
'Dalton transactions (Cambridge, England : 2003)'
_journal_page_first              14123
_journal_page_last               14132
_journal_paper_doi               10.1039/d0dt02736g
_journal_volume                  49
_journal_year                    2020
_chemical_formula_sum            'C65 H38 Dy3 N5 O21'
_chemical_formula_weight         1712.50
_space_group_crystal_system      monoclinic
_space_group_IT_number           11
_space_group_name_Hall           '-P 2yb'
_space_group_name_H-M_alt        'P 1 21/m 1'
_atom_sites_solution_hydrogens   mixed
_audit_creation_method           SHELXL-2018/1
_audit_update_record
;
2019-10-28 deposited with the CCDC.	2020-09-15 downloaded from the CCDC.
;
_cell_angle_alpha                90
_cell_angle_beta                 101.261(6)
_cell_angle_gamma                90
_cell_formula_units_Z            2
_cell_length_a                   11.4564(8)
_cell_length_b                   27.544(2)
_cell_length_c                   11.5369(7)
_cell_measurement_reflns_used    5489
_cell_measurement_temperature    100(2)
_cell_measurement_theta_max      27.5470
_cell_measurement_theta_min      2.7140
_cell_volume                     3570.4(4)
_computing_structure_refinement  'SHELXL-2018/1 (Sheldrick, 2018)'
_diffrn_ambient_temperature      100(2)
_diffrn_measured_fraction_theta_full 0.999
_diffrn_measured_fraction_theta_max 0.999
_diffrn_measurement_device_type  'SuperNova, Dual, Cu at zero, AtlasS2'
_diffrn_measurement_method       '\w scans'
_diffrn_radiation_type           MoK\a
_diffrn_radiation_wavelength     0.71073
_diffrn_reflns_av_R_equivalents  0.0713
_diffrn_reflns_av_unetI/netI     0.0869
_diffrn_reflns_Laue_measured_fraction_full 0.999
_diffrn_reflns_Laue_measured_fraction_max 0.999
_diffrn_reflns_limit_h_max       11
_diffrn_reflns_limit_h_min       -13
_diffrn_reflns_limit_k_max       31
_diffrn_reflns_limit_k_min       -33
_diffrn_reflns_limit_l_max       13
_diffrn_reflns_limit_l_min       -13
_diffrn_reflns_number            23110
_diffrn_reflns_point_group_measured_fraction_full 0.999
_diffrn_reflns_point_group_measured_fraction_max 0.999
_diffrn_reflns_theta_full        25.242
_diffrn_reflns_theta_max         25.348
_diffrn_reflns_theta_min         1.957
_exptl_absorpt_coefficient_mu    3.179
_exptl_absorpt_correction_type   multi-scan
_exptl_absorpt_process_details   sadabs
_exptl_crystal_colour            colorless
_exptl_crystal_density_diffrn    1.593
_exptl_crystal_description       strip
_exptl_crystal_F_000             1658
_exptl_crystal_size_max          0.160
_exptl_crystal_size_mid          0.060
_exptl_crystal_size_min          0.050
_exptl_transmission_factor_max   0.853
_exptl_transmission_factor_min   0.795
_refine_diff_density_max         2.822
_refine_diff_density_min         -5.681
_refine_diff_density_rms         0.259
_refine_ls_extinction_method     none
_refine_ls_goodness_of_fit_ref   1.192
_refine_ls_hydrogen_treatment    constr
_refine_ls_matrix_type           full
_refine_ls_number_parameters     560
_refine_ls_number_reflns         6688
_refine_ls_number_restraints     441
_refine_ls_restrained_S_all      1.159
_refine_ls_R_factor_all          0.1159
_refine_ls_R_factor_gt           0.1016
_refine_ls_shift/su_max          0.001
_refine_ls_shift/su_mean         0.000
_refine_ls_structure_factor_coef Fsqd
_refine_ls_weighting_details
'w=1/[\s^2^(Fo^2^)+(0.0502P)^2^+131.1900P] where P=(Fo^2^+2Fc^2^)/3'
_refine_ls_weighting_scheme      calc
_refine_ls_wR_factor_gt          0.2222
_refine_ls_wR_factor_ref         0.2296
_reflns_Friedel_coverage         0.000
_reflns_number_gt                5630
_reflns_number_total             6688
_reflns_threshold_expression     'I > 2\s(I)'
_cod_data_source_file            d0dt02736g16.cif
_cod_data_source_block           p21m_a_sq
_cod_depositor_comments
'Adding full bibliography for 7705434--7705437.cif.'
_cod_original_sg_symbol_H-M      'P 21/m'
_cod_database_code               7705434
_shelx_shelxl_version_number     2018/1
_shelx_space_group_comment
;
The symmetry employed for this shelxl refinement is uniquely defined
by the following loop, which should always be used as a source of
symmetry information in preference to the above space-group names.
They are only intended as comments.
;
_shelx_estimated_absorpt_t_min   0.630
_shelx_estimated_absorpt_t_max   0.857
_shelx_res_file
;
TITL P21m_a.res in P2(1)/m
    p21m_a_sq.res
    created by SHELXL-2018/1 at 09:46:15 on 24-Jun-2019
REM Old TITL P21m in P2(1)/m
REM SHELXT solution in P2(1)/m
REM R1 0.177,  Rweak 0.077,  Alpha 0.129,  Orientation as input
REM Formula found by SHELXT:  C72 N18 O19 Dy3
CELL  0.71073  11.4564  27.5436  11.5369   90.000  101.261   90.000
ZERR   2.000   0.0008   0.0022   0.0007    0.000    0.006    0.000
LATT  1
SYMM -X, 1/2+Y, -Z
SFAC C H N O Dy
UNIT 130 76 10 42 6
LIST 4 ! automatically inserted. Change 6 to 4 for CHECKCIF!!
L.S. 10 0   25
BOND $H
SHEL 999 0.83
ACTA
temp -173.00
FMAP 2
ISOR 0.01 O9 C14 C3 C4 c30 c31 c30a c31a
FLAT 0.03 c15 c16 c17 c18 c19 c20
DFIX 1.38 0.01 c15 c16 c16 c17 c17 c18 c18 c19 c19 c20 c20 c15
DFIX 2.38 0.02 c15 c17 c16 c18 c17 c19 c18 c20 c19 c15 c20 c16
DFIX 1.38 0.01 c29 c30 c30 c31 c31 c32 c32 c33 c33 c34 c34 c29
DFIX 2.38 0.02 c29 c31 c30 c32 c31 c33 c32 c34 c33 c29 c34 c30
DFIX 1.38 0.01 c29 c30A c30A c31A c31A c32 c32 c33A c33A c34A c34A c29
DFIX 2.38 0.02 c29 c31A c30A c32 c31A c33A c32 c34A c33A c29 c34A c30A
PLAN 20
size 0.05 0.06 0.16
conf
ABIN
WGHT    0.050200  131.190002
FVAR       0.18006   0.56431
DY1   5    0.771323    0.750000    0.822153    10.50000    0.01818    0.03842 =
         0.01415    0.00000    0.00252    0.00000
DY2   5    0.592723    0.626419    0.871954    11.00000    0.02377    0.03676 =
         0.01936   -0.00214    0.00545   -0.00292
O1    4    0.716153    0.700210    0.656508    11.00000    0.04668    0.04581 =
         0.01941   -0.00150   -0.00272   -0.02816
O2    4    0.617514    0.631676    0.678050    11.00000    0.03807    0.03212 =
         0.01791   -0.00350    0.00765   -0.00805
O3    4    0.634784    0.666220    0.059302    11.00000    0.13469    0.06358 =
         0.03010   -0.01063    0.02993   -0.04703
O4    4    0.646586    0.587388    0.069072    11.00000    0.03904    0.06857 =
         0.03052   -0.00404    0.00693    0.01545
O6    4   -0.024323    0.750000    0.925516    10.50000    0.02707    0.07458 =
         0.04061    0.00000    0.01301    0.00000
O7    4   -0.060027    0.750000    0.735349    10.50000    0.02409    0.18301 =
         0.01705    0.00000   -0.00046    0.00000
O8    4    0.380385    0.630469    0.766736    11.00000    0.03450    0.08357 =
         0.04741   -0.02733    0.01593   -0.00713
O9    4    0.419810    0.621164    0.955065    11.00000    0.03426    0.09435 =
         0.06015    0.02608    0.01219    0.00620
O10   4   -0.214064    0.587297    0.880842    11.00000    0.03251    0.04391 =
         0.03862   -0.00496    0.01458   -0.00691
O11   4   -0.204237    0.666720    0.888355    11.00000    0.03911    0.04137 =
         0.02160   -0.00244    0.00218    0.00344
O12   4    0.754570    0.750000    1.026509    10.50000    0.00670    0.04846 =
         0.02951    0.00000    0.00286    0.00000
AFIX   3
H12B  2    0.697950    0.730720    1.028789    11.00000   -1.20000
AFIX   0
N1    3    0.458926    0.457423    0.199038    11.00000    0.03080    0.04182 =
         0.01908   -0.00393    0.00693   -0.00489
C1    1    0.664453    0.661100    0.620777    11.00000    0.03874    0.05384 =
         0.02342   -0.00428    0.01286   -0.00829
C2    1    0.657367    0.650129    0.491878    11.00000    0.04840    0.04985 =
         0.02539    0.00198    0.01031   -0.01655
C3    1    0.705127    0.682742    0.421774    11.00000    0.08022    0.07623 =
         0.05798   -0.00327    0.01934   -0.02575
AFIX  43
H3    2    0.744111    0.711179    0.456353    11.00000   -1.20000
AFIX   0
C4    1    0.696387    0.674124    0.300648    11.00000    0.07832    0.07213 =
         0.05110   -0.00027    0.01523   -0.03025
AFIX  43
H4    2    0.726341    0.697460    0.253300    11.00000   -1.20000
AFIX   0
C5    1    0.644880    0.632222    0.249699    11.00000    0.06248    0.05794 =
         0.02407   -0.00652    0.01321   -0.03649
C6    1    0.599993    0.597785    0.318423    11.00000    0.02107    0.05811 =
         0.02632   -0.01088    0.00276   -0.00882
C7    1    0.606786    0.607789    0.438623    11.00000    0.04142    0.03554 =
         0.02739    0.00118    0.01305   -0.00493
AFIX  43
H7    2    0.575567    0.584709    0.485672    11.00000   -1.20000
AFIX   0
C8    1    0.643158    0.627404    0.118207    11.00000    0.05596    0.06735 =
         0.01638    0.00371    0.01108   -0.02069
C9    1    0.547447    0.550234    0.276312    11.00000    0.03982    0.04127 =
         0.01573   -0.00272    0.01570   -0.00221
C10   1    0.582209    0.508468    0.342679    11.00000    0.05274    0.04010 =
         0.04014   -0.00442    0.01205   -0.00280
AFIX  43
H10   2    0.636904    0.510591    0.415875    11.00000   -1.20000
AFIX   0
C11   1    0.537144    0.464831    0.301651    11.00000    0.03920    0.04104 =
         0.02085   -0.00661    0.00099   -0.00393
AFIX  43
H11   2    0.562631    0.437133    0.348924    11.00000   -1.20000
AFIX   0
C12   1    0.426564    0.497964    0.137551    11.00000    0.01509    0.03953 =
         0.03494    0.00029    0.00594   -0.00088
AFIX  43
H12   2    0.372717    0.494630    0.064125    11.00000   -1.20000
AFIX   0
C13   1    0.463899    0.543333    0.170892    11.00000    0.03137    0.04618 =
         0.01614   -0.00595    0.00600    0.00010
AFIX  43
H13   2    0.433824    0.570415    0.123319    11.00000   -1.20000
AFIX   0
C14   1    0.516348    0.750000    0.830756    10.50000    0.02511    0.02995 =
         0.01164    0.00000   -0.00916    0.00000
C15   1    0.383723    0.750000    0.822780    10.50000    0.01556    0.02872 =
         0.04405    0.00000    0.01437    0.00000

C18   1    0.143819    0.750000    0.829818    10.50000    0.01739    0.03126 =
         0.05569    0.00000    0.00853    0.00000
C21   1    0.013259    0.750000    0.830858    10.50000    0.02345    0.03983 =
         0.01759    0.00000    0.00049    0.00000
O5    4    0.570334    0.710310    0.828756    11.00000    0.02169    0.05091 =
         0.01668   -0.00027    0.00328    0.00328
SIMU 0.01 C16 > c27
DELU 0.01 C16 > c27
ISOR 0.01  C16 > c27
PART -1
C16   1    0.345246    0.763896    0.923827    10.50000    0.02502    0.02962 =
         0.02771   -0.00186    0.00195   -0.00093
AFIX  43
H16   2    0.401668    0.773887    0.991268    10.50000   -1.20000
AFIX   0
C17   1    0.226106    0.763462    0.928133    10.50000    0.02584    0.02899 =
         0.02514   -0.00060    0.00473   -0.00159
AFIX  43
H17   2    0.200678    0.772428    0.998761    10.50000   -1.20000
AFIX   0
C19   1    0.181718    0.734335    0.729378    10.50000    0.04629    0.04594 =
         0.04293    0.00051    0.00652    0.00181
AFIX  43
H19   2    0.125444    0.723061    0.663215    10.50000   -1.20000
AFIX   0
C20   1    0.301263    0.735091    0.725337    10.50000    0.04637    0.04867 =
         0.04558    0.00294    0.00847    0.00231
AFIX  66
C23   1    0.412909    0.744417    0.558946    10.50000    0.05650    0.06486 =
         0.05242    0.00116    0.01305    0.00152
AFIX  43
H23   2    0.448107    0.772491    0.599136    10.50000   -1.20000
AFIX  65
C24   1    0.436851    0.732321    0.448966    10.50000    0.05880    0.06585 =
         0.05542    0.00056    0.01508    0.00200
AFIX  43
H24   2    0.488413    0.752128    0.413989    10.50000   -1.20000
AFIX  65
N3    3    0.385350    0.691244    0.390162    10.50000    0.06208    0.06776 =
         0.05888   -0.00300    0.01435    0.00442
AFIX  43
H3A   2    0.400509    0.683586    0.320535    10.50000   -1.20000
AFIX  65
C25   1    0.309907    0.662263    0.441338    10.50000    0.06290    0.06392 =
         0.05872   -0.00347    0.01392    0.00451
AFIX  43
H25   2    0.274709    0.634189    0.401148    10.50000   -1.20000
AFIX  65
C26   1    0.285964    0.674359    0.551318    10.50000    0.05916    0.06005 =
         0.05518   -0.00312    0.01084    0.00325
AFIX  43
H26   2    0.234402    0.654552    0.586294    10.50000   -1.20000
AFIX  65
C27   1    0.337464    0.715436    0.610123    10.50000    0.05317    0.05810 =
         0.05122   -0.00001    0.01145    0.00313
AFIX   0
PART 0
C28   1    0.345897    0.624896    0.861756    11.00000    0.01223    0.03570 =
         0.07459    0.01257    0.00609   -0.00203

C29   1    0.215058    0.622694    0.867333    11.00000    0.03034    0.04445 =
         0.07942    0.02460    0.02286    0.00701
C32   1   -0.021962    0.623798    0.884474    11.00000    0.02456    0.04772 =
         0.04488    0.01835    0.00625    0.00340
C35   1   -0.151718    0.625348    0.885807    11.00000    0.00496    0.04896 =
         0.01600    0.00183    0.00107   -0.00201
SIMU 0.01 C30 > C40A
DELU 0.01 C30 > c40A
PART 1
C30   1    0.129199    0.635681    0.769734    21.00000    0.03788    0.04215 =
         0.04455   -0.00492    0.01284   -0.00186
AFIX  43
H30   2    0.151648    0.643681    0.697030    21.00000   -1.20000
AFIX   0
C31   1    0.011065    0.636858    0.779326    21.00000    0.03858    0.04412 =
         0.04406   -0.00544    0.01060   -0.00055
AFIX  43
H31   2   -0.047865    0.646648    0.713673    21.00000   -1.20000
AFIX   0
C33   1    0.059390    0.597779    0.965038    21.00000    0.03320    0.05611 =
         0.04478    0.00891    0.00647   -0.00163
C34   1    0.177868    0.598106    0.957166    21.00000    0.03343    0.05502 =
         0.04550    0.00974    0.00598   -0.00108
AFIX  43
H34   2    0.234257    0.581196    1.014305    21.00000   -1.20000
AFIX   0
C36   1    0.034568    0.574332    1.076209    21.00000    0.03850    0.06342 =
         0.04590    0.00959    0.00797   -0.00055
C37   1    0.087046    0.525682    1.106975    21.00000    0.04700    0.06479 =
         0.04847    0.01465    0.00403    0.00125
AFIX  43
H37   2    0.131316    0.507727    1.060025    21.00000   -1.20000
AFIX   0
C38   1    0.062466    0.510152    1.213569    21.00000    0.05158    0.06667 =
         0.04856    0.01215    0.00771    0.00460
AFIX  43
H38   2    0.103977    0.481421    1.242623    21.00000   -1.20000
AFIX   0
N2    3   -0.010510    0.527910    1.287089    21.00000    0.04972    0.07190 =
         0.05064    0.00655    0.00586    0.00672

C39   1   -0.056754    0.573061    1.242801    21.00000    0.04320    0.07267 =
         0.04779    0.00728    0.00978    0.00298
AFIX  43
H39   2   -0.106207    0.588886    1.288288    21.00000   -1.20000
AFIX   0
C40   1   -0.040873    0.597323    1.144257    21.00000    0.04038    0.06960 =
         0.04588    0.00698    0.00938    0.00000
AFIX  43
H40   2   -0.077822    0.627714    1.122223    21.00000   -1.20000
AFIX   0
PART 2
C30A  1    0.129093    0.608318    0.773698   -21.00000    0.03896    0.04363 =
         0.04661   -0.00604    0.01130   -0.00112
AFIX  43
H30A  2    0.151277    0.597231    0.703079   -21.00000   -1.20000
AFIX   0
C31A  1    0.010884    0.609860    0.781444   -21.00000    0.03881    0.04270 =
         0.04542   -0.00677    0.01157   -0.00006
AFIX  43
H31A  2   -0.048351    0.601207    0.714950   -21.00000   -1.20000
AFIX   0
C33A  1    0.063366    0.638594    0.979974   -21.00000    0.03196    0.05690 =
         0.04335    0.00878    0.00785   -0.00037
C34A  1    0.181762    0.637554    0.971247   -21.00000    0.03124    0.05586 =
         0.04489    0.00967    0.00651   -0.00090
AFIX  43
H34A  2    0.241016    0.647085    1.036892   -21.00000   -1.20000
AFIX   0
C36A  1    0.030360    0.654488    1.109707   -21.00000    0.03673    0.06588 =
         0.04357    0.00638    0.00867    0.00068
C37A  1   -0.042237    0.629686    1.160354   -21.00000    0.03983    0.06927 =
         0.04547    0.00663    0.01097    0.00059
AFIX  43
H37A  2   -0.082495    0.602527    1.120313   -21.00000   -1.20000
AFIX   0
C38A  1   -0.061806    0.641561    1.268329   -21.00000    0.03948    0.07246 =
         0.04659    0.00623    0.01216   -0.00110
AFIX  43
H38A  2   -0.111727    0.620768    1.302837   -21.00000   -1.20000
AFIX   0
N2A   3   -0.016163    0.680412    1.330344   -21.00000    0.04104    0.07570 =
         0.04913    0.00324    0.01394   -0.00271
C39A  1    0.050918    0.706606    1.277917   -21.00000    0.04304    0.07320 =
         0.04612    0.00202    0.01033   -0.00345
AFIX  43
H39A  2    0.082827    0.735460    1.316804   -21.00000   -1.20000
AFIX   0
C40A  1    0.082208    0.695776    1.163732   -21.00000    0.03826    0.06863 =
         0.04202    0.00420    0.00887   -0.00088
AFIX  43
H40A  2    0.134220    0.715682    1.129589   -21.00000   -1.20000
REM PART 0
REM #####
PART 0
REM #####
REM #####
AFIX   0
HKLF 4




REM  P21m_a.res in P2(1)/m
REM R1 =  0.1016 for    5630 Fo > 4sig(Fo)  and  0.1159 for all    6688 data
REM    560 parameters refined using    441 restraints

END

WGHT      0.0492    131.5451

REM Highest difference peak  2.822,  deepest hole -5.681,  1-sigma level  0.259
Q1    1   0.7701  0.7121  0.8183  11.00000  0.05    2.82
Q2    1   0.0880  0.7500  1.4785  10.50000  0.05    2.62
Q3    1   0.5924  0.5895  0.8729  11.00000  0.05    2.36
Q4    1   0.4086  0.6945  0.1772  11.00000  0.05    2.35
Q5    1   0.5868  0.6637  0.8669  11.00000  0.05    2.23
Q6    1   0.0078  0.7500  1.3883  10.50000  0.05    2.17
Q7    1   0.3247  0.6276  0.2598  11.00000  0.05    2.01
Q8    1   0.6934  0.7500  0.7763  10.50000  0.05    1.86
Q9    1   0.8493  0.7500  0.8285  10.50000  0.05    1.55
Q10   1   0.7335  0.7500  0.7412  10.50000  0.05    1.49
Q11   1   0.1417  0.7500  1.3121  10.50000  0.05    1.37
Q12   1  -0.0467  0.6698  0.5405  11.00000  0.05    1.34
Q13   1   0.1460  0.5047  1.3175  11.00000  0.05    1.33
Q14   1   0.6710  0.6174  0.8541  11.00000  0.05    1.33
Q15   1   0.2727  0.6236  0.4194  11.00000  0.05    1.25
Q16   1   0.4236  0.6474  0.9794  11.00000  0.05    1.21
Q17   1   0.1757  0.5574  1.2701  11.00000  0.05    1.20
Q18   1   0.5164  0.6266  0.8519  11.00000  0.05    1.20
Q19   1  -0.0748  0.5152  1.3260  11.00000  0.05    1.12
Q20   1   0.4140  0.5046 -0.0769  11.00000  0.05    1.10
;
_shelx_res_checksum              18068
_shelx_fab_file
;
    2    0    0    -12.02      0.00
    3    0    0      0.11      0.00
    4    0    0      4.81      0.00
    5    0    0     -5.99      0.00
    6    0    0     -2.96      0.00
    7    0    0     -2.10      0.00
    8    0    0      0.33      0.00
    9    0    0      2.91      0.00
   10    0    0      7.58      0.00
   11    0    0     -2.82      0.00
   12    0    0      4.57      0.00
   13    0    0      2.77      0.00
    1    1    0      9.10      0.00
    2    1    0    -12.76      0.00
    3    1    0     -5.04      0.00
    4    1    0     -7.92      0.00
    5    1    0     -8.02      0.00
    6    1    0     -5.86      0.00
    7    1    0     -3.41      0.00
    8    1    0      0.32      0.00
    9    1    0     -1.40      0.00
   10    1    0      2.58      0.00
   11    1    0     -4.48      0.00
   12    1    0     -3.01      0.00
   13    1    0     -5.06      0.00
    1    2    0     25.55      0.00
    2    2    0    -39.80      0.00
    3    2    0    -13.05      0.00
    4    2    0     -3.16      0.00
    5    2    0     -7.27      0.00
    6    2    0     -8.16      0.00
    7    2    0     -0.82      0.00
    8    2    0     -1.84      0.00
    9    2    0      3.05      0.00
   10    2    0      3.83      0.00
   11    2    0      2.40      0.00
   12    2    0     -4.55      0.00
   13    2    0      7.47      0.00
    1    3    0      8.18      0.00
    2    3    0      9.37      0.00
    3    3    0     -1.54      0.00
    4    3    0      2.19      0.00
    5    3    0      1.93      0.00
    6    3    0     -0.89      0.00
    7    3    0      2.33      0.00
    8    3    0      5.84      0.00
    9    3    0      5.64      0.00
   10    3    0     -0.38      0.00
   11    3    0      7.27      0.00
   12    3    0     -2.54      0.00
   13    3    0     -6.55      0.00
    0    4    0     56.73      0.00
    1    4    0      5.34      0.00
    2    4    0     -5.55      0.00
    3    4    0      6.75      0.00
    4    4    0      9.40      0.00
    5    4    0      1.04      0.00
    6    4    0      1.10      0.00
    7    4    0     -3.17      0.00
    8    4    0     -0.25      0.00
    9    4    0      3.01      0.00
   10    4    0      4.61      0.00
   11    4    0     -5.73      0.00
   12    4    0      3.85      0.00
   13    4    0      1.00      0.00
    1    5    0      8.33      0.00
    2    5    0     -9.36      0.00
    3    5    0     -2.93      0.00
    4    5    0     -7.01      0.00
    5    5    0     -9.82      0.00
    6    5    0     -5.89      0.00
    7    5    0     -1.95      0.00
    8    5    0      0.02      0.00
    9    5    0     -4.09      0.00
   10    5    0      2.61      0.00
   11    5    0      4.92      0.00
   12    5    0      3.39      0.00
   13    5    0     -3.22      0.00
    0    6    0    -13.95      0.00
    1    6    0     -6.31      0.00
    2    6    0    -18.43      0.00
    3    6    0     -5.54      0.00
    4    6    0     -1.24      0.00
    5    6    0      0.79      0.00
    6    6    0     -0.76      0.00
    7    6    0      0.07      0.00
    8    6    0     -0.67      0.00
    9    6    0      3.82      0.00
   10    6    0      1.00      0.00
   11    6    0      0.70      0.00
   12    6    0      1.89      0.00
   13    6    0      9.09      0.00
    1    7    0     -3.55      0.00
    2    7    0      8.00      0.00
    3    7    0     11.25      0.00
    4    7    0      3.56      0.00
    5    7    0      0.93      0.00
    6    7    0      2.32      0.00
    7    7    0      4.02      0.00
    8    7    0      0.00      0.00
    9    7    0     -2.58      0.00
   10    7    0      0.79      0.00
   11    7    0     13.65      0.00
   12    7    0      7.45      0.00
   13    7    0      1.31      0.00
    0    8    0     20.12      0.00
    1    8    0      7.98      0.00
    2    8    0      5.45      0.00
    3    8    0      2.89      0.00
    4    8    0      2.57      0.00
    5    8    0      1.94      0.00
    6    8    0      4.54      0.00
    7    8    0     -0.31      0.00
    8    8    0      1.73      0.00
    9    8    0      1.73      0.00
   10    8    0      1.62      0.00
   11    8    0     -2.86      0.00
   12    8    0      9.82      0.00
   13    8    0      6.83      0.00
    1    9    0     -8.53      0.00
    2    9    0     -0.56      0.00
    3    9    0      4.87      0.00
    4    9    0     -1.26      0.00
    5    9    0     -6.99      0.00
    6    9    0     -1.17      0.00
    7    9    0     -0.25      0.00
    8    9    0     -2.77      0.00
    9    9    0     -4.01      0.00
   10    9    0      2.80      0.00
   11    9    0      5.17      0.00
   12    9    0      1.23      0.00
   13    9    0     -2.17      0.00
    0   10    0     -1.82      0.00
    1   10    0     -3.90      0.00
    2   10    0    -10.14      0.00
    3   10    0     -7.46      0.00
    4   10    0     -5.94      0.00
    5   10    0     -0.07      0.00
    6   10    0      0.37      0.00
    7   10    0      1.17      0.00
    8   10    0     -1.43      0.00
    9   10    0      0.68      0.00
   10   10    0     -0.99      0.00
   11   10    0      0.16      0.00
   12   10    0      3.69      0.00
    1   11    0     -4.18      0.00
    2   11    0      3.36      0.00
    3   11    0     11.82      0.00
    4   11    0      3.23      0.00
    5   11    0      1.18      0.00
    6   11    0      1.77      0.00
    7   11    0      1.48      0.00
    8   11    0      1.31      0.00
    9   11    0      1.29      0.00
   10   11    0      4.16      0.00
   11   11    0      4.07      0.00
   12   11    0     -2.37      0.00
    0   12    0      6.61      0.00
    1   12    0      3.90      0.00
    2   12    0      0.05      0.00
    3   12    0      3.62      0.00
    4   12    0      3.66      0.00
    5   12    0      0.78      0.00
    6   12    0      2.64      0.00
    7   12    0     -0.80      0.00
    8   12    0     -0.86      0.00
    9   12    0     -1.58      0.00
   10   12    0      0.60      0.00
   11   12    0     -2.29      0.00
   12   12    0      1.06      0.00
    1   13    0     -3.89      0.00
    2   13    0      1.10      0.00
    3   13    0     -1.08      0.00
    4   13    0      2.42      0.00
    5   13    0     -2.58      0.00
    6   13    0     -2.25      0.00
    7   13    0     -1.83      0.00
    8   13    0      0.10      0.00
    9   13    0      1.39      0.00
   10   13    0      1.10      0.00
   11   13    0      0.42      0.00
   12   13    0     -3.85      0.00
    0   14    0     -1.03      0.00
    1   14    0     -6.96      0.00
    2   14    0     -0.90      0.00
    3   14    0      1.60      0.00
    4   14    0     -2.13      0.00
    5   14    0      1.11      0.00
    6   14    0      0.22      0.00
    7   14    0      0.40      0.00
    8   14    0     -3.58      0.00
    9   14    0     -0.11      0.00
   10   14    0      0.82      0.00
   11   14    0      0.25      0.00
   12   14    0     -0.76      0.00
    1   15    0      2.15      0.00
    2   15    0     -3.01      0.00
    3   15    0      6.55      0.00
    4   15    0      3.27      0.00
    5   15    0      0.48      0.00
    6   15    0     -1.91      0.00
    7   15    0     -1.06      0.00
    8   15    0      3.28      0.00
    9   15    0     -0.73      0.00
   10   15    0      1.45      0.00
   11   15    0      1.09      0.00
   12   15    0      0.69      0.00
    0   16    0      1.53      0.00
    1   16    0      6.47      0.00
    2   16    0      3.38      0.00
    3   16    0     -0.34      0.00
    4   16    0     -0.53      0.00
    5   16    0     -1.63      0.00
    6   16    0      0.72      0.00
    7   16    0     -2.72      0.00
    8   16    0     -0.90      0.00
    9   16    0     -1.03      0.00
   10   16    0      0.42      0.00
   11   16    0      0.16      0.00
    1   17    0     -5.80      0.00
    2   17    0     -2.08      0.00
    3   17    0     -2.11      0.00
    4   17    0      1.81      0.00
    5   17    0     -2.18      0.00
    6   17    0     -3.78      0.00
    7   17    0     -0.58      0.00
    8   17    0      1.73      0.00
    9   17    0      1.73      0.00
   10   17    0     -2.26      0.00
   11   17    0      1.07      0.00
    0   18    0      1.08      0.00
    1   18    0     -2.16      0.00
    2   18    0     -0.72      0.00
    3   18    0     -2.19      0.00
    4   18    0     -2.70      0.00
    5   18    0      2.18      0.00
    6   18    0     -1.42      0.00
    7   18    0     -1.39      0.00
    8   18    0     -1.13      0.00
    9   18    0      1.74      0.00
   10   18    0      0.21      0.00
   11   18    0     -0.30      0.00
    1   19    0     -5.15      0.00
    2   19    0     -7.26      0.00
    3   19    0      0.91      0.00
    4   19    0     -0.17      0.00
    5   19    0     -0.76      0.00
    6   19    0     -2.04      0.00
    7   19    0     -1.43      0.00
    8   19    0      3.82      0.00
    9   19    0      0.59      0.00
   10   19    0      1.37      0.00
   11   19    0     -0.01      0.00
    0   20    0     -1.38      0.00
    1   20    0     -0.11      0.00
    2   20    0     -0.24      0.00
    3   20    0     -0.52      0.00
    4   20    0      4.23      0.00
    5   20    0      1.96      0.00
    6   20    0     -1.29      0.00
    7   20    0     -4.65      0.00
    8   20    0      2.11      0.00
    9   20    0      1.57      0.00
   10   20    0     -0.20      0.00
    1   21    0     -6.15      0.00
    2   21    0     -5.52      0.00
    3   21    0     -3.20      0.00
    4   21    0     -0.04      0.00
    5   21    0      0.79      0.00
    6   21    0     -0.60      0.00
    7   21    0     -1.31      0.00
    8   21    0     -1.23      0.00
    9   21    0      2.27      0.00
   10   21    0     -2.15      0.00
    0   22    0     -2.01      0.00
    1   22    0      0.08      0.00
    2   22    0     -0.67      0.00
    3   22    0      2.22      0.00
    4   22    0      2.99      0.00
    5   22    0      2.48      0.00
    6   22    0     -3.65      0.00
    7   22    0     -1.54      0.00
    8   22    0     -0.06      0.00
    9   22    0      1.65      0.00
   10   22    0      0.60      0.00
    1   23    0     -1.34      0.00
    2   23    0     -2.13      0.00
    3   23    0     -1.33      0.00
    4   23    0      1.63      0.00
    5   23    0      1.94      0.00
    6   23    0      0.30      0.00
    7   23    0     -1.47      0.00
    8   23    0      0.54      0.00
    9   23    0     -1.13      0.00
    0   24    0      2.30      0.00
    1   24    0     -0.64      0.00
    2   24    0      1.33      0.00
    3   24    0     -2.31      0.00
    4   24    0     -0.56      0.00
    5   24    0     -1.06      0.00
    6   24    0     -2.00      0.00
    7   24    0     -1.83      0.00
    8   24    0      0.81      0.00
    9   24    0     -0.96      0.00
    1   25    0      2.59      0.00
    2   25    0     -2.13      0.00
    3   25    0      1.11      0.00
    4   25    0      1.46      0.00
    5   25    0      0.26      0.00
    6   25    0      0.54      0.00
    7   25    0      1.10      0.00
    8   25    0      0.64      0.00
    0   26    0     -4.40      0.00
    1   26    0      3.71      0.00
    2   26    0     -0.29      0.00
    3   26    0     -1.98      0.00
    4   26    0      1.33      0.00
    5   26    0      1.33      0.00
    6   26    0     -0.21      0.00
    7   26    0      3.14      0.00
    8   26    0      0.18      0.00
    1   27    0     -0.44      0.00
    2   27    0      2.06      0.00
    3   27    0     -0.32      0.00
    4   27    0      2.11      0.00
    5   27    0      0.64      0.00
    6   27    0     -1.21      0.00
    7   27    0      2.40      0.00
    0   28    0     -1.29      0.00
    1   28    0     -3.70      0.00
    2   28    0      1.04      0.00
    3   28    0      0.17      0.00
    4   28    0      2.26      0.00
    5   28    0      2.20      0.00
    6   28    0     -0.27      0.00
    7   28    0      0.35      0.00
    1   29    0      0.46      0.00
    2   29    0     -2.45      0.00
    3   29    0      2.11      0.00
    4   29    0      2.25      0.00
    5   29    0      0.54      0.00
    6   29    0     -0.13      0.00
    0   30    0     -7.52      0.00
    1   30    0     -1.11      0.00
    2   30    0     -1.64      0.00
    3   30    0      0.80      0.00
    4   30    0      3.88      0.00
    5   30    0     -0.35      0.00
    1   31    0     -2.39      0.00
    2   31    0      1.34      0.00
    3   31    0      0.35      0.00
    4   31    0      3.54      0.00
    0   32    0     -0.34      0.00
    1   32    0     -4.60      0.00
    2   32    0     -2.37      0.00
    3   32    0      0.24      0.00
    1   33    0      0.17      0.00
  -13    0    1     -7.86      0.00
  -12    0    1     -3.67      0.00
  -11    0    1     -1.77      0.00
  -10    0    1      2.06      0.00
   -9    0    1     -5.43      0.00
   -8    0    1     -0.64      0.00
   -7    0    1     -4.00      0.00
   -6    0    1      2.61      0.00
   -5    0    1     10.31      0.00
   -4    0    1     10.10      0.00
   -3    0    1     -2.84      0.00
   -2    0    1    -21.97      0.00
   -1    0    1    -43.08      0.00
    1    0    1    -65.42      0.00
    2    0    1      7.50      0.00
    3    0    1     -4.80      0.00
    4    0    1     -2.62      0.00
    5    0    1      8.19      0.00
    6    0    1      6.42      0.00
    7    0    1     -0.36      0.00
    8    0    1     -1.84      0.00
    9    0    1     -0.79      0.00
   10    0    1     -7.67      0.00
   11    0    1      0.92      0.00
   12    0    1      3.62      0.00
   13    0    1     -6.92      0.00
  -13    1    1     -5.82      0.00
  -12    1    1     -0.52      0.00
  -11    1    1     -2.94      0.00
  -10    1    1      0.47      0.00
   -9    1    1      0.88      0.00
   -8    1    1      0.14      0.00
   -7    1    1     -4.46      0.00
   -6    1    1     -3.74      0.00
   -5    1    1     -7.19      0.00
   -4    1    1     -8.24      0.00
   -3    1    1    -10.10      0.00
   -2    1    1      0.76      0.00
   -1    1    1    -11.13      0.00
    1    1    1     -9.23      0.00
    2    1    1      5.22      0.00
    3    1    1      9.23      0.00
    4    1    1      7.36      0.00
    5    1    1      5.80      0.00
    6    1    1      8.68      0.00
    7    1    1      1.98      0.00
    8    1    1     -0.11      0.00
    9    1    1     -1.62      0.00
   10    1    1      4.10      0.00
   11    1    1     -2.15      0.00
   12    1    1      9.49      0.00
   13    1    1      2.88      0.00
  -13    2    1     -5.71      0.00
  -12    2    1     -6.36      0.00
  -11    2    1      6.44      0.00
  -10    2    1     -3.40      0.00
   -9    2    1     -1.71      0.00
   -8    2    1     -1.83      0.00
   -7    2    1     -1.38      0.00
   -6    2    1      2.92      0.00
   -5    2    1     14.96      0.00
   -4    2    1     18.21      0.00
   -3    2    1      4.06      0.00
   -2    2    1      8.56      0.00
   -1    2    1     -9.71      0.00
    0    2    1    -45.09      0.00
    1    2    1     -5.50      0.00
    2    2    1     11.65      0.00
    3    2    1     12.19      0.00
    4    2    1      5.92      0.00
    5    2    1     10.24      0.00
    6    2    1      7.35      0.00
    7    2    1      2.26      0.00
    8    2    1     -0.79      0.00
    9    2    1     -3.82      0.00
   10    2    1     -0.88      0.00
   11    2    1     -1.34      0.00
   12    2    1      2.51      0.00
   13    2    1     -2.34      0.00
  -13    3    1     -1.64      0.00
  -12    3    1     -5.41      0.00
  -11    3    1      2.65      0.00
  -10    3    1      2.67      0.00
   -9    3    1      3.65      0.00
   -8    3    1      3.06      0.00
   -7    3    1      3.14      0.00
   -6    3    1      0.67      0.00
   -5    3    1      3.27      0.00
   -4    3    1     -0.33      0.00
   -3    3    1      1.96      0.00
   -2    3    1     -5.41      0.00
   -1    3    1     19.15      0.00
    0    3    1    -10.71      0.00
    1    3    1     -7.50      0.00
    2    3    1     -7.56      0.00
    3    3    1     -4.14      0.00
    4    3    1     -3.09      0.00
    5    3    1      1.96      0.00
    6    3    1     -0.05      0.00
    7    3    1     -1.13      0.00
    8    3    1     -7.96      0.00
    9    3    1     -6.19      0.00
   10    3    1     -4.62      0.00
   11    3    1      2.26      0.00
   12    3    1     -4.66      0.00
   13    3    1      6.86      0.00
  -13    4    1     -5.13      0.00
  -12    4    1     -2.53      0.00
  -11    4    1      1.60      0.00
  -10    4    1      4.42      0.00
   -9    4    1     -3.93      0.00
   -8    4    1      0.21      0.00
   -7    4    1     -2.63      0.00
   -6    4    1     -0.11      0.00
   -5    4    1      2.72      0.00
   -4    4    1      0.75      0.00
   -3    4    1     -8.56      0.00
   -2    4    1    -20.36      0.00
   -1    4    1    -15.00      0.00
    0    4    1    -13.24      0.00
    1    4    1    -16.20      0.00
    2    4    1      2.95      0.00
    3    4    1    -12.62      0.00
    4    4    1     -6.34      0.00
    5    4    1      2.92      0.00
    6    4    1      1.41      0.00
    7    4    1     -0.44      0.00
    8    4    1     -0.93      0.00
    9    4    1     -1.62      0.00
   10    4    1     -5.77      0.00
   11    4    1      3.87      0.00
   12    4    1      3.60      0.00
   13    4    1     -4.68      0.00
  -13    5    1     -1.73      0.00
  -12    5    1      4.08      0.00
  -11    5    1      2.47      0.00
  -10    5    1      2.09      0.00
   -9    5    1     -1.02      0.00
   -8    5    1     -0.83      0.00
   -7    5    1     -3.40      0.00
   -6    5    1     -2.48      0.00
   -5    5    1     -6.48      0.00
   -4    5    1     -9.06      0.00
   -3    5    1     -7.12      0.00
   -2    5    1     -0.52      0.00
   -1    5    1     -8.22      0.00
    0    5    1      8.28      0.00
    1    5    1     -9.46      0.00
    2    5    1      3.27      0.00
    3    5    1      4.26      0.00
    4    5    1      6.97      0.00
    5    5    1      9.15      0.00
    6    5    1      9.52      0.00
    7    5    1      0.27      0.00
    8    5    1     -0.34      0.00
    9    5    1      0.70      0.00
   10    5    1      4.42      0.00
   11    5    1     -7.34      0.00
   12    5    1      0.84      0.00
   13    5    1     -0.25      0.00
  -13    6    1     -7.11      0.00
  -12    6    1     -8.68      0.00
  -11    6    1      5.68      0.00
  -10    6    1     -0.18      0.00
   -9    6    1     -1.80      0.00
   -8    6    1     -2.97      0.00
   -7    6    1     -2.07      0.00
   -6    6    1     -1.97      0.00
   -5    6    1      5.74      0.00
   -4    6    1      8.23      0.00
   -3    6    1      3.05      0.00
   -2    6    1      0.44      0.00
   -1    6    1      4.47      0.00
    0    6    1     18.90      0.00
    1    6    1     28.01      0.00
    2    6    1      3.34      0.00
    3    6    1     -1.57      0.00
    4    6    1      3.26      0.00
    5    6    1      4.25      0.00
    6    6    1      0.50      0.00
    7    6    1     -0.27      0.00
    8    6    1     -1.15      0.00
    9    6    1     -3.73      0.00
   10    6    1     -0.51      0.00
   11    6    1      0.57      0.00
   12    6    1     -3.01      0.00
   13    6    1     -5.62      0.00
  -13    7    1      4.82      0.00
  -12    7    1      3.94      0.00
  -11    7    1      7.52      0.00
  -10    7    1      2.41      0.00
   -9    7    1     -1.35      0.00
   -8    7    1     -2.37      0.00
   -7    7    1      3.07      0.00
   -6    7    1      3.38      0.00
   -5    7    1      4.24      0.00
   -4    7    1      1.78      0.00
   -3    7    1      7.82      0.00
   -2    7    1      3.36      0.00
   -1    7    1      3.41      0.00
    0    7    1    -10.34      0.00
    1    7    1      0.62      0.00
    2    7    1     -6.01      0.00
    3    7    1    -12.40      0.00
    4    7    1     -6.80      0.00
    5    7    1      3.06      0.00
    6    7    1     -2.83      0.00
    7    7    1     -4.12      0.00
    8    7    1     -2.22      0.00
    9    7    1      2.40      0.00
   10    7    1     -2.77      0.00
   11    7    1     -5.43      0.00
   12    7    1    -12.60      0.00
   13    7    1     -3.29      0.00
  -13    8    1     -8.35      0.00
  -12    8    1     -8.46      0.00
  -11    8    1      0.50      0.00
  -10    8    1      3.90      0.00
   -9    8    1     -2.83      0.00
   -8    8    1     -1.71      0.00
   -7    8    1     -3.92      0.00
   -6    8    1     -3.11      0.00
   -5    8    1     -0.57      0.00
   -4    8    1      4.37      0.00
   -3    8    1     -1.18      0.00
   -2    8    1    -17.16      0.00
   -1    8    1    -20.32      0.00
    0    8    1     -1.01      0.00
    1    8    1     -2.67      0.00
    2    8    1     -8.10      0.00
    3    8    1    -10.68      0.00
    4    8    1     -3.19      0.00
    5    8    1      2.54      0.00
    6    8    1     -1.45      0.00
    7    8    1     -2.65      0.00
    8    8    1     -1.89      0.00
    9    8    1     -1.36      0.00
   10    8    1     -2.52      0.00
   11    8    1      1.85      0.00
   12    8    1     -3.85      0.00
  -13    9    1     -0.62      0.00
  -12    9    1      2.24      0.00
  -11    9    1      1.68      0.00
  -10    9    1      2.64      0.00
   -9    9    1     -2.44      0.00
   -8    9    1     -3.16      0.00
   -7    9    1     -2.84      0.00
   -6    9    1      0.79      0.00
   -5    9    1     -3.29      0.00
   -4    9    1     -4.72      0.00
   -3    9    1     -0.09      0.00
   -2    9    1      3.10      0.00
   -1    9    1     -8.58      0.00
    0    9    1     -1.54      0.00
    1    9    1      4.88      0.00
    2    9    1      1.32      0.00
    3    9    1     -6.18      0.00
    4    9    1      2.52      0.00
    5    9    1      5.61      0.00
    6    9    1      2.98      0.00
    7    9    1     -2.72      0.00
    8    9    1      1.74      0.00
    9    9    1      1.90      0.00
   10    9    1      0.61      0.00
   11    9    1     -5.17      0.00
   12    9    1      1.43      0.00
  -13   10    1     -5.31      0.00
  -12   10    1     -6.96      0.00
  -11   10    1      3.02      0.00
  -10   10    1      1.40      0.00
   -9   10    1     -0.65      0.00
   -8   10    1     -0.53      0.00
   -7   10    1     -0.83      0.00
   -6   10    1     -2.62      0.00
   -5   10    1      2.76      0.00
   -4   10    1      7.95      0.00
   -3   10    1     11.35      0.00
   -2   10    1      1.31      0.00
   -1   10    1     -2.36      0.00
    0   10    1      7.40      0.00
    1   10    1     14.13      0.00
    2   10    1      7.53      0.00
    3   10    1     -2.09      0.00
    4   10    1      4.11      0.00
    5   10    1      5.30      0.00
    6   10    1      1.35      0.00
    7   10    1     -1.76      0.00
    8   10    1     -1.67      0.00
    9   10    1      0.09      0.00
   10   10    1      0.37      0.00
   11   10    1      1.23      0.00
   12   10    1     -3.33      0.00
  -12   11    1     -2.61      0.00
  -11   11    1      0.48      0.00
  -10   11    1      2.51      0.00
   -9   11    1      1.91      0.00
   -8   11    1     -2.34      0.00
   -7   11    1      1.01      0.00
   -6   11    1      3.14      0.00
   -5   11    1      4.58      0.00
   -4   11    1      1.26      0.00
   -3   11    1      3.34      0.00
   -2   11    1      7.09      0.00
   -1   11    1      0.20      0.00
    0   11    1     -1.76      0.00
    1   11    1      0.11      0.00
    2   11    1     -4.78      0.00
    3   11    1     -6.98      0.00
    4   11    1     -6.27      0.00
    5   11    1      1.19      0.00
    6   11    1     -2.90      0.00
    7   11    1     -2.25      0.00
    8   11    1     -2.92      0.00
    9   11    1     -3.29      0.00
   10   11    1     -6.50      0.00
   11   11    1     -0.71      0.00
   12   11    1      1.21      0.00
  -12   12    1     -1.61      0.00
  -11   12    1      2.41      0.00
  -10   12    1      1.15      0.00
   -9   12    1      0.01      0.00
   -8   12    1      2.80      0.00
   -7   12    1      0.15      0.00
   -6   12    1     -2.36      0.00
   -5   12    1     -2.96      0.00
   -4   12    1      1.73      0.00
   -3   12    1     -3.51      0.00
   -2   12    1     -5.56      0.00
   -1   12    1     -8.11      0.00
    0   12    1     -1.96      0.00
    1   12    1      4.28      0.00
    2   12    1     -4.49      0.00
    3   12    1     -6.67      0.00
    4   12    1     -4.97      0.00
    5   12    1      2.44      0.00
    6   12    1      0.59      0.00
    7   12    1     -2.47      0.00
    8   12    1     -0.08      0.00
    9   12    1      0.27      0.00
   10   12    1     -0.11      0.00
   11   12    1      1.15      0.00
   12   12    1      2.06      0.00
  -12   13    1     -1.76      0.00
  -11   13    1     -2.57      0.00
  -10   13    1      0.90      0.00
   -9   13    1     -1.11      0.00
   -8   13    1      0.44      0.00
   -7   13    1     -2.56      0.00
   -6   13    1      0.91      0.00
   -5   13    1     -0.33      0.00
   -4   13    1     -0.47      0.00
   -3   13    1     -2.62      0.00
   -2   13    1     -1.76      0.00
   -1   13    1      4.57      0.00
    0   13    1     -0.56      0.00
    1   13    1     -0.24      0.00
    2   13    1     -1.09      0.00
    3   13    1     -0.09      0.00
    4   13    1      3.90      0.00
    5   13    1      0.71      0.00
    6   13    1      1.67      0.00
    7   13    1      0.59      0.00
    8   13    1      0.71      0.00
    9   13    1     -2.40      0.00
   10   13    1     -3.23      0.00
   11   13    1      0.00      0.00
   12   13    1      5.19      0.00
  -12   14    1      0.35      0.00
  -11   14    1      0.96      0.00
  -10   14    1     -0.12      0.00
   -9   14    1     -1.64      0.00
   -8   14    1      3.25      0.00
   -7   14    1      1.65      0.00
   -6   14    1     -2.08      0.00
   -5   14    1     -0.24      0.00
   -4   14    1      0.90      0.00
   -3   14    1      3.29      0.00
   -2   14    1     -4.11      0.00
   -1   14    1      2.30      0.00
    0   14    1      7.75      0.00
    1   14    1      5.42      0.00
    2   14    1      4.15      0.00
    3   14    1     -7.36      0.00
    4   14    1      0.53      0.00
    5   14    1      3.36      0.00
    6   14    1     -0.09      0.00
    7   14    1     -1.29      0.00
    8   14    1      0.27      0.00
    9   14    1      2.74      0.00
   10   14    1     -1.52      0.00
   11   14    1     -0.41      0.00
   12   14    1      0.49      0.00
  -12   15    1      1.27      0.00
  -11   15    1     -1.05      0.00
  -10   15    1     -1.25      0.00
   -9   15    1      0.58      0.00
   -8   15    1      0.12      0.00
   -7   15    1      1.27      0.00
   -6   15    1     -0.94      0.00
   -5   15    1      3.47      0.00
   -4   15    1      2.28      0.00
   -3   15    1      0.10      0.00
   -2   15    1      1.59      0.00
   -1   15    1      1.74      0.00
    0   15    1      5.10      0.00
    1   15    1     -6.96      0.00
    2   15    1     -4.93      0.00
    3   15    1      1.99      0.00
    4   15    1     -1.92      0.00
    5   15    1      0.88      0.00
    6   15    1     -1.13      0.00
    7   15    1      1.03      0.00
    8   15    1     -0.90      0.00
    9   15    1     -1.03      0.00
   10   15    1     -2.70      0.00
   11   15    1     -1.71      0.00
  -12   16    1      0.68      0.00
  -11   16    1      1.67      0.00
  -10   16    1     -1.30      0.00
   -9   16    1     -0.34      0.00
   -8   16    1      2.07      0.00
   -7   16    1      2.42      0.00
   -6   16    1     -0.07      0.00
   -5   16    1      0.35      0.00
   -4   16    1      4.71      0.00
   -3   16    1     -0.51      0.00
   -2   16    1     -3.58      0.00
   -1   16    1     -7.24      0.00
    0   16    1     -3.56      0.00
    1   16    1      0.76      0.00
    2   16    1     -8.17      0.00
    3   16    1     -1.34      0.00
    4   16    1      0.99      0.00
    5   16    1      2.19      0.00
    6   16    1     -0.52      0.00
    7   16    1     -1.02      0.00
    8   16    1      3.27      0.00
    9   16    1      0.65      0.00
   10   16    1      1.13      0.00
   11   16    1     -1.76      0.00
  -11   17    1     -1.26      0.00
  -10   17    1     -0.85      0.00
   -9   17    1     -0.89      0.00
   -8   17    1      4.34      0.00
   -7   17    1     -1.14      0.00
   -6   17    1     -1.41      0.00
   -5   17    1     -0.51      0.00
   -4   17    1      1.21      0.00
   -3   17    1     -3.75      0.00
   -2   17    1     -6.03      0.00
   -1   17    1      2.46      0.00
    0   17    1     -0.07      0.00
    1   17    1      0.23      0.00
    2   17    1     -0.35      0.00
    3   17    1      1.03      0.00
    4   17    1      6.63      0.00
    5   17    1      1.67      0.00
    6   17    1      1.03      0.00
    7   17    1     -0.73      0.00
    8   17    1      0.32      0.00
    9   17    1      0.18      0.00
   10   17    1     -0.72      0.00
   11   17    1      0.19      0.00
  -11   18    1     -0.11      0.00
  -10   18    1      0.23      0.00
   -9   18    1     -3.42      0.00
   -8   18    1      1.03      0.00
   -7   18    1      2.73      0.00
   -6   18    1     -0.03      0.00
   -5   18    1     -0.72      0.00
   -4   18    1      1.47      0.00
   -3   18    1      6.41      0.00
   -2   18    1     -1.03      0.00
   -1   18    1     -0.41      0.00
    0   18    1      2.10      0.00
    1   18    1     -0.38      0.00
    2   18    1      2.67      0.00
    3   18    1     -0.85      0.00
    4   18    1      2.20      0.00
    5   18    1      0.51      0.00
    6   18    1     -2.11      0.00
    7   18    1      1.33      0.00
    8   18    1      0.06      0.00
    9   18    1      1.94      0.00
   10   18    1     -0.68      0.00
   11   18    1     -0.30      0.00
  -11   19    1     -0.58      0.00
  -10   19    1     -0.30      0.00
   -9   19    1      2.97      0.00
   -8   19    1      1.01      0.00
   -7   19    1      0.83      0.00
   -6   19    1     -2.02      0.00
   -5   19    1      3.38      0.00
   -4   19    1     -1.01      0.00
   -3   19    1     -4.32      0.00
   -2   19    1     -4.26      0.00
   -1   19    1     -2.64      0.00
    0   19    1      3.60      0.00
    1   19    1      1.57      0.00
    2   19    1     -0.17      0.00
    3   19    1      3.78      0.00
    4   19    1      3.18      0.00
    5   19    1      3.67      0.00
    6   19    1     -1.33      0.00
    7   19    1     -0.24      0.00
    8   19    1     -0.97      0.00
    9   19    1     -1.80      0.00
   10   19    1     -0.83      0.00
  -10   20    1     -1.72      0.00
   -9   20    1     -0.95      0.00
   -8   20    1     -0.36      0.00
   -7   20    1      3.65      0.00
   -6   20    1      1.31      0.00
   -5   20    1     -2.84      0.00
   -4   20    1     -1.97      0.00
   -3   20    1     -0.23      0.00
   -2   20    1      1.84      0.00
   -1   20    1     -0.07      0.00
    0   20    1      0.17      0.00
    1   20    1      1.11      0.00
    2   20    1     -1.60      0.00
    3   20    1     -0.32      0.00
    4   20    1     -1.53      0.00
    5   20    1     -2.10      0.00
    6   20    1     -0.30      0.00
    7   20    1      1.21      0.00
    8   20    1      1.81      0.00
    9   20    1     -2.59      0.00
   10   20    1      1.46      0.00
  -10   21    1     -0.98      0.00
   -9   21    1     -0.29      0.00
   -8   21    1      1.17      0.00
   -7   21    1     -3.34      0.00
   -6   21    1      1.23      0.00
   -5   21    1      3.10      0.00
   -4   21    1     -0.72      0.00
   -3   21    1     -7.85      0.00
   -2   21    1     -5.23      0.00
   -1   21    1     -1.80      0.00
    0   21    1      2.07      0.00
    1   21    1      2.35      0.00
    2   21    1      1.58      0.00
    3   21    1      1.11      0.00
    4   21    1      5.24      0.00
    5   21    1      0.30      0.00
    6   21    1     -1.66      0.00
    7   21    1     -1.24      0.00
    8   21    1      2.22      0.00
    9   21    1     -0.16      0.00
   10   21    1     -0.92      0.00
  -10   22    1     -0.85      0.00
   -9   22    1     -2.06      0.00
   -8   22    1      1.38      0.00
   -7   22    1      2.39      0.00
   -6   22    1      0.32      0.00
   -5   22    1     -2.48      0.00
   -4   22    1     -3.61      0.00
   -3   22    1     -1.76      0.00
   -2   22    1      0.57      0.00
   -1   22    1      2.26      0.00
    0   22    1      0.03      0.00
    1   22    1     -0.81      0.00
    2   22    1     -0.65      0.00
    3   22    1     -0.78      0.00
    4   22    1     -0.94      0.00
    5   22    1     -0.75      0.00
    6   22    1      0.47      0.00
    7   22    1      2.93      0.00
    8   22    1     -0.75      0.00
    9   22    1      0.76      0.00
   -9   23    1      0.42      0.00
   -8   23    1     -2.10      0.00
   -7   23    1     -0.41      0.00
   -6   23    1      0.53      0.00
   -5   23    1      3.78      0.00
   -4   23    1     -0.95      0.00
   -3   23    1     -3.78      0.00
   -2   23    1     -3.55      0.00
   -1   23    1      3.06      0.00
    0   23    1      1.41      0.00
    1   23    1      0.63      0.00
    2   23    1     -3.28      0.00
    3   23    1      0.14      0.00
    4   23    1      1.60      0.00
    5   23    1     -0.08      0.00
    6   23    1     -4.66      0.00
    7   23    1      0.26      0.00
    8   23    1      2.45      0.00
    9   23    1     -0.02      0.00
   -9   24    1      1.56      0.00
   -8   24    1      1.63      0.00
   -7   24    1      0.32      0.00
   -6   24    1      0.84      0.00
   -5   24    1      0.24      0.00
   -4   24    1     -0.55      0.00
   -3   24    1      1.42      0.00
   -2   24    1      0.74      0.00
   -1   24    1      0.55      0.00
    0   24    1     -0.76      0.00
    1   24    1     -4.27      0.00
    2   24    1      0.95      0.00
    3   24    1      2.37      0.00
    4   24    1      3.46      0.00
    5   24    1      2.17      0.00
    6   24    1      0.98      0.00
    7   24    1     -0.38      0.00
    8   24    1      2.33      0.00
    9   24    1      0.69      0.00
   -9   25    1     -0.64      0.00
   -8   25    1      1.90      0.00
   -7   25    1     -0.28      0.00
   -6   25    1      1.30      0.00
   -5   25    1      1.29      0.00
   -4   25    1     -0.92      0.00
   -3   25    1     -3.24      0.00
   -2   25    1      0.78      0.00
   -1   25    1      0.15      0.00
    0   25    1      5.46      0.00
    1   25    1     -3.19      0.00
    2   25    1     -4.04      0.00
    3   25    1     -1.54      0.00
    4   25    1      1.44      0.00
    5   25    1     -0.61      0.00
    6   25    1     -3.05      0.00
    7   25    1     -2.36      0.00
    8   25    1      1.60      0.00
   -8   26    1      1.26      0.00
   -7   26    1     -2.00      0.00
   -6   26    1     -2.99      0.00
   -5   26    1     -1.46      0.00
   -4   26    1     -2.10      0.00
   -3   26    1     -1.67      0.00
   -2   26    1      2.08      0.00
   -1   26    1     -0.65      0.00
    0   26    1     -2.34      0.00
    1   26    1      0.34      0.00
    2   26    1     -1.66      0.00
    3   26    1      4.33      0.00
    4   26    1      2.16      0.00
    5   26    1     -0.32      0.00
    6   26    1     -1.28      0.00
    7   26    1     -2.75      0.00
    8   26    1     -0.57      0.00
   -8   27    1      2.39      0.00
   -7   27    1      2.89      0.00
   -6   27    1      0.26      0.00
   -5   27    1     -0.03      0.00
   -4   27    1     -0.20      0.00
   -3   27    1     -0.81      0.00
   -2   27    1     -1.02      0.00
   -1   27    1      5.10      0.00
    0   27    1      0.01      0.00
    1   27    1      1.72      0.00
    2   27    1     -3.90      0.00
    3   27    1     -3.07      0.00
    4   27    1      2.06      0.00
    5   27    1      0.23      0.00
    6   27    1     -3.11      0.00
    7   27    1     -1.15      0.00
   -7   28    1     -1.12      0.00
   -6   28    1      0.04      0.00
   -5   28    1     -1.67      0.00
   -4   28    1     -4.98      0.00
   -3   28    1     -1.12      0.00
   -2   28    1     -0.01      0.00
   -1   28    1      2.05      0.00
    0   28    1      2.62      0.00
    1   28    1     -1.43      0.00
    2   28    1      4.11      0.00
    3   28    1      0.41      0.00
    4   28    1     -1.09      0.00
    5   28    1      0.52      0.00
    6   28    1     -1.70      0.00
    7   28    1     -3.00      0.00
   -6   29    1     -0.37      0.00
   -5   29    1      1.97      0.00
   -4   29    1     -0.63      0.00
   -3   29    1     -1.57      0.00
   -2   29    1      2.07      0.00
   -1   29    1     -1.88      0.00
    0   29    1      3.98      0.00
    1   29    1      0.45      0.00
    2   29    1     -1.64      0.00
    3   29    1     -1.17      0.00
    4   29    1     -0.99      0.00
    5   29    1     -0.95      0.00
    6   29    1     -1.03      0.00
   -5   30    1      0.72      0.00
   -4   30    1     -2.96      0.00
   -3   30    1     -5.00      0.00
   -2   30    1      2.81      0.00
   -1   30    1      3.72      0.00
    0   30    1      0.85      0.00
    1   30    1      4.12      0.00
    2   30    1      1.41      0.00
    3   30    1      1.02      0.00
    4   30    1     -1.85      0.00
    5   30    1     -0.15      0.00
   -4   31    1      2.47      0.00
   -3   31    1     -0.56      0.00
   -2   31    1      0.69      0.00
   -1   31    1      2.94      0.00
    0   31    1     -1.59      0.00
    1   31    1      2.99      0.00
    2   31    1     -0.03      0.00
    3   31    1     -2.64      0.00
    4   31    1     -0.89      0.00
   -3   32    1     -0.72      0.00
   -2   32    1      1.31      0.00
   -1   32    1      5.52      0.00
    0   32    1      1.09      0.00
    1   32    1     -0.69      0.00
    2   32    1      6.29      0.00
    3   32    1      1.22      0.00
   -1   33    1     -0.19      0.00
    0   33    1      1.38      0.00
  -13    0    2      7.25      0.00
  -12    0    2      1.02      0.00
  -11    0    2     -1.22      0.00
  -10    0    2      3.09      0.00
   -9    0    2      4.87      0.00
   -8    0    2     -0.10      0.00
   -7    0    2     -0.61      0.00
   -6    0    2     -6.53      0.00
   -5    0    2    -10.52      0.00
   -4    0    2     -7.25      0.00
   -3    0    2     23.10      0.00
   -2    0    2     16.31      0.00
   -1    0    2     21.42      0.00
    0    0    2     48.25      0.00
    1    0    2     74.58      0.00
    2    0    2     15.97      0.00
    3    0    2    -15.43      0.00
    4    0    2     -4.43      0.00
    5    0    2      1.01      0.00
    6    0    2     -0.90      0.00
    7    0    2     -0.19      0.00
    8    0    2     -4.68      0.00
    9    0    2     -0.07      0.00
   10    0    2      0.30      0.00
   11    0    2     10.42      0.00
   12    0    2     -6.89      0.00
   13    0    2      3.54      0.00
  -13    1    2      1.28      0.00
  -12    1    2      4.38      0.00
  -11    1    2     -2.21      0.00
  -10    1    2      1.29      0.00
   -9    1    2     -3.38      0.00
   -8    1    2      1.55      0.00
   -7    1    2      1.73      0.00
   -6    1    2      4.84      0.00
   -5    1    2      5.06      0.00
   -4    1    2      7.33      0.00
   -3    1    2      9.73      0.00
   -2    1    2      4.36      0.00
   -1    1    2     -2.89      0.00
    0    1    2      7.59      0.00
    1    1    2    -10.45      0.00
    2    1    2      2.64      0.00
    3    1    2     -9.13      0.00
    4    1    2     -7.08      0.00
    5    1    2     -6.42      0.00
    6    1    2     -5.32      0.00
    7    1    2     -3.95      0.00
    8    1    2      0.56      0.00
    9    1    2      3.61      0.00
   10    1    2     -3.54      0.00
   11    1    2     -4.17      0.00
   12    1    2     -1.23      0.00
   13    1    2     -8.51      0.00
  -13    2    2      2.26      0.00
  -12    2    2      2.93      0.00
  -11    2    2     -2.91      0.00
  -10    2    2      1.46      0.00
   -9    2    2      5.83      0.00
   -8    2    2      0.25      0.00
   -7    2    2     -2.12      0.00
   -6    2    2     -5.71      0.00
   -5    2    2    -15.54      0.00
   -4    2    2    -10.03      0.00
   -3    2    2      3.97      0.00
   -2    2    2      9.53      0.00
   -1    2    2    -28.89      0.00
    0    2    2     23.27      0.00
    1    2    2     33.11      0.00
    2    2    2     -7.38      0.00
    3    2    2    -20.82      0.00
    4    2    2    -10.11      0.00
    5    2    2     -5.72      0.00
    6    2    2      1.98      0.00
    7    2    2     -2.46      0.00
    8    2    2     -4.53      0.00
    9    2    2     -3.06      0.00
   10    2    2      6.94      0.00
   11    2    2     -1.68      0.00
   12    2    2      2.09      0.00
  -13    3    2      2.66      0.00
  -12    3    2      3.16      0.00
  -11    3    2      4.87      0.00
  -10    3    2     -5.05      0.00
   -9    3    2     -2.04      0.00
   -8    3    2     -3.78      0.00
   -7    3    2     -0.47      0.00
   -6    3    2     -2.91      0.00
   -5    3    2     -3.12      0.00
   -4    3    2      1.50      0.00
   -3    3    2     -1.67      0.00
   -2    3    2      1.72      0.00
   -1    3    2      1.83      0.00
    0    3    2     -7.12      0.00
    1    3    2     20.46      0.00
    2    3    2      1.40      0.00
    3    3    2      4.64      0.00
    4    3    2      3.66      0.00
    5    3    2      0.28      0.00
    6    3    2     -2.28      0.00
    7    3    2      2.49      0.00
    8    3    2      6.99      0.00
    9    3    2      7.33      0.00
   10    3    2      3.90      0.00
   11    3    2      0.13      0.00
   12    3    2     -1.15      0.00
  -13    4    2      4.15      0.00
  -12    4    2     -0.36      0.00
  -11    4    2     -3.22      0.00
  -10    4    2     -0.29      0.00
   -9    4    2      1.73      0.00
   -8    4    2     -1.49      0.00
   -7    4    2     -0.63      0.00
   -6    4    2     -3.58      0.00
   -5    4    2     -3.87      0.00
   -4    4    2      4.81      0.00
   -3    4    2     26.57      0.00
   -2    4    2     11.27      0.00
   -1    4    2      1.68      0.00
    0    4    2      1.44      0.00
    1    4    2     28.24      0.00
    2    4    2      9.63      0.00
    3    4    2     -4.56      0.00
    4    4    2     -0.70      0.00
    5    4    2      2.83      0.00
    6    4    2      2.91      0.00
    7    4    2      2.67      0.00
    8    4    2     -3.97      0.00
    9    4    2     -0.30      0.00
   10    4    2     -0.04      0.00
   11    4    2      6.44      0.00
   12    4    2     -6.53      0.00
  -13    5    2     -2.07      0.00
  -12    5    2      2.00      0.00
  -11    5    2     -2.88      0.00
  -10    5    2     -0.44      0.00
   -9    5    2     -2.89      0.00
   -8    5    2      1.81      0.00
   -7    5    2      1.19      0.00
   -6    5    2      4.11      0.00
   -5    5    2      3.01      0.00
   -4    5    2      7.50      0.00
   -3    5    2      7.13      0.00
   -2    5    2      4.10      0.00
   -1    5    2      0.93      0.00
    0    5    2      9.52      0.00
    1    5    2     -3.34      0.00
    2    5    2      0.03      0.00
    3    5    2     -5.86      0.00
    4    5    2     -4.52      0.00
    5    5    2     -7.40      0.00
    6    5    2     -7.20      0.00
    7    5    2     -3.34      0.00
    8    5    2      0.49      0.00
    9    5    2      1.76      0.00
   10    5    2     -5.71      0.00
   11    5    2     -1.61      0.00
   12    5    2      6.90      0.00
  -13    6    2      3.02      0.00
  -12    6    2      4.86      0.00
  -11    6    2     -2.52      0.00
  -10    6    2     -0.87      0.00
   -9    6    2      3.06      0.00
   -8    6    2      2.05      0.00
   -7    6    2      0.54      0.00
   -6    6    2     -1.22      0.00
   -5    6    2     -7.00      0.00
   -4    6    2      0.39      0.00
   -3    6    2      5.46      0.00
   -2    6    2      1.82      0.00
   -1    6    2    -25.58      0.00
    0    6    2    -14.64      0.00
    1    6    2     -5.63      0.00
    2    6    2     -6.62      0.00
    3    6    2     -7.38      0.00
    4    6    2     -3.63      0.00
    5    6    2     -3.66      0.00
    6    6    2      5.68      0.00
    7    6    2      1.81      0.00
    8    6    2     -2.42      0.00
    9    6    2     -2.86      0.00
   10    6    2      5.20      0.00
   11    6    2     -2.54      0.00
   12    6    2      5.37      0.00
  -13    7    2     -2.77      0.00
  -12    7    2     -1.48      0.00
  -11    7    2      0.93      0.00
  -10    7    2     -3.44      0.00
   -9    7    2      1.15      0.00
   -8    7    2     -0.43      0.00
   -7    7    2      0.04      0.00
   -6    7    2     -2.85      0.00
   -5    7    2     -3.95      0.00
   -4    7    2     -3.32      0.00
   -3    7    2     -5.09      0.00
   -2    7    2     -4.82      0.00
   -1    7    2      4.93      0.00
    0    7    2      5.11      0.00
    1    7    2     10.11      0.00
    2    7    2      0.55      0.00
    3    7    2      8.01      0.00
    4    7    2      9.37      0.00
    5    7    2      2.39      0.00
    6    7    2      0.12      0.00
    7    7    2      3.44      0.00
    8    7    2      2.13      0.00
    9    7    2     -0.80      0.00
   10    7    2     -1.03      0.00
   11    7    2      5.00      0.00
   12    7    2      9.07      0.00
  -13    8    2      6.02      0.00
  -12    8    2      5.13      0.00
  -11    8    2     -0.63      0.00
  -10    8    2     -1.52      0.00
   -9    8    2      2.12      0.00
   -8    8    2      1.52      0.00
   -7    8    2      1.82      0.00
   -6    8    2     -1.03      0.00
   -5    8    2     -0.45      0.00
   -4    8    2      2.94      0.00
   -3    8    2      9.12      0.00
   -2    8    2      6.42      0.00
   -1    8    2     10.20      0.00
    0    8    2      5.87      0.00
    1    8    2     11.69      0.00
    2    8    2      6.34      0.00
    3    8    2      3.63      0.00
    4    8    2     -0.65      0.00
    5    8    2      0.92      0.00
    6    8    2      3.09      0.00
    7    8    2      4.24      0.00
    8    8    2     -1.68      0.00
    9    8    2     -0.41      0.00
   10    8    2     -0.67      0.00
   11    8    2      3.39      0.00
   12    8    2      1.20      0.00
  -13    9    2      0.06      0.00
  -12    9    2      2.34      0.00
  -11    9    2     -0.89      0.00
  -10    9    2     -1.63      0.00
   -9    9    2     -1.28      0.00
   -8    9    2      3.44      0.00
   -7    9    2      1.54      0.00
   -6    9    2      2.20      0.00
   -5    9    2      0.99      0.00
   -4    9    2      4.97      0.00
   -3    9    2      2.05      0.00
   -2    9    2     -2.75      0.00
   -1    9    2      2.44      0.00
    0    9    2     10.45      0.00
    1    9    2     -2.34      0.00
    2    9    2     -6.41      0.00
    3    9    2      1.42      0.00
    4    9    2      3.18      0.00
    5    9    2     -2.32      0.00
    6    9    2     -2.72      0.00
    7    9    2      0.53      0.00
    8    9    2      0.99      0.00
    9    9    2     -0.39      0.00
   10    9    2     -2.68      0.00
   11    9    2     -0.74      0.00
   12    9    2      4.72      0.00
  -13   10    2      2.73      0.00
  -12   10    2      5.19      0.00
  -11   10    2     -1.09      0.00
  -10   10    2     -0.91      0.00
   -9   10    2      1.40      0.00
   -8   10    2      1.71      0.00
   -7   10    2     -1.01      0.00
   -6   10    2     -0.70      0.00
   -5   10    2     -2.15      0.00
   -4   10    2     -1.71      0.00
   -3   10    2     -5.19      0.00
   -2   10    2     -7.74      0.00
   -1   10    2     -6.16      0.00
    0   10    2     -2.99      0.00
    1   10    2     -3.30      0.00
    2   10    2     -7.77      0.00
    3   10    2     -6.50      0.00
    4   10    2      0.00      0.00
    5   10    2     -4.52      0.00
    6   10    2      1.71      0.00
    7   10    2      1.26      0.00
    8   10    2      0.19      0.00
    9   10    2     -1.39      0.00
   10   10    2      1.66      0.00
   11   10    2     -2.83      0.00
   12   10    2      3.50      0.00
  -13   11    2      1.47      0.00
  -12   11    2      4.46      0.00
  -11   11    2      2.83      0.00
  -10   11    2     -3.03      0.00
   -9   11    2     -0.66      0.00
   -8   11    2      0.53      0.00
   -7   11    2      1.21      0.00
   -6   11    2     -3.59      0.00
   -5   11    2     -2.75      0.00
   -4   11    2     -1.47      0.00
   -3   11    2     -0.42      0.00
   -2   11    2     -8.73      0.00
   -1   11    2     -2.22      0.00
    0   11    2      6.62      0.00
    1   11    2      2.11      0.00
    2   11    2      1.06      0.00
    3   11    2      1.77      0.00
    4   11    2      8.12      0.00
    5   11    2      3.88      0.00
    6   11    2      0.42      0.00
    7   11    2      2.27      0.00
    8   11    2      3.62      0.00
    9   11    2      5.42      0.00
   10   11    2      4.09      0.00
   11   11    2      2.24      0.00
   12   11    2     -0.88      0.00
  -12   12    2      0.94      0.00
  -11   12    2     -1.10      0.00
  -10   12    2     -1.45      0.00
   -9   12    2      1.44      0.00
   -8   12    2     -3.29      0.00
   -7   12    2     -1.96      0.00
   -6   12    2     -1.09      0.00
   -5   12    2      3.98      0.00
   -4   12    2      4.42      0.00
   -3   12    2      3.16      0.00
   -2   12    2      3.68      0.00
   -1   12    2     -0.14      0.00
    0   12    2      5.29      0.00
    1   12    2      3.16      0.00
    2   12    2     -1.01      0.00
    3   12    2      6.21      0.00
    4   12    2      1.25      0.00
    5   12    2      0.76      0.00
    6   12    2      0.30      0.00
    7   12    2      2.22      0.00
    8   12    2     -0.13      0.00
    9   12    2      0.40      0.00
   10   12    2     -0.43      0.00
   11   12    2     -0.32      0.00
   12   12    2     -2.32      0.00
  -12   13    2      2.82      0.00
  -11   13    2      2.77      0.00
  -10   13    2     -1.00      0.00
   -9   13    2      0.44      0.00
   -8   13    2      1.60      0.00
   -7   13    2     -0.60      0.00
   -6   13    2     -0.59      0.00
   -5   13    2     -0.17      0.00
   -4   13    2      4.81      0.00
   -3   13    2      0.21      0.00
   -2   13    2     -2.67      0.00
   -1   13    2     -2.37      0.00
    0   13    2      1.54      0.00
    1   13    2      5.46      0.00
    2   13    2     -6.70      0.00
    3   13    2     -3.39      0.00
    4   13    2      1.10      0.00
    5   13    2     -0.23      0.00
    6   13    2     -1.38      0.00
    7   13    2     -1.84      0.00
    8   13    2      0.57      0.00
    9   13    2      1.96      0.00
   10   13    2      3.40      0.00
   11   13    2     -0.78      0.00
  -12   14    2      0.02      0.00
  -11   14    2     -0.68      0.00
  -10   14    2      0.94      0.00
   -9   14    2      0.42      0.00
   -8   14    2     -0.83      0.00
   -7   14    2     -2.95      0.00
   -6   14    2      0.72      0.00
   -5   14    2      0.25      0.00
   -4   14    2      2.07      0.00
   -3   14    2      1.19      0.00
   -2   14    2     -2.80      0.00
   -1   14    2     -1.75      0.00
    0   14    2     -6.59      0.00
    1   14    2     -2.12      0.00
    2   14    2     -0.15      0.00
    3   14    2     -1.45      0.00
    4   14    2      3.53      0.00
    5   14    2     -2.31      0.00
    6   14    2      1.38      0.00
    7   14    2      0.56      0.00
    8   14    2     -0.88      0.00
    9   14    2     -1.03      0.00
   10   14    2      0.37      0.00
   11   14    2      0.89      0.00
  -12   15    2      1.16      0.00
  -11   15    2      1.87      0.00
  -10   15    2      1.01      0.00
   -9   15    2      1.56      0.00
   -8   15    2     -1.54      0.00
   -7   15    2     -2.05      0.00
   -6   15    2     -1.00      0.00
   -5   15    2      1.01      0.00
   -4   15    2     -1.48      0.00
   -3   15    2     -1.26      0.00
   -2   15    2     -5.49      0.00
   -1   15    2     -2.30      0.00
    0   15    2      4.76      0.00
    1   15    2      2.26      0.00
    2   15    2      3.60      0.00
    3   15    2     -4.41      0.00
    4   15    2      1.15      0.00
    5   15    2      2.55      0.00
    6   15    2     -0.22      0.00
    7   15    2     -0.46      0.00
    8   15    2     -1.40      0.00
    9   15    2      1.80      0.00
   10   15    2      1.72      0.00
   11   15    2      3.10      0.00
  -12   16    2     -0.79      0.00
  -11   16    2     -0.61      0.00
  -10   16    2     -0.67      0.00
   -9   16    2      2.23      0.00
   -8   16    2     -2.91      0.00
   -7   16    2     -0.90      0.00
   -6   16    2     -2.05      0.00
   -5   16    2     -1.16      0.00
   -4   16    2     -2.42      0.00
   -3   16    2     -1.54      0.00
   -2   16    2      4.80      0.00
   -1   16    2      2.34      0.00
    0   16    2      6.22      0.00
    1   16    2      3.25      0.00
    2   16    2      1.78      0.00
    3   16    2      4.96      0.00
    4   16    2     -2.97      0.00
    5   16    2      0.14      0.00
    6   16    2      1.58      0.00
    7   16    2      0.50      0.00
    8   16    2     -2.89      0.00
    9   16    2     -2.42      0.00
   10   16    2     -0.19      0.00
   11   16    2      1.40      0.00
  -11   17    2      2.02      0.00
  -10   17    2     -0.20      0.00
   -9   17    2      1.09      0.00
   -8   17    2     -3.40      0.00
   -7   17    2     -4.86      0.00
   -6   17    2      2.40      0.00
   -5   17    2      2.99      0.00
   -4   17    2      2.57      0.00
   -3   17    2     -1.94      0.00
   -2   17    2      1.03      0.00
   -1   17    2      2.37      0.00
    0   17    2      1.36      0.00
    1   17    2      4.96      0.00
    2   17    2     -5.31      0.00
    3   17    2     -4.01      0.00
    4   17    2     -2.10      0.00
    5   17    2     -2.40      0.00
    6   17    2     -0.56      0.00
    7   17    2     -0.44      0.00
    8   17    2      0.99      0.00
    9   17    2     -1.48      0.00
   10   17    2      0.23      0.00
   11   17    2     -0.10      0.00
  -11   18    2     -0.66      0.00
  -10   18    2      0.93      0.00
   -9   18    2      0.44      0.00
   -8   18    2      2.12      0.00
   -7   18    2     -2.09      0.00
   -6   18    2      0.07      0.00
   -5   18    2     -2.03      0.00
   -4   18    2     -0.72      0.00
   -3   18    2     -3.91      0.00
   -2   18    2     -2.95      0.00
   -1   18    2      3.55      0.00
    0   18    2     -1.00      0.00
    1   18    2     -0.92      0.00
    2   18    2      0.55      0.00
    3   18    2     -3.40      0.00
    4   18    2      1.17      0.00
    5   18    2      0.20      0.00
    6   18    2      3.38      0.00
    7   18    2     -1.04      0.00
    8   18    2     -2.45      0.00
    9   18    2     -0.28      0.00
   10   18    2     -1.21      0.00
  -11   19    2      0.36      0.00
  -10   19    2      0.08      0.00
   -9   19    2     -0.94      0.00
   -8   19    2     -3.60      0.00
   -7   19    2     -3.45      0.00
   -6   19    2      1.25      0.00
   -5   19    2      2.30      0.00
   -4   19    2     -0.14      0.00
   -3   19    2      1.35      0.00
   -2   19    2     -0.50      0.00
   -1   19    2      2.50      0.00
    0   19    2      3.55      0.00
    1   19    2     -2.35      0.00
    2   19    2     -1.97      0.00
    3   19    2     -4.70      0.00
    4   19    2     -2.71      0.00
    5   19    2     -0.89      0.00
    6   19    2     -1.85      0.00
    7   19    2      1.72      0.00
    8   19    2      0.63      0.00
    9   19    2      2.88      0.00
   10   19    2     -0.42      0.00
  -11   20    2     -1.01      0.00
  -10   20    2     -0.17      0.00
   -9   20    2      1.79      0.00
   -8   20    2     -1.31      0.00
   -7   20    2     -0.35      0.00
   -6   20    2     -2.27      0.00
   -5   20    2      1.31      0.00
   -4   20    2      1.34      0.00
   -3   20    2     -0.24      0.00
   -2   20    2     -1.15      0.00
   -1   20    2      0.04      0.00
    0   20    2      0.80      0.00
    1   20    2     -0.32      0.00
    2   20    2     -1.37      0.00
    3   20    2      2.62      0.00
    4   20    2     -0.24      0.00
    5   20    2      3.63      0.00
    6   20    2      1.83      0.00
    7   20    2     -2.22      0.00
    8   20    2     -1.42      0.00
    9   20    2      0.53      0.00
   10   20    2      0.76      0.00
  -10   21    2      0.33      0.00
   -9   21    2      1.48      0.00
   -8   21    2     -0.88      0.00
   -7   21    2     -2.69      0.00
   -6   21    2      1.27      0.00
   -5   21    2      0.81      0.00
   -4   21    2      1.42      0.00
   -3   21    2      2.12      0.00
   -2   21    2      2.80      0.00
   -1   21    2      2.82      0.00
    0   21    2      2.03      0.00
    1   21    2     -0.50      0.00
    2   21    2     -3.24      0.00
    3   21    2     -3.06      0.00
    4   21    2      0.00      0.00
    5   21    2      0.11      0.00
    6   21    2      0.77      0.00
    7   21    2     -0.40      0.00
    8   21    2      1.24      0.00
    9   21    2      0.09      0.00
  -10   22    2      1.39      0.00
   -9   22    2     -0.86      0.00
   -8   22    2      0.92      0.00
   -7   22    2     -1.29      0.00
   -6   22    2      0.25      0.00
   -5   22    2      0.81      0.00
   -4   22    2      4.52      0.00
   -3   22    2      0.94      0.00
   -2   22    2      0.26      0.00
   -1   22    2     -1.35      0.00
    0   22    2      0.21      0.00
    1   22    2     -0.31      0.00
    2   22    2      1.15      0.00
    3   22    2     -0.42      0.00
    4   22    2      0.57      0.00
    5   22    2      1.16      0.00
    6   22    2      1.22      0.00
    7   22    2     -4.25      0.00
    8   22    2     -2.10      0.00
    9   22    2      1.82      0.00
   -9   23    2      1.59      0.00
   -8   23    2      0.09      0.00
   -7   23    2     -0.88      0.00
   -6   23    2     -0.07      0.00
   -5   23    2      1.60      0.00
   -4   23    2      0.86      0.00
   -3   23    2     -0.39      0.00
   -2   23    2      0.25      0.00
   -1   23    2      1.84      0.00
    0   23    2     -1.42      0.00
    1   23    2      1.71      0.00
    2   23    2      0.24      0.00
    3   23    2      0.06      0.00
    4   23    2      1.19      0.00
    5   23    2      2.87      0.00
    6   23    2      1.76      0.00
    7   23    2      0.79      0.00
    8   23    2     -2.85      0.00
    9   23    2      0.96      0.00
   -9   24    2     -1.05      0.00
   -8   24    2     -2.55      0.00
   -7   24    2      1.80      0.00
   -6   24    2     -0.81      0.00
   -5   24    2     -1.53      0.00
   -4   24    2      0.30      0.00
   -3   24    2      0.78      0.00
   -2   24    2     -3.07      0.00
   -1   24    2      2.79      0.00
    0   24    2      0.10      0.00
    1   24    2      1.34      0.00
    2   24    2      0.28      0.00
    3   24    2     -2.71      0.00
    4   24    2     -4.65      0.00
    5   24    2     -0.20      0.00
    6   24    2     -0.98      0.00
    7   24    2     -2.28      0.00
    8   24    2     -1.88      0.00
   -9   25    2      1.45      0.00
   -8   25    2     -1.11      0.00
   -7   25    2     -3.47      0.00
   -6   25    2      1.10      0.00
   -5   25    2      3.39      0.00
   -4   25    2      0.69      0.00
   -3   25    2     -0.98      0.00
   -2   25    2     -0.38      0.00
   -1   25    2      0.44      0.00
    0   25    2      0.25      0.00
    1   25    2     -1.48      0.00
    2   25    2      4.75      0.00
    3   25    2      0.54      0.00
    4   25    2      0.88      0.00
    5   25    2      2.64      0.00
    6   25    2      3.11      0.00
    7   25    2     -0.39      0.00
    8   25    2     -0.53      0.00
   -8   26    2      0.09      0.00
   -7   26    2      2.69      0.00
   -6   26    2      1.88      0.00
   -5   26    2      0.56      0.00
   -4   26    2      3.83      0.00
   -3   26    2      0.82      0.00
   -2   26    2      1.27      0.00
   -1   26    2      0.47      0.00
    0   26    2      3.81      0.00
    1   26    2     -1.94      0.00
    2   26    2     -1.46      0.00
    3   26    2     -1.81      0.00
    4   26    2     -3.69      0.00
    5   26    2     -0.39      0.00
    6   26    2      2.23      0.00
    7   26    2      0.13      0.00
   -8   27    2     -3.16      0.00
   -7   27    2     -3.40      0.00
   -6   27    2     -0.06      0.00
   -5   27    2      3.75      0.00
   -4   27    2      1.76      0.00
   -3   27    2     -3.43      0.00
   -2   27    2     -0.62      0.00
   -1   27    2      1.06      0.00
    0   27    2     -4.68      0.00
    1   27    2      1.47      0.00
    2   27    2     -0.11      0.00
    3   27    2      1.85      0.00
    4   27    2      0.47      0.00
    5   27    2      0.32      0.00
    6   27    2      1.64      0.00
    7   27    2      0.66      0.00
   -7   28    2      1.33      0.00
   -6   28    2      0.00      0.00
   -5   28    2     -0.46      0.00
   -4   28    2      5.33      0.00
   -3   28    2      3.99      0.00
   -2   28    2     -2.87      0.00
   -1   28    2      4.14      0.00
    0   28    2     -2.08      0.00
    1   28    2     -3.80      0.00
    2   28    2     -1.43      0.00
    3   28    2     -2.08      0.00
    4   28    2      0.26      0.00
    5   28    2      0.66      0.00
    6   28    2      0.45      0.00
   -6   29    2      1.15      0.00
   -5   29    2      2.28      0.00
   -4   29    2      0.13      0.00
   -3   29    2      0.17      0.00
   -2   29    2     -1.78      0.00
   -1   29    2     -0.38      0.00
    0   29    2      1.17      0.00
    1   29    2     -4.81      0.00
    2   29    2      1.68      0.00
    3   29    2      0.59      0.00
    4   29    2      0.90      0.00
    5   29    2      2.78      0.00
   -5   30    2     -0.41      0.00
   -4   30    2      3.37      0.00
   -3   30    2      3.43      0.00
   -2   30    2      1.04      0.00
   -1   30    2     -2.57      0.00
    0   30    2      0.14      0.00
    1   30    2     -4.48      0.00
    2   30    2     -4.16      0.00
    3   30    2      1.33      0.00
    4   30    2      0.54      0.00
    5   30    2     -0.39      0.00
   -4   31    2     -0.25      0.00
   -3   31    2     -2.12      0.00
   -2   31    2     -1.74      0.00
   -1   31    2     -1.01      0.00
    0   31    2     -1.84      0.00
    1   31    2      0.51      0.00
    2   31    2     -3.12      0.00
    3   31    2      0.39      0.00
    4   31    2      3.52      0.00
   -3   32    2      0.59      0.00
   -2   32    2     -1.14      0.00
   -1   32    2     -0.87      0.00
    0   32    2     -2.39      0.00
    1   32    2     -2.19      0.00
    2   32    2     -2.71      0.00
  -13    0    3     -3.17      0.00
  -12    0    3     -4.87      0.00
  -11    0    3      2.12      0.00
  -10    0    3     -1.71      0.00
   -9    0    3     -0.85      0.00
   -8    0    3      2.63      0.00
   -7    0    3      6.67      0.00
   -6    0    3     -0.01      0.00
   -5    0    3      0.80      0.00
   -4    0    3      4.16      0.00
   -3    0    3     -1.99      0.00
   -2    0    3    -18.71      0.00
   -1    0    3    -18.00      0.00
    0    0    3    -47.89      0.00
    1    0    3    -29.75      0.00
    2    0    3    -16.08      0.00
    3    0    3      3.66      0.00
    4    0    3     -1.09      0.00
    5    0    3     -2.30      0.00
    6    0    3     -1.19      0.00
    7    0    3      9.09      0.00
    8    0    3      9.34      0.00
    9    0    3     -3.05      0.00
   10    0    3     -3.81      0.00
   11    0    3     -2.03      0.00
   12    0    3     -4.56      0.00
  -13    1    3      1.09      0.00
  -12    1    3     -1.64      0.00
  -11    1    3      0.25      0.00
  -10    1    3      3.14      0.00
   -9    1    3      1.36      0.00
   -8    1    3      0.85      0.00
   -7    1    3     -2.02      0.00
   -6    1    3     -4.08      0.00
   -5    1    3     -2.02      0.00
   -4    1    3     -9.29      0.00
   -3    1    3     -3.00      0.00
   -2    1    3    -10.74      0.00
   -1    1    3      5.28      0.00
    0    1    3     -2.10      0.00
    1    1    3     -0.11      0.00
    2    1    3      8.17      0.00
    3    1    3      4.24      0.00
    4    1    3      5.79      0.00
    5    1    3      7.20      0.00
    6    1    3      2.98      0.00
    7    1    3      2.70      0.00
    8    1    3     -0.93      0.00
    9    1    3      0.07      0.00
   10    1    3     -4.11      0.00
   11    1    3      8.53      0.00
   12    1    3      1.86      0.00
  -13    2    3     -1.43      0.00
  -12    2    3     -0.66      0.00
  -11    2    3     -2.72      0.00
  -10    2    3      2.04      0.00
   -9    2    3     -4.09      0.00
   -8    2    3      4.43      0.00
   -7    2    3      3.89      0.00
   -6    2    3      0.77      0.00
   -5    2    3      2.57      0.00
   -4    2    3      8.33      0.00
   -3    2    3      7.55      0.00
   -2    2    3      3.83      0.00
   -1    2    3     -4.14      0.00
    0    2    3      1.20      0.00
    1    2    3    -18.33      0.00
    2    2    3      9.86      0.00
    3    2    3      9.99      0.00
    4    2    3      3.27      0.00
    5    2    3     -0.56      0.00
    6    2    3      0.96      0.00
    7    2    3      5.86      0.00
    8    2    3      8.31      0.00
    9    2    3      0.47      0.00
   10    2    3     -3.86      0.00
   11    2    3     -6.20      0.00
   12    2    3      3.46      0.00
  -13    3    3     -3.81      0.00
  -12    3    3     -3.00      0.00
  -11    3    3     -2.91      0.00
  -10    3    3     -0.50      0.00
   -9    3    3      4.35      0.00
   -8    3    3      1.61      0.00
   -7    3    3      0.61      0.00
   -6    3    3      2.99      0.00
   -5    3    3      2.97      0.00
   -4    3    3      1.81      0.00
   -3    3    3     -5.61      0.00
   -2    3    3      4.28      0.00
   -1    3    3     -7.10      0.00
    0    3    3     -1.75      0.00
    1    3    3     -6.70      0.00
    2    3    3     -7.73      0.00
    3    3    3     -2.00      0.00
    4    3    3     -2.90      0.00
    5    3    3     -1.97      0.00
    6    3    3      2.21      0.00
    7    3    3     -3.41      0.00
    8    3    3     -4.04      0.00
    9    3    3     -9.57      0.00
   10    3    3     -1.32      0.00
   11    3    3     -4.04      0.00
   12    3    3      3.30      0.00
  -13    4    3     -1.02      0.00
  -12    4    3     -2.85      0.00
  -11    4    3      2.98      0.00
  -10    4    3      1.23      0.00
   -9    4    3      3.69      0.00
   -8    4    3      4.74      0.00
   -7    4    3      5.20      0.00
   -6    4    3     -3.64      0.00
   -5    4    3     -3.65      0.00
   -4    4    3     -6.89      0.00
   -3    4    3    -10.83      0.00
   -2    4    3    -11.23      0.00
   -1    4    3     -3.14      0.00
    0    4    3    -17.57      0.00
    1    4    3     -3.01      0.00
    2    4    3     -4.96      0.00
    3    4    3     -0.32      0.00
    4    4    3     -4.51      0.00
    5    4    3     -2.43      0.00
    6    4    3     -2.70      0.00
    7    4    3      3.01      0.00
    8    4    3      5.11      0.00
    9    4    3     -0.67      0.00
   10    4    3     -2.07      0.00
   11    4    3     -0.41      0.00
   12    4    3     -3.79      0.00
  -13    5    3      2.73      0.00
  -12    5    3     -0.02      0.00
  -11    5    3     -0.12      0.00
  -10    5    3      1.19      0.00
   -9    5    3      1.91      0.00
   -8    5    3      1.48      0.00
   -7    5    3     -1.92      0.00
   -6    5    3     -4.11      0.00
   -5    5    3      0.51      0.00
   -4    5    3     -5.81      0.00
   -3    5    3     -4.11      0.00
   -2    5    3     -8.98      0.00
   -1    5    3      0.71      0.00
    0    5    3     -6.02      0.00
    1    5    3     -2.89      0.00
    2    5    3      7.59      0.00
    3    5    3      4.18      0.00
    4    5    3      1.58      0.00
    5    5    3      5.61      0.00
    6    5    3      4.31      0.00
    7    5    3      3.48      0.00
    8    5    3      1.02      0.00
    9    5    3      2.10      0.00
   10    5    3     -2.02      0.00
   11    5    3      6.40      0.00
   12    5    3     -2.25      0.00
  -13    6    3     -1.49      0.00
  -12    6    3     -2.43      0.00
  -11    6    3     -2.28      0.00
  -10    6    3      3.53      0.00
   -9    6    3     -0.80      0.00
   -8    6    3      2.67      0.00
   -7    6    3     -0.82      0.00
   -6    6    3     -3.48      0.00
   -5    6    3     -1.62      0.00
   -4    6    3     -0.37      0.00
   -3    6    3      0.66      0.00
   -2    6    3      9.55      0.00
   -1    6    3      3.60      0.00
    0    6    3     11.49      0.00
    1    6    3      6.72      0.00
    2    6    3     13.79      0.00
    3    6    3      4.18      0.00
    4    6    3     -1.28      0.00
    5    6    3     -0.87      0.00
    6    6    3     -0.84      0.00
    7    6    3     -0.51      0.00
    8    6    3      3.14      0.00
    9    6    3      2.78      0.00
   10    6    3     -0.84      0.00
   11    6    3     -4.77      0.00
   12    6    3     -0.80      0.00
  -13    7    3     -1.24      0.00
  -12    7    3      0.66      0.00
  -11    7    3     -1.67      0.00
  -10    7    3     -3.01      0.00
   -9    7    3      0.88      0.00
   -8    7    3      0.88      0.00
   -7    7    3     -0.37      0.00
   -6    7    3      0.41      0.00
   -5    7    3      3.60      0.00
   -4    7    3      7.36      0.00
   -3    7    3      0.49      0.00
   -2    7    3      3.02      0.00
   -1    7    3     -4.46      0.00
    0    7    3     -7.95      0.00
    1    7    3     -5.58      0.00
    2    7    3     -2.05      0.00
    3    7    3     -7.01      0.00
    4    7    3     -8.64      0.00
    5    7    3     -6.57      0.00
    6    7    3      0.62      0.00
    7    7    3     -2.24      0.00
    8    7    3      0.42      0.00
    9    7    3     -0.56      0.00
   10    7    3      3.02      0.00
   11    7    3     -5.63      0.00
   12    7    3     -5.06      0.00
  -13    8    3     -3.98      0.00
  -12    8    3     -5.84      0.00
  -11    8    3      0.44      0.00
  -10    8    3      2.15      0.00
   -9    8    3      1.85      0.00
   -8    8    3     -1.01      0.00
   -7    8    3      0.79      0.00
   -6    8    3     -3.64      0.00
   -5    8    3     -1.86      0.00
   -4    8    3     -4.48      0.00
   -3    8    3     -1.26      0.00
   -2    8    3     -0.71      0.00
   -1    8    3    -10.95      0.00
    0    8    3    -18.92      0.00
    1    8    3     -4.05      0.00
    2    8    3      2.59      0.00
    3    8    3     -2.03      0.00
    4    8    3     -6.34      0.00
    5    8    3     -0.69      0.00
    6    8    3     -1.01      0.00
    7    8    3     -0.08      0.00
    8    8    3      1.55      0.00
    9    8    3      1.41      0.00
   10    8    3     -0.03      0.00
   11    8    3      0.80      0.00
   12    8    3     -7.02      0.00
  -13    9    3     -1.65      0.00
  -12    9    3     -1.05      0.00
  -11    9    3      0.27      0.00
  -10    9    3      0.42      0.00
   -9    9    3      2.01      0.00
   -8    9    3      0.25      0.00
   -7    9    3     -3.00      0.00
   -6    9    3     -4.37      0.00
   -5    9    3      0.37      0.00
   -4    9    3     -0.42      0.00
   -3    9    3     -3.79      0.00
   -2    9    3     -2.40      0.00
   -1    9    3     -0.69      0.00
    0    9    3     -5.12      0.00
    1    9    3      0.25      0.00
    2    9    3      5.13      0.00
    3    9    3      1.92      0.00
    4    9    3     -6.50      0.00
    5    9    3      0.13      0.00
    6    9    3      2.28      0.00
    7    9    3      0.83      0.00
    8    9    3     -2.33      0.00
    9    9    3      2.10      0.00
   10    9    3     -0.54      0.00
   11    9    3      2.25      0.00
   12    9    3     -1.09      0.00
  -13   10    3     -1.93      0.00
  -12   10    3     -4.69      0.00
  -11   10    3     -1.66      0.00
  -10   10    3      3.07      0.00
   -9   10    3     -1.75      0.00
   -8   10    3     -0.03      0.00
   -7   10    3     -0.42      0.00
   -6   10    3     -0.28      0.00
   -5   10    3     -2.12      0.00
   -4   10    3      1.70      0.00
   -3   10    3      7.22      0.00
   -2   10    3     12.81      0.00
   -1   10    3      0.91      0.00
    0   10    3     -4.22      0.00
    1   10    3      6.14      0.00
    2   10    3     11.57      0.00
    3   10    3      4.51      0.00
    4   10    3     -2.27      0.00
    5   10    3     -1.25      0.00
    6   10    3      0.97      0.00
    7   10    3      0.62      0.00
    8   10    3      0.65      0.00
    9   10    3     -0.31      0.00
   10   10    3      0.78      0.00
   11   10    3     -0.80      0.00
  -13   11    3     -5.05      0.00
  -12   11    3     -2.89      0.00
  -11   11    3     -1.74      0.00
  -10   11    3      0.31      0.00
   -9   11    3      1.28      0.00
   -8   11    3      0.09      0.00
   -7   11    3     -2.44      0.00
   -6   11    3      0.94      0.00
   -5   11    3      2.73      0.00
   -4   11    3      4.25      0.00
   -3   11    3      0.33      0.00
   -2   11    3      0.76      0.00
   -1   11    3      3.43      0.00
    0   11    3     -3.16      0.00
    1   11    3     -1.12      0.00
    2   11    3      2.04      0.00
    3   11    3     -6.91      0.00
    4   11    3     -5.89      0.00
    5   11    3     -3.78      0.00
    6   11    3      1.59      0.00
    7   11    3     -3.17      0.00
    8   11    3     -4.33      0.00
    9   11    3     -4.53      0.00
   10   11    3     -3.44      0.00
   11   11    3     -4.30      0.00
  -12   12    3     -2.31      0.00
  -11   12    3      0.19      0.00
  -10   12    3      2.66      0.00
   -9   12    3      0.95      0.00
   -8   12    3      0.71      0.00
   -7   12    3      4.22      0.00
   -6   12    3     -0.70      0.00
   -5   12    3     -3.25      0.00
   -4   12    3     -7.08      0.00
   -3   12    3      0.07      0.00
   -2   12    3      2.04      0.00
   -1   12    3     -4.56      0.00
    0   12    3     -5.59      0.00
    1   12    3     -4.10      0.00
    2   12    3      5.79      0.00
    3   12    3     -2.02      0.00
    4   12    3     -7.58      0.00
    5   12    3     -1.26      0.00
    6   12    3      0.30      0.00
    7   12    3      0.81      0.00
    8   12    3     -0.53      0.00
    9   12    3     -1.54      0.00
   10   12    3     -0.66      0.00
   11   12    3      2.92      0.00
  -12   13    3     -1.66      0.00
  -11   13    3     -0.56      0.00
  -10   13    3      0.03      0.00
   -9   13    3      0.94      0.00
   -8   13    3     -1.35      0.00
   -7   13    3     -0.87      0.00
   -6   13    3     -0.80      0.00
   -5   13    3      1.45      0.00
   -4   13    3     -0.08      0.00
   -3   13    3     -2.61      0.00
   -2   13    3      0.79      0.00
   -1   13    3     -1.52      0.00
    0   13    3      2.52      0.00
    1   13    3      3.37      0.00
    2   13    3     -0.03      0.00
    3   13    3      3.72      0.00
    4   13    3     -3.56      0.00
    5   13    3      2.62      0.00
    6   13    3      2.57      0.00
    7   13    3      0.06      0.00
    8   13    3     -1.51      0.00
    9   13    3      0.64      0.00
   10   13    3     -3.57      0.00
   11   13    3     -2.54      0.00
  -12   14    3     -1.48      0.00
  -11   14    3     -0.61      0.00
  -10   14    3      1.28      0.00
   -9   14    3     -1.12      0.00
   -8   14    3      1.46      0.00
   -7   14    3      0.90      0.00
   -6   14    3      0.26      0.00
   -5   14    3     -2.72      0.00
   -4   14    3     -1.66      0.00
   -3   14    3     -0.96      0.00
   -2   14    3      4.06      0.00
   -1   14    3      3.23      0.00
    0   14    3     -2.28      0.00
    1   14    3      6.28      0.00
    2   14    3      1.55      0.00
    3   14    3     -0.47      0.00
    4   14    3     -2.78      0.00
    5   14    3     -2.65      0.00
    6   14    3      0.57      0.00
    7   14    3      0.47      0.00
    8   14    3      1.27      0.00
    9   14    3     -1.06      0.00
   10   14    3      0.54      0.00
   11   14    3     -1.36      0.00
  -12   15    3     -0.26      0.00
  -11   15    3     -1.57      0.00
  -10   15    3     -0.84      0.00
   -9   15    3     -2.21      0.00
   -8   15    3      1.48      0.00
   -7   15    3      0.91      0.00
   -6   15    3     -0.11      0.00
   -5   15    3     -1.33      0.00
   -4   15    3      3.55      0.00
   -3   15    3      4.03      0.00
   -2   15    3     -2.32      0.00
   -1   15    3      0.67      0.00
    0   15    3     -0.40      0.00
    1   15    3      0.71      0.00
    2   15    3      1.13      0.00
    3   15    3     -6.45      0.00
    4   15    3      0.87      0.00
    5   15    3      1.65      0.00
    6   15    3      1.23      0.00
    7   15    3     -2.26      0.00
    8   15    3      0.69      0.00
    9   15    3      2.88      0.00
   10   15    3     -2.48      0.00
   11   15    3     -4.75      0.00
  -12   16    3      0.70      0.00
  -11   16    3      0.03      0.00
  -10   16    3      1.77      0.00
   -9   16    3     -0.28      0.00
   -8   16    3     -0.62      0.00
   -7   16    3      2.84      0.00
   -6   16    3      0.68      0.00
   -5   16    3      3.03      0.00
   -4   16    3     -0.32      0.00
   -3   16    3      2.66      0.00
   -2   16    3      0.14      0.00
   -1   16    3     -6.66      0.00
    0   16    3     -3.71      0.00
    1   16    3     -5.63      0.00
    2   16    3      1.51      0.00
    3   16    3     -1.56      0.00
    4   16    3     -4.30      0.00
    5   16    3      1.11      0.00
    6   16    3     -0.14      0.00
    7   16    3      0.44      0.00
    8   16    3      1.73      0.00
    9   16    3      2.48      0.00
   10   16    3      0.38      0.00
  -11   17    3     -0.43      0.00
  -10   17    3     -0.70      0.00
   -9   17    3      1.26      0.00
   -8   17    3      2.30      0.00
   -7   17    3      5.11      0.00
   -6   17    3     -3.28      0.00
   -5   17    3     -2.84      0.00
   -4   17    3      1.52      0.00
   -3   17    3      0.98      0.00
   -2   17    3     -2.32      0.00
   -1   17    3     -6.44      0.00
    0   17    3      0.87      0.00
    1   17    3      4.16      0.00
    2   17    3     -1.91      0.00
    3   17    3      1.87      0.00
    4   17    3      0.65      0.00
    5   17    3      5.66      0.00
    6   17    3      2.05      0.00
    7   17    3     -2.95      0.00
    8   17    3     -1.19      0.00
    9   17    3      2.85      0.00
   10   17    3      1.45      0.00
  -11   18    3      0.58      0.00
  -10   18    3      0.28      0.00
   -9   18    3     -1.32      0.00
   -8   18    3     -1.18      0.00
   -7   18    3     -0.28      0.00
   -6   18    3      1.70      0.00
   -5   18    3      0.59      0.00
   -4   18    3      1.50      0.00
   -3   18    3      2.16      0.00
   -2   18    3      3.42      0.00
   -1   18    3     -2.07      0.00
    0   18    3     -4.65      0.00
    1   18    3      4.02      0.00
    2   18    3      1.31      0.00
    3   18    3     -0.55      0.00
    4   18    3     -1.07      0.00
    5   18    3     -1.80      0.00
    6   18    3     -0.31      0.00
    7   18    3     -0.88      0.00
    8   18    3      2.34      0.00
    9   18    3      0.55      0.00
   10   18    3      0.75      0.00
  -11   19    3     -0.66      0.00
  -10   19    3      0.68      0.00
   -9   19    3      0.15      0.00
   -8   19    3      4.56      0.00
   -7   19    3      3.20      0.00
   -6   19    3     -2.01      0.00
   -5   19    3     -3.37      0.00
   -4   19    3      4.10      0.00
   -3   19    3      0.73      0.00
   -2   19    3     -4.22      0.00
   -1   19    3     -2.35      0.00
    0   19    3     -0.40      0.00
    1   19    3      3.23      0.00
    2   19    3      3.34      0.00
    3   19    3     -3.46      0.00
    4   19    3      3.32      0.00
    5   19    3      4.58      0.00
    6   19    3      3.10      0.00
    7   19    3     -3.58      0.00
    8   19    3     -4.14      0.00
    9   19    3      0.84      0.00
   10   19    3     -0.13      0.00
  -10   20    3      0.36      0.00
   -9   20    3     -0.73      0.00
   -8   20    3     -1.12      0.00
   -7   20    3      2.80      0.00
   -6   20    3      1.12      0.00
   -5   20    3      0.04      0.00
   -4   20    3     -2.81      0.00
   -3   20    3      1.49      0.00
   -2   20    3      1.23      0.00
   -1   20    3     -1.60      0.00
    0   20    3     -0.08      0.00
    1   20    3      0.53      0.00
    2   20    3      1.67      0.00
    3   20    3     -1.62      0.00
    4   20    3     -4.18      0.00
    5   20    3      0.27      0.00
    6   20    3     -1.31      0.00
    7   20    3      1.05      0.00
    8   20    3      0.21      0.00
    9   20    3     -0.30      0.00
  -10   21    3     -0.90      0.00
   -9   21    3      0.49      0.00
   -8   21    3      0.08      0.00
   -7   21    3      2.69      0.00
   -6   21    3     -2.52      0.00
   -5   21    3     -0.48      0.00
   -4   21    3      1.82      0.00
   -3   21    3     -0.91      0.00
   -2   21    3     -5.11      0.00
   -1   21    3     -3.27      0.00
    0   21    3     -0.63      0.00
    1   21    3      2.97      0.00
    2   21    3     -0.11      0.00
    3   21    3     -0.90      0.00
    4   21    3     -2.02      0.00
    5   21    3      2.15      0.00
    6   21    3      1.39      0.00
    7   21    3     -2.74      0.00
    8   21    3     -2.29      0.00
    9   21    3     -0.59      0.00
  -10   22    3     -1.16      0.00
   -9   22    3     -0.73      0.00
   -8   22    3      0.83      0.00
   -7   22    3      0.41      0.00
   -6   22    3      0.96      0.00
   -5   22    3     -2.13      0.00
   -4   22    3     -3.56      0.00
   -3   22    3     -1.99      0.00
   -2   22    3      0.12      0.00
   -1   22    3     -0.85      0.00
    0   22    3      2.18      0.00
    1   22    3      0.19      0.00
    2   22    3     -0.38      0.00
    3   22    3     -2.49      0.00
    4   22    3     -0.02      0.00
    5   22    3     -0.20      0.00
    6   22    3      1.08      0.00
    7   22    3      1.35      0.00
    8   22    3      2.08      0.00
    9   22    3     -1.38      0.00
   -9   23    3     -1.48      0.00
   -8   23    3      0.58      0.00
   -7   23    3     -0.71      0.00
   -6   23    3     -2.13      0.00
   -5   23    3     -1.38      0.00
   -4   23    3      3.15      0.00
   -3   23    3     -1.05      0.00
   -2   23    3     -0.84      0.00
   -1   23    3     -2.92      0.00
    0   23    3      1.13      0.00
    1   23    3      1.79      0.00
    2   23    3     -1.34      0.00
    3   23    3     -4.07      0.00
    4   23    3     -2.91      0.00
    5   23    3     -1.09      0.00
    6   23    3      0.04      0.00
    7   23    3     -1.82      0.00
    8   23    3     -0.35      0.00
   -9   24    3      0.11      0.00
   -8   24    3      1.54      0.00
   -7   24    3      1.91      0.00
   -6   24    3     -0.26      0.00
   -5   24    3      1.06      0.00
   -4   24    3      0.29      0.00
   -3   24    3     -0.37      0.00
   -2   24    3     -0.95      0.00
   -1   24    3      0.60      0.00
    0   24    3     -1.01      0.00
    1   24    3      1.65      0.00
    2   24    3     -2.26      0.00
    3   24    3      0.97      0.00
    4   24    3      3.08      0.00
    5   24    3      2.86      0.00
    6   24    3      0.95      0.00
    7   24    3      2.66      0.00
    8   24    3      0.79      0.00
   -8   25    3      0.49      0.00
   -7   25    3      1.00      0.00
   -6   25    3     -2.42      0.00
   -5   25    3     -2.07      0.00
   -4   25    3      0.84      0.00
   -3   25    3      2.32      0.00
   -2   25    3     -3.11      0.00
   -1   25    3     -0.46      0.00
    0   25    3      0.26      0.00
    1   25    3      1.42      0.00
    2   25    3     -0.92      0.00
    3   25    3     -5.00      0.00
    4   25    3     -2.83      0.00
    5   25    3      0.44      0.00
    6   25    3     -2.28      0.00
    7   25    3     -1.85      0.00
   -8   26    3      1.58      0.00
   -7   26    3     -0.92      0.00
   -6   26    3     -1.54      0.00
   -5   26    3     -0.96      0.00
   -4   26    3     -2.68      0.00
   -3   26    3     -2.49      0.00
   -2   26    3     -2.18      0.00
   -1   26    3     -3.90      0.00
    0   26    3      2.92      0.00
    1   26    3     -1.05      0.00
    2   26    3      0.94      0.00
    3   26    3      0.89      0.00
    4   26    3      2.40      0.00
    5   26    3      1.99      0.00
    6   26    3      1.11      0.00
    7   26    3     -1.21      0.00
   -7   27    3      1.76      0.00
   -6   27    3     -2.29      0.00
   -5   27    3     -2.25      0.00
   -4   27    3      1.28      0.00
   -3   27    3      0.35      0.00
   -2   27    3      2.07      0.00
   -1   27    3     -2.51      0.00
    0   27    3      2.88      0.00
    1   27    3      4.22      0.00
    2   27    3     -1.45      0.00
    3   27    3     -1.98      0.00
    4   27    3     -1.17      0.00
    5   27    3      1.36      0.00
    6   27    3      0.40      0.00
   -7   28    3      1.74      0.00
   -6   28    3     -0.65      0.00
   -5   28    3     -1.10      0.00
   -4   28    3     -2.42      0.00
   -3   28    3     -4.52      0.00
   -2   28    3     -2.32      0.00
   -1   28    3      0.21      0.00
    0   28    3     -0.52      0.00
    1   28    3      5.87      0.00
    2   28    3     -0.75      0.00
    3   28    3      0.41      0.00
    4   28    3      1.08      0.00
    5   28    3      0.64      0.00
    6   28    3      0.79      0.00
   -6   29    3     -1.12      0.00
   -5   29    3     -2.17      0.00
   -4   29    3      0.52      0.00
   -3   29    3      0.82      0.00
   -2   29    3     -1.45      0.00
   -1   29    3      2.09      0.00
    0   29    3      0.24      0.00
    1   29    3      2.30      0.00
    2   29    3      3.24      0.00
    3   29    3     -4.05      0.00
    4   29    3     -1.64      0.00
    5   29    3      1.24      0.00
   -5   30    3     -0.51      0.00
   -4   30    3     -2.86      0.00
   -3   30    3     -2.79      0.00
   -2   30    3     -2.70      0.00
   -1   30    3     -0.88      0.00
    0   30    3      5.49      0.00
    1   30    3      0.60      0.00
    2   30    3      1.77      0.00
    3   30    3      0.76      0.00
    4   30    3     -1.61      0.00
   -4   31    3      0.62      0.00
   -3   31    3      0.20      0.00
   -2   31    3      2.62      0.00
   -1   31    3      1.14      0.00
    0   31    3      1.20      0.00
    1   31    3      3.12      0.00
    2   31    3      0.78      0.00
    3   31    3     -0.01      0.00
   -2   32    3     -1.45      0.00
   -1   32    3      1.99      0.00
    0   32    3      2.20      0.00
    1   32    3      2.40      0.00
  -13    0    4      4.08      0.00
  -12    0    4      1.80      0.00
  -11    0    4     -6.35      0.00
  -10    0    4     -4.35      0.00
   -9    0    4      4.35      0.00
   -8    0    4     -3.41      0.00
   -7    0    4     -4.33      0.00
   -6    0    4      1.59      0.00
   -5    0    4     -5.25      0.00
   -4    0    4     -5.99      0.00
   -3    0    4     -2.30      0.00
   -2    0    4     26.73      0.00
   -1    0    4     19.06      0.00
    0    0    4      8.17      0.00
    1    0    4     15.23      0.00
    2    0    4     15.42      0.00
    3    0    4     12.37      0.00
    4    0    4      0.43      0.00
    5    0    4     -3.60      0.00
    6    0    4     -0.23      0.00
    7    0    4     -6.84      0.00
    8    0    4     -9.98      0.00
    9    0    4     -4.55      0.00
   10    0    4      9.32      0.00
   11    0    4      2.91      0.00
   12    0    4      1.03      0.00
  -13    1    4     -0.94      0.00
  -12    1    4     -2.75      0.00
  -11    1    4      0.35      0.00
  -10    1    4     -4.43      0.00
   -9    1    4     -2.06      0.00
   -8    1    4     -1.71      0.00
   -7    1    4      1.64      0.00
   -6    1    4      1.38      0.00
   -5    1    4      3.58      0.00
   -4    1    4      3.70      0.00
   -3    1    4      7.50      0.00
   -2    1    4      0.06      0.00
   -1    1    4      6.39      0.00
    0    1    4     -8.05      0.00
    1    1    4      3.87      0.00
    2    1    4     -6.51      0.00
    3    1    4     -5.62      0.00
    4    1    4     -6.06      0.00
    5    1    4     -4.41      0.00
    6    1    4     -3.76      0.00
    7    1    4      1.19      0.00
    8    1    4      0.37      0.00
    9    1    4      1.09      0.00
   10    1    4      0.02      0.00
   11    1    4      0.75      0.00
   12    1    4     -8.59      0.00
  -13    2    4      5.25      0.00
  -12    2    4     -0.76      0.00
  -11    2    4     -5.80      0.00
  -10    2    4     -0.08      0.00
   -9    2    4      2.32      0.00
   -8    2    4     -0.76      0.00
   -7    2    4     -2.55      0.00
   -6    2    4      0.84      0.00
   -5    2    4     -1.51      0.00
   -4    2    4    -13.99      0.00
   -3    2    4     -2.37      0.00
   -2    2    4      3.67      0.00
   -1    2    4      4.17      0.00
    0    2    4    -12.12      0.00
    1    2    4     -9.94      0.00
    2    2    4      9.23      0.00
    3    2    4      1.66      0.00
    4    2    4     -2.45      0.00
    5    2    4     -2.26      0.00
    6    2    4     -2.94      0.00
    7    2    4     -2.31      0.00
    8    2    4     -9.76      0.00
    9    2    4     -0.36      0.00
   10    2    4      0.68      0.00
   11    2    4      9.09      0.00
   12    2    4      0.67      0.00
  -13    3    4      1.88      0.00
  -12    3    4      4.60      0.00
  -11    3    4      1.32      0.00
  -10    3    4      1.69      0.00
   -9    3    4     -3.62      0.00
   -8    3    4     -0.70      0.00
   -7    3    4     -1.37      0.00
   -6    3    4     -1.78      0.00
   -5    3    4     -5.28      0.00
   -4    3    4      1.09      0.00
   -3    3    4      1.11      0.00
   -2    3    4      4.94      0.00
   -1    3    4     -4.39      0.00
    0    3    4     10.74      0.00
    1    3    4      4.16      0.00
    2    3    4      6.76      0.00
    3    3    4      1.46      0.00
    4    3    4      0.77      0.00
    5    3    4     -0.01      0.00
    6    3    4      2.39      0.00
    7    3    4      2.88      0.00
    8    3    4      3.42      0.00
    9    3    4      5.62      0.00
   10    3    4      7.81      0.00
   11    3    4     -3.36      0.00
   12    3    4      1.39      0.00
  -13    4    4      2.43      0.00
  -12    4    4      0.19      0.00
  -11    4    4     -5.78      0.00
  -10    4    4     -5.13      0.00
   -9    4    4     -1.64      0.00
   -8    4    4     -7.47      0.00
   -7    4    4     -2.94      0.00
   -6    4    4      6.26      0.00
   -5    4    4      0.32      0.00
   -4    4    4      3.05      0.00
   -3    4    4      8.37      0.00
   -2    4    4     20.24      0.00
   -1    4    4      6.77      0.00
    0    4    4     -4.82      0.00
    1    4    4      1.75      0.00
    2    4    4      7.57      0.00
    3    4    4      8.93      0.00
    4    4    4      1.89      0.00
    5    4    4     -3.61      0.00
    6    4    4     -0.01      0.00
    7    4    4     -0.67      0.00
    8    4    4     -2.41      0.00
    9    4    4     -5.70      0.00
   10    4    4      5.13      0.00
   11    4    4      1.98      0.00
   12    4    4      0.75      0.00
  -13    5    4     -2.92      0.00
  -12    5    4     -3.40      0.00
  -11    5    4      1.63      0.00
  -10    5    4     -0.63      0.00
   -9    5    4     -1.24      0.00
   -8    5    4     -2.80      0.00
   -7    5    4      0.99      0.00
   -6    5    4      1.16      0.00
   -5    5    4      1.38      0.00
   -4    5    4      0.33      0.00
   -3    5    4      7.18      0.00
   -2    5    4      2.70      0.00
   -1    5    4      3.38      0.00
    0    5    4     -3.05      0.00
    1    5    4      6.34      0.00
    2    5    4     -4.25      0.00
    3    5    4     -5.44      0.00
    4    5    4     -4.85      0.00
    5    5    4     -0.57      0.00
    6    5    4     -1.73      0.00
    7    5    4     -0.59      0.00
    8    5    4     -3.99      0.00
    9    5    4     -1.55      0.00
   10    5    4     -0.15      0.00
   11    5    4     -0.16      0.00
   12    5    4     -6.60      0.00
  -13    6    4      4.92      0.00
  -12    6    4     -0.46      0.00
  -11    6    4     -3.61      0.00
  -10    6    4     -0.61      0.00
   -9    6    4     -1.12      0.00
   -8    6    4     -1.35      0.00
   -7    6    4      1.89      0.00
   -6    6    4      6.11      0.00
   -5    6    4      1.47      0.00
   -4    6    4     -5.21      0.00
   -3    6    4      3.48      0.00
   -2    6    4     -0.37      0.00
   -1    6    4     -3.75      0.00
    0    6    4    -13.46      0.00
    1    6    4    -12.75      0.00
    2    6    4     -0.97      0.00
    3    6    4      1.24      0.00
    4    6    4     -0.41      0.00
    5    6    4     -2.64      0.00
    6    6    4     -2.87      0.00
    7    6    4      4.13      0.00
    8    6    4     -2.05      0.00
    9    6    4     -3.25      0.00
   10    6    4     -3.26      0.00
   11    6    4      6.39      0.00
  -13    7    4      0.94      0.00
  -12    7    4      1.67      0.00
  -11    7    4      2.05      0.00
  -10    7    4      6.21      0.00
   -9    7    4      0.44      0.00
   -8    7    4     -0.60      0.00
   -7    7    4     -1.12      0.00
   -6    7    4      1.08      0.00
   -5    7    4     -4.30      0.00
   -4    7    4     -4.24      0.00
   -3    7    4     -1.68      0.00
   -2    7    4      3.07      0.00
   -1    7    4     -3.75      0.00
    0    7    4      5.87      0.00
    1    7    4      7.99      0.00
    2    7    4      5.72      0.00
    3    7    4      2.39      0.00
    4    7    4      6.46      0.00
    5    7    4      7.35      0.00
    6    7    4      4.38      0.00
    7    7    4     -1.27      0.00
    8    7    4     -2.33      0.00
    9    7    4     -1.32      0.00
   10    7    4      2.45      0.00
   11    7    4     -2.55      0.00
  -13    8    4      4.32      0.00
  -12    8    4      2.55      0.00
  -11    8    4     -3.18      0.00
  -10    8    4     -3.35      0.00
   -9    8    4     -0.28      0.00
   -8    8    4     -1.19      0.00
   -7    8    4      1.99      0.00
   -6    8    4      5.01      0.00
   -5    8    4     -2.32      0.00
   -4    8    4     -0.80      0.00
   -3    8    4      3.88      0.00
   -2    8    4      6.82      0.00
   -1    8    4      8.22      0.00
    0    8    4      5.15      0.00
    1    8    4      3.39      0.00
    2    8    4      3.80      0.00
    3    8    4      3.01      0.00
    4    8    4      3.73      0.00
    5    8    4     -3.43      0.00
    6    8    4     -1.37      0.00
    7    8    4      1.01      0.00
    8    8    4      0.69      0.00
    9    8    4     -6.47      0.00
   10    8    4      0.59      0.00
   11    8    4      0.43      0.00
  -13    9    4      0.94      0.00
  -12    9    4     -1.08      0.00
  -11    9    4      0.26      0.00
  -10    9    4      0.39      0.00
   -9    9    4     -0.83      0.00
   -8    9    4     -3.00      0.00
   -7    9    4      2.50      0.00
   -6    9    4      2.58      0.00
   -5    9    4      2.25      0.00
   -4    9    4     -2.45      0.00
   -3    9    4      5.94      0.00
   -2    9    4      3.66      0.00
   -1    9    4     -3.74      0.00
    0    9    4     -0.85      0.00
    1    9    4      2.78      0.00
    2    9    4     -0.20      0.00
    3    9    4     -2.63      0.00
    4    9    4     -1.06      0.00
    5    9    4      4.89      0.00
    6    9    4      0.16      0.00
    7    9    4     -1.46      0.00
    8    9    4     -0.41      0.00
    9    9    4      1.19      0.00
   10    9    4     -0.78      0.00
   11    9    4     -0.04      0.00
  -13   10    4      4.92      0.00
  -12   10    4      1.87      0.00
  -11   10    4     -1.47      0.00
  -10   10    4     -1.15      0.00
   -9   10    4      1.63      0.00
   -8   10    4      1.98      0.00
   -7   10    4      1.95      0.00
   -6   10    4      1.60      0.00
   -5   10    4     -1.28      0.00
   -4   10    4     -4.16      0.00
   -3   10    4     -3.65      0.00
   -2   10    4     -4.12      0.00
   -1   10    4     -3.78      0.00
    0   10    4     -3.74      0.00
    1   10    4     -4.12      0.00
    2   10    4     -6.59      0.00
    3   10    4      1.27      0.00
    4   10    4      0.96      0.00
    5   10    4     -1.14      0.00
    6   10    4     -1.73      0.00
    7   10    4      2.92      0.00
    8   10    4     -1.66      0.00
    9   10    4     -0.62      0.00
   10   10    4     -1.11      0.00
   11   10    4      0.70      0.00
  -12   11    4      2.81      0.00
  -11   11    4      0.67      0.00
  -10   11    4      1.13      0.00
   -9   11    4     -1.39      0.00
   -8   11    4      0.79      0.00
   -7   11    4      1.13      0.00
   -6   11    4      0.92      0.00
   -5   11    4     -4.27      0.00
   -4   11    4     -1.44      0.00
   -3   11    4      1.56      0.00
   -2   11    4      0.53      0.00
   -1   11    4     -4.85      0.00
    0   11    4     -4.50      0.00
    1   11    4      6.17      0.00
    2   11    4      3.52      0.00
    3   11    4     -0.46      0.00
    4   11    4      4.49      0.00
    5   11    4      2.93      0.00
    6   11    4      0.70      0.00
    7   11    4      0.31      0.00
    8   11    4      4.26      0.00
    9   11    4      3.86      0.00
   10   11    4      6.11      0.00
   11   11    4      0.23      0.00
  -12   12    4      2.14      0.00
  -11   12    4     -1.54      0.00
  -10   12    4     -2.56      0.00
   -9   12    4     -0.73      0.00
   -8   12    4     -1.17      0.00
   -7   12    4     -1.42      0.00
   -6   12    4      0.77      0.00
   -5   12    4     -0.66      0.00
   -4   12    4      2.48      0.00
   -3   12    4      4.95      0.00
   -2   12    4      0.01      0.00
   -1   12    4      1.67      0.00
    0   12    4      0.55      0.00
    1   12    4     -0.59      0.00
    2   12    4      4.00      0.00
    3   12    4      0.06      0.00
    4   12    4      4.97      0.00
    5   12    4      0.35      0.00
    6   12    4      0.37      0.00
    7   12    4      0.11      0.00
    8   12    4      0.19      0.00
    9   12    4     -0.43      0.00
   10   12    4      1.87      0.00
   11   12    4     -1.43      0.00
  -12   13    4      0.12      0.00
  -11   13    4      0.02      0.00
  -10   13    4     -0.48      0.00
   -9   13    4     -0.09      0.00
   -8   13    4     -0.12      0.00
   -7   13    4      2.48      0.00
   -6   13    4     -1.45      0.00
   -5   13    4     -0.51      0.00
   -4   13    4     -1.47      0.00
   -3   13    4      5.06      0.00
   -2   13    4      2.48      0.00
   -1   13    4     -6.64      0.00
    0   13    4     -2.21      0.00
    1   13    4     -3.02      0.00
    2   13    4      2.11      0.00
    3   13    4     -0.90      0.00
    4   13    4     -3.68      0.00
    5   13    4      0.66      0.00
    6   13    4     -1.44      0.00
    7   13    4     -0.16      0.00
    8   13    4     -0.20      0.00
    9   13    4      0.37      0.00
   10   13    4      2.74      0.00
   11   13    4      3.37      0.00
  -12   14    4      0.46      0.00
  -11   14    4      0.25      0.00
  -10   14    4     -0.95      0.00
   -9   14    4      0.85      0.00
   -8   14    4     -0.75      0.00
   -7   14    4      0.10      0.00
   -6   14    4      1.13      0.00
   -5   14    4      0.47      0.00
   -4   14    4      1.27      0.00
   -3   14    4      1.50      0.00
   -2   14    4      0.24      0.00
   -1   14    4     -5.11      0.00
    0   14    4     -3.03      0.00
    1   14    4      0.49      0.00
    2   14    4     -3.22      0.00
    3   14    4      4.14      0.00
    4   14    4      1.57      0.00
    5   14    4      0.88      0.00
    6   14    4      0.61      0.00
    7   14    4      1.82      0.00
    8   14    4     -2.62      0.00
    9   14    4     -0.17      0.00
   10   14    4      1.17      0.00
  -12   15    4      0.01      0.00
  -11   15    4      1.56      0.00
  -10   15    4      1.33      0.00
   -9   15    4      0.93      0.00
   -8   15    4      1.95      0.00
   -7   15    4     -1.69      0.00
   -6   15    4      0.19      0.00
   -5   15    4     -1.57      0.00
   -4   15    4      0.32      0.00
   -3   15    4     -0.40      0.00
   -2   15    4      0.31      0.00
   -1   15    4     -0.36      0.00
    0   15    4     -6.57      0.00
    1   15    4      3.22      0.00
    2   15    4      3.20      0.00
    3   15    4      0.12      0.00
    4   15    4      1.25      0.00
    5   15    4     -2.20      0.00
    6   15    4      0.30      0.00
    7   15    4      0.93      0.00
    8   15    4     -1.29      0.00
    9   15    4     -4.16      0.00
   10   15    4      3.20      0.00
  -11   16    4     -0.69      0.00
  -10   16    4     -0.90      0.00
   -9   16    4     -1.08      0.00
   -8   16    4      0.17      0.00
   -7   16    4     -1.11      0.00
   -6   16    4      0.02      0.00
   -5   16    4     -3.77      0.00
   -4   16    4     -1.95      0.00
   -3   16    4      1.46      0.00
   -2   16    4     -1.91      0.00
   -1   16    4      2.91      0.00
    0   16    4      4.67      0.00
    1   16    4      1.27      0.00
    2   16    4      5.00      0.00
    3   16    4     -1.48      0.00
    4   16    4      2.62      0.00
    5   16    4     -0.17      0.00
    6   16    4     -0.29      0.00
    7   16    4      0.37      0.00
    8   16    4     -2.52      0.00
    9   16    4     -3.06      0.00
   10   16    4     -0.92      0.00
  -11   17    4      0.87      0.00
  -10   17    4      0.23      0.00
   -9   17    4     -0.78      0.00
   -8   17    4     -2.42      0.00
   -7   17    4     -2.70      0.00
   -6   17    4     -1.59      0.00
   -5   17    4      3.43      0.00
   -4   17    4     -0.79      0.00
   -3   17    4      2.17      0.00
   -2   17    4      3.20      0.00
   -1   17    4     -1.56      0.00
    0   17    4      0.61      0.00
    1   17    4     -2.49      0.00
    2   17    4      2.44      0.00
    3   17    4      1.16      0.00
    4   17    4     -6.49      0.00
    5   17    4     -2.01      0.00
    6   17    4     -0.48      0.00
    7   17    4      2.43      0.00
    8   17    4     -0.23      0.00
    9   17    4     -2.34      0.00
   10   17    4     -0.14      0.00
  -11   18    4     -0.45      0.00
  -10   18    4     -0.32      0.00
   -9   18    4      1.08      0.00
   -8   18    4      0.27      0.00
   -7   18    4      0.70      0.00
   -6   18    4      0.07      0.00
   -5   18    4     -0.94      0.00
   -4   18    4     -1.22      0.00
   -3   18    4     -0.89      0.00
   -2   18    4     -1.83      0.00
   -1   18    4     -0.17      0.00
    0   18    4      2.73      0.00
    1   18    4      1.61      0.00
    2   18    4     -3.95      0.00
    3   18    4      2.22      0.00
    4   18    4      1.19      0.00
    5   18    4     -0.63      0.00
    6   18    4      0.95      0.00
    7   18    4      2.48      0.00
    8   18    4     -1.60      0.00
    9   18    4     -2.68      0.00
  -11   19    4      1.25      0.00
  -10   19    4     -0.32      0.00
   -9   19    4     -1.41      0.00
   -8   19    4     -0.58      0.00
   -7   19    4     -4.59      0.00
   -6   19    4     -0.19      0.00
   -5   19    4      1.21      0.00
   -4   19    4      0.85      0.00
   -3   19    4      0.09      0.00
   -2   19    4      1.71      0.00
   -1   19    4     -0.65      0.00
    0   19    4     -2.29      0.00
    1   19    4      1.19      0.00
    2   19    4      1.32      0.00
    3   19    4     -1.52      0.00
    4   19    4     -2.52      0.00
    5   19    4     -4.41      0.00
    6   19    4     -0.57      0.00
    7   19    4      1.83      0.00
    8   19    4      3.36      0.00
    9   19    4      0.63      0.00
  -10   20    4      0.09      0.00
   -9   20    4     -0.69      0.00
   -8   20    4      0.18      0.00
   -7   20    4     -1.68      0.00
   -6   20    4     -0.14      0.00
   -5   20    4     -0.69      0.00
   -4   20    4      1.89      0.00
   -3   20    4      0.48      0.00
   -2   20    4     -1.85      0.00
   -1   20    4     -0.29      0.00
    0   20    4      1.41      0.00
    1   20    4     -0.41      0.00
    2   20    4      0.43      0.00
    3   20    4      0.27      0.00
    4   20    4      2.43      0.00
    5   20    4     -1.07      0.00
    6   20    4      0.70      0.00
    7   20    4      2.22      0.00
    8   20    4     -0.75      0.00
    9   20    4     -0.16      0.00
  -10   21    4      0.51      0.00
   -9   21    4     -0.15      0.00
   -8   21    4      0.04      0.00
   -7   21    4     -0.68      0.00
   -6   21    4     -2.37      0.00
   -5   21    4      1.10      0.00
   -4   21    4      0.10      0.00
   -3   21    4      3.11      0.00
   -2   21    4      1.14      0.00
   -1   21    4      0.03      0.00
    0   21    4      0.58      0.00
    1   21    4      1.27      0.00
    2   21    4      1.85      0.00
    3   21    4      1.94      0.00
    4   21    4     -2.08      0.00
    5   21    4      1.31      0.00
    6   21    4     -0.37      0.00
    7   21    4      1.64      0.00
    8   21    4      2.06      0.00
  -10   22    4      1.38      0.00
   -9   22    4      0.44      0.00
   -8   22    4     -2.07      0.00
   -7   22    4     -0.65      0.00
   -6   22    4      1.10      0.00
   -5   22    4      1.60      0.00
   -4   22    4      1.88      0.00
   -3   22    4      4.00      0.00
   -2   22    4     -0.53      0.00
   -1   22    4     -0.83      0.00
    0   22    4     -0.46      0.00
    1   22    4      0.92      0.00
    2   22    4      0.55      0.00
    3   22    4      2.11      0.00
    4   22    4     -0.09      0.00
    5   22    4     -2.20      0.00
    6   22    4      0.57      0.00
    7   22    4      0.67      0.00
    8   22    4     -0.65      0.00
   -9   23    4      0.45      0.00
   -8   23    4      2.47      0.00
   -7   23    4      0.17      0.00
   -6   23    4      0.43      0.00
   -5   23    4      0.31      0.00
   -4   23    4      0.92      0.00
   -3   23    4      0.57      0.00
   -2   23    4      0.05      0.00
   -1   23    4     -1.93      0.00
    0   23    4      1.81      0.00
    1   23    4     -0.24      0.00
    2   23    4      3.15      0.00
    3   23    4      1.89      0.00
    4   23    4      2.38      0.00
    5   23    4      1.72      0.00
    6   23    4      1.98      0.00
    7   23    4     -0.43      0.00
    8   23    4     -0.27      0.00
   -9   24    4     -0.10      0.00
   -8   24    4     -2.48      0.00
   -7   24    4     -1.58      0.00
   -6   24    4      0.86      0.00
   -5   24    4     -1.76      0.00
   -4   24    4     -0.69      0.00
   -3   24    4      0.49      0.00
   -2   24    4      2.10      0.00
   -1   24    4     -2.08      0.00
    0   24    4     -0.02      0.00
    1   24    4      2.84      0.00
    2   24    4      0.18      0.00
    3   24    4      0.47      0.00
    4   24    4     -2.73      0.00
    5   24    4     -3.86      0.00
    6   24    4     -0.22      0.00
    7   24    4      0.02      0.00
   -8   25    4      0.67      0.00
   -7   25    4      1.11      0.00
   -6   25    4      0.03      0.00
   -5   25    4      1.09      0.00
   -4   25    4      0.73      0.00
   -3   25    4     -0.16      0.00
   -2   25    4     -2.23      0.00
   -1   25    4      2.73      0.00
    0   25    4     -1.71      0.00
    1   25    4      1.36      0.00
    2   25    4      1.59      0.00
    3   25    4      2.23      0.00
    4   25    4      1.47      0.00
    5   25    4      1.82      0.00
    6   25    4      1.49      0.00
    7   25    4      1.18      0.00
   -8   26    4     -1.95      0.00
   -7   26    4     -0.56      0.00
   -6   26    4      2.83      0.00
   -5   26    4      0.28      0.00
   -4   26    4     -0.20      0.00
   -3   26    4      5.54      0.00
   -2   26    4      1.24      0.00
   -1   26    4      1.63      0.00
    0   26    4      1.27      0.00
    1   26    4     -0.66      0.00
    2   26    4      2.14      0.00
    3   26    4     -1.46      0.00
    4   26    4     -2.63      0.00
    5   26    4     -2.09      0.00
    6   26    4     -0.82      0.00
   -7   27    4     -0.61      0.00
   -6   27    4      0.79      0.00
   -5   27    4      1.62      0.00
   -4   27    4     -0.10      0.00
   -3   27    4     -1.12      0.00
   -2   27    4     -1.40      0.00
   -1   27    4     -2.13      0.00
    0   27    4      1.58      0.00
    1   27    4     -4.01      0.00
    2   27    4      0.62      0.00
    3   27    4      1.38      0.00
    4   27    4     -1.15      0.00
    5   27    4     -1.27      0.00
    6   27    4      0.77      0.00
   -6   28    4      0.85      0.00
   -5   28    4      0.89      0.00
   -4   28    4      1.60      0.00
   -3   28    4      3.11      0.00
   -2   28    4      3.46      0.00
   -1   28    4     -1.25      0.00
    0   28    4     -0.29      0.00
    1   28    4      0.72      0.00
    2   28    4     -2.41      0.00
    3   28    4      0.64      0.00
    4   28    4     -1.22      0.00
    5   28    4     -2.39      0.00
   -6   29    4      0.05      0.00
   -5   29    4      0.78      0.00
   -4   29    4      1.06      0.00
   -3   29    4     -0.41      0.00
   -2   29    4     -1.99      0.00
   -1   29    4      0.59      0.00
    0   29    4     -2.91      0.00
    1   29    4     -0.19      0.00
    2   29    4     -0.71      0.00
    3   29    4      0.43      0.00
    4   29    4      1.23      0.00
   -5   30    4      0.84      0.00
   -4   30    4      1.67      0.00
   -3   30    4      3.61      0.00
   -2   30    4      0.27      0.00
   -1   30    4      0.07      0.00
    0   30    4     -0.40      0.00
    1   30    4     -2.63      0.00
    2   30    4      1.43      0.00
    3   30    4     -1.76      0.00
   -3   31    4      0.39      0.00
   -2   31    4     -2.21      0.00
   -1   31    4     -3.71      0.00
    0   31    4      0.28      0.00
    1   31    4     -2.77      0.00
    2   31    4     -0.95      0.00
  -13    0    5     -1.26      0.00
  -12    0    5      3.59      0.00
  -11    0    5      5.19      0.00
  -10    0    5      6.32      0.00
   -9    0    5     -2.58      0.00
   -8    0    5     -1.35      0.00
   -7    0    5      5.67      0.00
   -6    0    5      7.00      0.00
   -5    0    5     -0.80      0.00
   -4    0    5      4.53      0.00
   -3    0    5     -6.53      0.00
   -2    0    5     -4.99      0.00
   -1    0    5    -10.61      0.00
    0    0    5     -4.44      0.00
    1    0    5    -11.38      0.00
    2    0    5     -7.70      0.00
    3    0    5     -8.15      0.00
    4    0    5     -1.88      0.00
    5    0    5      1.78      0.00
    6    0    5      1.19      0.00
    7    0    5      3.36      0.00
    8    0    5     16.89      0.00
    9    0    5      3.23      0.00
   10    0    5     -7.36      0.00
   11    0    5     -7.27      0.00
  -13    1    5      0.37      0.00
  -12    1    5      2.89      0.00
  -11    1    5      3.62      0.00
  -10    1    5      2.82      0.00
   -9    1    5      4.82      0.00
   -8    1    5      0.80      0.00
   -7    1    5     -0.44      0.00
   -6    1    5      0.37      0.00
   -5    1    5     -3.70      0.00
   -4    1    5     -1.29      0.00
   -3    1    5     -4.93      0.00
   -2    1    5     -0.71      0.00
   -1    1    5     -0.88      0.00
    0    1    5     -0.52      0.00
    1    1    5      4.03      0.00
    2    1    5      0.65      0.00
    3    1    5      7.02      0.00
    4    1    5      5.83      0.00
    5    1    5      2.98      0.00
    6    1    5      3.20      0.00
    7    1    5     -2.78      0.00
    8    1    5     -0.98      0.00
    9    1    5     -3.30      0.00
   10    1    5      2.14      0.00
   11    1    5     -0.16      0.00
  -13    2    5      1.60      0.00
  -12    2    5     -0.61      0.00
  -11    2    5      6.23      0.00
  -10    2    5      1.36      0.00
   -9    2    5     -2.70      0.00
   -8    2    5     -2.99      0.00
   -7    2    5      4.06      0.00
   -6    2    5      1.91      0.00
   -5    2    5      2.36      0.00
   -4    2    5      0.15      0.00
   -3    2    5      3.69      0.00
   -2    2    5     -1.02      0.00
   -1    2    5     12.44      0.00
    0    2    5      0.89      0.00
    1    2    5      5.57      0.00
    2    2    5     -1.15      0.00
    3    2    5     -3.89      0.00
    4    2    5     -0.20      0.00
    5    2    5      2.59      0.00
    6    2    5     -2.73      0.00
    7    2    5      4.14      0.00
    8    2    5     11.35      0.00
    9    2    5      4.01      0.00
   10    2    5    -10.43      0.00
   11    2    5     -0.22      0.00
  -13    3    5     -1.30      0.00
  -12    3    5     -3.50      0.00
  -11    3    5     -2.56      0.00
  -10    3    5      1.51      0.00
   -9    3    5      1.10      0.00
   -8    3    5      2.10      0.00
   -7    3    5      0.76      0.00
   -6    3    5      0.65      0.00
   -5    3    5      4.71      0.00
   -4    3    5     -0.19      0.00
   -3    3    5      1.13      0.00
   -2    3    5     -4.29      0.00
   -1    3    5     -1.03      0.00
    0    3    5     -2.73      0.00
    1    3    5    -11.73      0.00
    2    3    5     -2.90      0.00
    3    3    5     -1.44      0.00
    4    3    5      0.98      0.00
    5    3    5      1.03      0.00
    6    3    5     -3.01      0.00
    7    3    5     -3.42      0.00
    8    3    5     -5.81      0.00
    9    3    5     -0.86      0.00
   10    3    5     -6.17      0.00
   11    3    5     -0.45      0.00
  -13    4    5     -1.09      0.00
  -12    4    5      4.00      0.00
  -11    4    5      3.74      0.00
  -10    4    5      5.25      0.00
   -9    4    5      3.22      0.00
   -8    4    5      5.44      0.00
   -7    4    5      5.42      0.00
   -6    4    5      0.90      0.00
   -5    4    5     -7.19      0.00
   -4    4    5     -3.63      0.00
   -3    4    5    -13.52      0.00
   -2    4    5     -4.58      0.00
   -1    4    5     -3.00      0.00
    0    4    5      0.65      0.00
    1    4    5     -5.76      0.00
    2    4    5     -4.03      0.00
    3    4    5     -5.38      0.00
    4    4    5      0.00      0.00
    5    4    5      2.47      0.00
    6    4    5      1.04      0.00
    7    4    5     -1.49      0.00
    8    4    5      7.45      0.00
    9    4    5      1.39      0.00
   10    4    5     -2.93      0.00
   11    4    5     -4.53      0.00
  -13    5    5      1.81      0.00
  -12    5    5      2.90      0.00
  -11    5    5      1.81      0.00
  -10    5    5     -0.54      0.00
   -9    5    5      2.01      0.00
   -8    5    5      1.60      0.00
   -7    5    5      0.85      0.00
   -6    5    5      0.35      0.00
   -5    5    5     -2.32      0.00
   -4    5    5      0.80      0.00
   -3    5    5     -1.79      0.00
   -2    5    5     -2.84      0.00
   -1    5    5      0.47      0.00
    0    5    5      0.36      0.00
    1    5    5     -1.94      0.00
    2    5    5      0.80      0.00
    3    5    5      5.99      0.00
    4    5    5      3.59      0.00
    5    5    5     -1.71      0.00
    6    5    5      0.51      0.00
    7    5    5     -1.02      0.00
    8    5    5      3.04      0.00
    9    5    5      0.78      0.00
   10    5    5      3.33      0.00
   11    5    5      0.54      0.00
  -13    6    5     -0.41      0.00
  -12    6    5     -0.17      0.00
  -11    6    5      3.57      0.00
  -10    6    5     -0.29      0.00
   -9    6    5      1.09      0.00
   -8    6    5      0.31      0.00
   -7    6    5      0.94      0.00
   -6    6    5     -4.54      0.00
   -5    6    5     -1.72      0.00
   -4    6    5     -4.29      0.00
   -3    6    5     -2.16      0.00
   -2    6    5      2.14      0.00
   -1    6    5     11.21      0.00
    0    6    5      3.83      0.00
    1    6    5      4.38      0.00
    2    6    5      1.74      0.00
    3    6    5      0.00      0.00
    4    6    5     -0.07      0.00
    5    6    5      3.64      0.00
    6    6    5     -0.98      0.00
    7    6    5     -0.54      0.00
    8    6    5      1.63      0.00
    9    6    5      3.98      0.00
   10    6    5     -3.59      0.00
   11    6    5      2.31      0.00
  -13    7    5      0.07      0.00
  -12    7    5     -3.09      0.00
  -11    7    5     -3.25      0.00
  -10    7    5     -4.64      0.00
   -9    7    5     -4.15      0.00
   -8    7    5      1.65      0.00
   -7    7    5      0.99      0.00
   -6    7    5     -1.26      0.00
   -5    7    5      1.24      0.00
   -4    7    5      3.40      0.00
   -3    7    5      3.12      0.00
   -2    7    5     -1.67      0.00
   -1    7    5      1.97      0.00
    0    7    5     -1.59      0.00
    1    7    5     -8.70      0.00
    2    7    5     -4.65      0.00
    3    7    5     -1.53      0.00
    4    7    5     -5.38      0.00
    5    7    5     -8.25      0.00
    6    7    5     -5.32      0.00
    7    7    5      3.75      0.00
    8    7    5      1.39      0.00
    9    7    5      3.34      0.00
   10    7    5     -0.33      0.00
   11    7    5      0.50      0.00
  -13    8    5     -3.25      0.00
  -12    8    5      1.91      0.00
  -11    8    5      2.15      0.00
  -10    8    5      2.36      0.00
   -9    8    5      0.91      0.00
   -8    8    5      1.14      0.00
   -7    8    5     -0.25      0.00
   -6    8    5      0.00      0.00
   -5    8    5     -2.01      0.00
   -4    8    5      1.38      0.00
   -3    8    5     -6.35      0.00
   -2    8    5     -1.10      0.00
   -1    8    5     -1.09      0.00
    0    8    5     -5.73      0.00
    1    8    5     -5.22      0.00
    2    8    5     -1.19      0.00
    3    8    5     -3.31      0.00
    4    8    5      0.50      0.00
    5    8    5      2.46      0.00
    6    8    5      2.19      0.00
    7    8    5     -1.65      0.00
    8    8    5      4.02      0.00
    9    8    5      2.18      0.00
   10    8    5      1.65      0.00
   11    8    5     -0.12      0.00
  -13    9    5     -0.96      0.00
  -12    9    5      0.19      0.00
  -11    9    5      2.15      0.00
  -10    9    5     -0.27      0.00
   -9    9    5      0.25      0.00
   -8    9    5      2.55      0.00
   -7    9    5      0.47      0.00
   -6    9    5     -2.40      0.00
   -5    9    5     -3.97      0.00
   -4    9    5     -0.25      0.00
   -3    9    5      0.14      0.00
   -2    9    5     -2.04      0.00
   -1    9    5      3.42      0.00
    0    9    5      1.88      0.00
    1    9    5     -4.46      0.00
    2    9    5      3.36      0.00
    3    9    5      3.75      0.00
    4    9    5     -0.37      0.00
    5    9    5     -5.18      0.00
    6    9    5      0.12      0.00
    7    9    5      2.10      0.00
    8    9    5      0.71      0.00
    9    9    5     -3.23      0.00
   10    9    5      2.05      0.00
   11    9    5      1.97      0.00
  -12   10    5     -1.55      0.00
  -11   10    5      1.31      0.00
  -10   10    5     -0.11      0.00
   -9   10    5     -1.06      0.00
   -8   10    5     -3.58      0.00
   -7   10    5     -0.74      0.00
   -6   10    5     -1.45      0.00
   -5   10    5      3.39      0.00
   -4   10    5     -0.02      0.00
   -3   10    5      1.05      0.00
   -2   10    5      5.82      0.00
   -1   10    5      5.71      0.00
    0   10    5      3.94      0.00
    1   10    5      0.55      0.00
    2   10    5      2.65      0.00
    3   10    5      2.04      0.00
    4   10    5     -3.33      0.00
    5   10    5      1.14      0.00
    6   10    5     -1.10      0.00
    7   10    5     -0.70      0.00
    8   10    5      1.22      0.00
    9   10    5      2.32      0.00
   10   10    5     -3.65      0.00
  -12   11    5     -4.41      0.00
  -11   11    5      0.07      0.00
  -10   11    5      0.35      0.00
   -9   11    5     -0.26      0.00
   -8   11    5      0.88      0.00
   -7   11    5     -1.01      0.00
   -6   11    5     -1.21      0.00
   -5   11    5     -0.15      0.00
   -4   11    5      1.62      0.00
   -3   11    5     -0.19      0.00
   -2   11    5      2.50      0.00
   -1   11    5      4.51      0.00
    0   11    5     -1.08      0.00
    1   11    5     -2.57      0.00
    2   11    5     -3.36      0.00
    3   11    5      3.45      0.00
    4   11    5     -2.70      0.00
    5   11    5     -4.46      0.00
    6   11    5      0.22      0.00
    7   11    5      3.64      0.00
    8   11    5     -5.55      0.00
    9   11    5     -4.31      0.00
   10   11    5     -2.49      0.00
  -12   12    5     -0.33      0.00
  -11   12    5      0.14      0.00
  -10   12    5      1.68      0.00
   -9   12    5      1.39      0.00
   -8   12    5      1.78      0.00
   -7   12    5      0.38      0.00
   -6   12    5      1.94      0.00
   -5   12    5     -0.63      0.00
   -4   12    5     -0.03      0.00
   -3   12    5     -5.43      0.00
   -2   12    5     -0.91      0.00
   -1   12    5      5.66      0.00
    0   12    5     -3.23      0.00
    1   12    5     -1.88      0.00
    2   12    5     -0.60      0.00
    3   12    5     -3.05      0.00
    4   12    5     -0.34      0.00
    5   12    5     -2.25      0.00
    6   12    5     -1.10      0.00
    7   12    5     -1.39      0.00
    8   12    5      3.79      0.00
    9   12    5     -1.25      0.00
   10   12    5     -1.96      0.00
  -12   13    5     -0.69      0.00
  -11   13    5      1.44      0.00
  -10   13    5      1.55      0.00
   -9   13    5     -0.16      0.00
   -8   13    5      0.20      0.00
   -7   13    5     -0.32      0.00
   -6   13    5      0.05      0.00
   -5   13    5     -0.85      0.00
   -4   13    5     -1.39      0.00
   -3   13    5      0.91      0.00
   -2   13    5      0.08      0.00
   -1   13    5      3.52      0.00
    0   13    5      3.00      0.00
    1   13    5     -2.96      0.00
    2   13    5      5.96      0.00
    3   13    5      2.21      0.00
    4   13    5     -1.21      0.00
    5   13    5     -1.33      0.00
    6   13    5      3.03      0.00
    7   13    5      1.69      0.00
    8   13    5     -0.87      0.00
    9   13    5     -1.43      0.00
   10   13    5     -0.42      0.00
  -12   14    5     -1.04      0.00
  -11   14    5     -1.05      0.00
  -10   14    5      0.00      0.00
   -9   14    5      1.07      0.00
   -8   14    5     -0.58      0.00
   -7   14    5      0.47      0.00
   -6   14    5     -2.44      0.00
   -5   14    5      1.28      0.00
   -4   14    5     -2.52      0.00
   -3   14    5     -3.22      0.00
   -2   14    5      3.56      0.00
   -1   14    5      4.42      0.00
    0   14    5      3.38      0.00
    1   14    5     -3.61      0.00
    2   14    5     -0.89      0.00
    3   14    5      2.97      0.00
    4   14    5     -4.06      0.00
    5   14    5     -2.15      0.00
    6   14    5     -2.14      0.00
    7   14    5     -0.33      0.00
    8   14    5      2.28      0.00
    9   14    5      1.86      0.00
   10   14    5     -3.66      0.00
  -12   15    5     -1.74      0.00
  -11   15    5     -0.93      0.00
  -10   15    5     -1.16      0.00
   -9   15    5     -0.92      0.00
   -8   15    5     -1.12      0.00
   -7   15    5      0.53      0.00
   -6   15    5      0.31      0.00
   -5   15    5     -1.91      0.00
   -4   15    5     -0.01      0.00
   -3   15    5      0.74      0.00
   -2   15    5      2.49      0.00
   -1   15    5      1.38      0.00
    0   15    5     -1.29      0.00
    1   15    5      2.04      0.00
    2   15    5     -1.56      0.00
    3   15    5      2.14      0.00
    4   15    5     -3.00      0.00
    5   15    5     -3.17      0.00
    6   15    5      1.77      0.00
    7   15    5      3.02      0.00
    8   15    5     -0.44      0.00
    9   15    5      2.78      0.00
   10   15    5      1.05      0.00
  -11   16    5      0.27      0.00
  -10   16    5      0.21      0.00
   -9   16    5      1.38      0.00
   -8   16    5      1.65      0.00
   -7   16    5     -0.73      0.00
   -6   16    5      1.18      0.00
   -5   16    5      1.26      0.00
   -4   16    5      3.14      0.00
   -3   16    5     -1.90      0.00
   -2   16    5      1.41      0.00
   -1   16    5      4.39      0.00
    0   16    5     -7.07      0.00
    1   16    5     -4.31      0.00
    2   16    5     -0.47      0.00
    3   16    5     -0.44      0.00
    4   16    5      1.48      0.00
    5   16    5     -2.78      0.00
    6   16    5      0.01      0.00
    7   16    5      0.40      0.00
    8   16    5      4.50      0.00
    9   16    5      2.65      0.00
  -11   17    5     -0.30      0.00
  -10   17    5      0.16      0.00
   -9   17    5      0.10      0.00
   -8   17    5      2.28      0.00
   -7   17    5      3.51      0.00
   -6   17    5      1.05      0.00
   -5   17    5     -3.75      0.00
   -4   17    5     -2.02      0.00
   -3   17    5      2.22      0.00
   -2   17    5     -1.00      0.00
   -1   17    5     -0.71      0.00
    0   17    5     -0.15      0.00
    1   17    5     -2.27      0.00
    2   17    5      5.60      0.00
    3   17    5      0.75      0.00
    4   17    5     -0.31      0.00
    5   17    5      0.89      0.00
    6   17    5      1.41      0.00
    7   17    5     -0.12      0.00
    8   17    5     -1.14      0.00
    9   17    5      1.03      0.00
  -11   18    5      0.67      0.00
  -10   18    5      0.29      0.00
   -9   18    5      0.23      0.00
   -8   18    5     -1.29      0.00
   -7   18    5      0.33      0.00
   -6   18    5     -1.64      0.00
   -5   18    5      1.63      0.00
   -4   18    5     -0.82      0.00
   -3   18    5     -0.47      0.00
   -2   18    5      3.42      0.00
   -1   18    5      1.34      0.00
    0   18    5     -2.72      0.00
    1   18    5     -3.69      0.00
    2   18    5      1.16      0.00
    3   18    5      4.31      0.00
    4   18    5     -3.32      0.00
    5   18    5     -0.96      0.00
    6   18    5     -0.61      0.00
    7   18    5     -0.97      0.00
    8   18    5      1.04      0.00
    9   18    5      3.03      0.00
  -10   19    5     -0.22      0.00
   -9   19    5      1.14      0.00
   -8   19    5      1.00      0.00
   -7   19    5      3.37      0.00
   -6   19    5      1.43      0.00
   -5   19    5     -3.36      0.00
   -4   19    5     -1.32      0.00
   -3   19    5      2.15      0.00
   -2   19    5      1.03      0.00
   -1   19    5      0.66      0.00
    0   19    5     -2.25      0.00
    1   19    5      0.05      0.00
    2   19    5      1.15      0.00
    3   19    5      2.47      0.00
    4   19    5      1.24      0.00
    5   19    5      0.48      0.00
    6   19    5      2.52      0.00
    7   19    5      0.10      0.00
    8   19    5     -4.08      0.00
    9   19    5     -2.35      0.00
  -10   20    5      0.09      0.00
   -9   20    5      0.38      0.00
   -8   20    5      0.96      0.00
   -7   20    5      0.17      0.00
   -6   20    5      0.91      0.00
   -5   20    5     -0.63      0.00
   -4   20    5     -0.37      0.00
   -3   20    5     -2.31      0.00
   -2   20    5      2.95      0.00
   -1   20    5      1.69      0.00
    0   20    5     -2.95      0.00
    1   20    5     -2.29      0.00
    2   20    5      2.18      0.00
    3   20    5      0.27      0.00
    4   20    5     -0.21      0.00
    5   20    5     -1.35      0.00
    6   20    5      0.20      0.00
    7   20    5     -1.87      0.00
    8   20    5      0.31      0.00
  -10   21    5     -0.96      0.00
   -9   21    5     -0.68      0.00
   -8   21    5      0.46      0.00
   -7   21    5      1.96      0.00
   -6   21    5      1.64      0.00
   -5   21    5     -2.20      0.00
   -4   21    5     -0.90      0.00
   -3   21    5      0.31      0.00
   -2   21    5      0.62      0.00
   -1   21    5     -0.39      0.00
    0   21    5     -2.78      0.00
    1   21    5     -2.44      0.00
    2   21    5      1.03      0.00
    3   21    5     -0.35      0.00
    4   21    5     -1.81      0.00
    5   21    5     -0.68      0.00
    6   21    5      0.65      0.00
    7   21    5      0.10      0.00
    8   21    5     -3.48      0.00
   -9   22    5     -0.42      0.00
   -8   22    5      0.32      0.00
   -7   22    5      1.82      0.00
   -6   22    5     -1.59      0.00
   -5   22    5     -0.94      0.00
   -4   22    5     -2.71      0.00
   -3   22    5     -2.21      0.00
   -2   22    5     -0.60      0.00
   -1   22    5      2.08      0.00
    0   22    5     -2.53      0.00
    1   22    5     -1.87      0.00
    2   22    5      0.53      0.00
    3   22    5      1.31      0.00
    4   22    5     -1.95      0.00
    5   22    5      0.84      0.00
    6   22    5     -0.49      0.00
    7   22    5     -1.03      0.00
   -9   23    5     -0.70      0.00
   -8   23    5     -1.50      0.00
   -7   23    5     -0.46      0.00
   -6   23    5     -0.15      0.00
   -5   23    5     -2.04      0.00
   -4   23    5     -1.19      0.00
   -3   23    5      2.15      0.00
   -2   23    5      0.38      0.00
   -1   23    5      0.38      0.00
    0   23    5     -0.97      0.00
    1   23    5     -2.38      0.00
    2   23    5      0.28      0.00
    3   23    5     -1.31      0.00
    4   23    5     -3.01      0.00
    5   23    5     -2.97      0.00
    6   23    5      0.46      0.00
    7   23    5      0.78      0.00
   -8   24    5      1.21      0.00
   -7   24    5      1.64      0.00
   -6   24    5      0.24      0.00
   -5   24    5      0.76      0.00
   -4   24    5      1.71      0.00
   -3   24    5     -1.29      0.00
   -2   24    5      1.17      0.00
   -1   24    5     -2.29      0.00
    0   24    5     -0.66      0.00
    1   24    5     -2.85      0.00
    2   24    5      0.13      0.00
    3   24    5      0.86      0.00
    4   24    5      0.88      0.00
    5   24    5      0.72      0.00
    6   24    5      1.21      0.00
    7   24    5     -0.24      0.00
   -8   25    5     -0.76      0.00
   -7   25    5     -0.34      0.00
   -6   25    5     -1.08      0.00
   -5   25    5     -1.93      0.00
   -4   25    5      1.42      0.00
   -3   25    5      1.17      0.00
   -2   25    5      1.96      0.00
   -1   25    5     -1.56      0.00
    0   25    5     -2.13      0.00
    1   25    5      1.03      0.00
    2   25    5     -2.16      0.00
    3   25    5      0.24      0.00
    4   25    5     -1.93      0.00
    5   25    5     -1.99      0.00
    6   25    5     -0.25      0.00
   -7   26    5      1.75      0.00
   -6   26    5     -0.86      0.00
   -5   26    5     -1.00      0.00
   -4   26    5     -0.12      0.00
   -3   26    5     -1.54      0.00
   -2   26    5     -3.28      0.00
   -1   26    5     -0.87      0.00
    0   26    5     -5.16      0.00
    1   26    5      0.50      0.00
    2   26    5      0.66      0.00
    3   26    5     -0.43      0.00
    4   26    5      1.29      0.00
    5   26    5      1.14      0.00
   -7   27    5     -0.74      0.00
   -6   27    5     -0.82      0.00
   -5   27    5     -1.73      0.00
   -4   27    5      1.10      0.00
   -3   27    5      4.05      0.00
   -2   27    5      0.31      0.00
   -1   27    5      0.11      0.00
    0   27    5      1.56      0.00
    1   27    5     -1.64      0.00
    2   27    5      1.83      0.00
    3   27    5      0.28      0.00
    4   27    5      0.33      0.00
    5   27    5      1.55      0.00
   -6   28    5     -0.05      0.00
   -5   28    5     -1.33      0.00
   -4   28    5     -1.46      0.00
   -3   28    5     -1.14      0.00
   -2   28    5      0.60      0.00
   -1   28    5     -4.21      0.00
    0   28    5     -0.57      0.00
    1   28    5      1.08      0.00
    2   28    5      0.08      0.00
    3   28    5      0.98      0.00
    4   28    5      0.53      0.00
   -5   29    5     -0.59      0.00
   -4   29    5      1.18      0.00
   -3   29    5      0.83      0.00
   -2   29    5      1.72      0.00
   -1   29    5      0.69      0.00
    0   29    5     -0.44      0.00
    1   29    5      1.90      0.00
    2   29    5     -1.89      0.00
    3   29    5      0.49      0.00
   -4   30    5     -1.90      0.00
   -3   30    5     -0.38      0.00
   -2   30    5      0.36      0.00
   -1   30    5     -0.29      0.00
    0   30    5     -2.83      0.00
    1   30    5      2.58      0.00
    2   30    5      1.13      0.00
  -13    0    6     -1.70      0.00
  -12    0    6      0.95      0.00
  -11    0    6     -9.54      0.00
  -10    0    6     -9.24      0.00
   -9    0    6      1.29      0.00
   -8    0    6      2.99      0.00
   -7    0    6     -4.65      0.00
   -6    0    6     -4.77      0.00
   -5    0    6      1.50      0.00
   -4    0    6     -5.85      0.00
   -3    0    6     -3.38      0.00
   -2    0    6      4.96      0.00
   -1    0    6      4.61      0.00
    0    0    6      9.09      0.00
    1    0    6      1.53      0.00
    2    0    6      1.10      0.00
    3    0    6      4.34      0.00
    4    0    6      3.74      0.00
    5    0    6     -0.54      0.00
    6    0    6     -4.97      0.00
    7    0    6     -4.74      0.00
    8    0    6     -9.93      0.00
    9    0    6     -3.79      0.00
   10    0    6      0.20      0.00
   11    0    6      4.08      0.00
  -13    1    6     -3.44      0.00
  -12    1    6     -0.61      0.00
  -11    1    6     -5.46      0.00
  -10    1    6     -4.26      0.00
   -9    1    6     -4.52      0.00
   -8    1    6     -1.52      0.00
   -7    1    6     -0.85      0.00
   -6    1    6      2.04      0.00
   -5    1    6     -2.27      0.00
   -4    1    6      4.49      0.00
   -3    1    6     -2.13      0.00
   -2    1    6      4.41      0.00
   -1    1    6     -1.91      0.00
    0    1    6      1.62      0.00
    1    1    6     -2.83      0.00
    2    1    6     -1.92      0.00
    3    1    6     -3.56      0.00
    4    1    6     -5.58      0.00
    5    1    6     -5.29      0.00
    6    1    6      1.00      0.00
    7    1    6      0.08      0.00
    8    1    6      5.23      0.00
    9    1    6      0.00      0.00
   10    1    6      2.30      0.00
   11    1    6     -2.82      0.00
  -13    2    6     -3.18      0.00
  -12    2    6      2.03      0.00
  -11    2    6     -4.15      0.00
  -10    2    6     -6.85      0.00
   -9    2    6      4.57      0.00
   -8    2    6      3.10      0.00
   -7    2    6     -2.94      0.00
   -6    2    6      1.03      0.00
   -5    2    6      2.15      0.00
   -4    2    6     -4.66      0.00
   -3    2    6     -5.98      0.00
   -2    2    6     -1.38      0.00
   -1    2    6     -4.33      0.00
    0    2    6     -2.00      0.00
    1    2    6     -0.96      0.00
    2    2    6     -6.31      0.00
    3    2    6      4.08      0.00
    4    2    6      4.83      0.00
    5    2    6     -1.99      0.00
    6    2    6     -0.14      0.00
    7    2    6     -3.62      0.00
    8    2    6     -5.20      0.00
    9    2    6     -4.67      0.00
   10    2    6      3.09      0.00
   11    2    6      3.56      0.00
  -13    3    6      5.74      0.00
  -12    3    6      0.21      0.00
  -11    3    6      1.58      0.00
  -10    3    6     -2.50      0.00
   -9    3    6     -1.35      0.00
   -8    3    6     -1.41      0.00
   -7    3    6      0.19      0.00
   -6    3    6     -2.83      0.00
   -5    3    6      0.47      0.00
   -4    3    6     -5.39      0.00
   -3    3    6     -0.31      0.00
   -2    3    6      1.34      0.00
   -1    3    6      8.28      0.00
    0    3    6      0.38      0.00
    1    3    6      7.09      0.00
    2    3    6      6.47      0.00
    3    3    6      2.68      0.00
    4    3    6     -2.48      0.00
    5    3    6     -1.83      0.00
    6    3    6     -1.67      0.00
    7    3    6      7.18      0.00
    8    3    6      3.75      0.00
    9    3    6      3.69      0.00
   10    3    6     -1.68      0.00
  -13    4    6     -0.32      0.00
  -12    4    6      1.65      0.00
  -11    4    6     -7.04      0.00
  -10    4    6     -7.09      0.00
   -9    4    6     -3.28      0.00
   -8    4    6     -5.02      0.00
   -7    4    6     -7.14      0.00
   -6    4    6      0.46      0.00
   -5    4    6      8.20      0.00
   -4    4    6      3.13      0.00
   -3    4    6      3.09      0.00
   -2    4    6      4.42      0.00
   -1    4    6      3.21      0.00
    0    4    6      6.75      0.00
    1    4    6      0.63      0.00
    2    4    6     -0.55      0.00
    3    4    6      4.09      0.00
    4    4    6      2.29      0.00
    5    4    6     -1.78      0.00
    6    4    6     -4.07      0.00
    7    4    6     -0.77      0.00
    8    4    6     -2.12      0.00
    9    4    6      0.45      0.00
   10    4    6     -0.99      0.00
  -13    5    6     -3.82      0.00
  -12    5    6     -0.80      0.00
  -11    5    6     -4.10      0.00
  -10    5    6     -1.72      0.00
   -9    5    6     -0.71      0.00
   -8    5    6     -0.52      0.00
   -7    5    6     -1.83      0.00
   -6    5    6      1.44      0.00
   -5    5    6     -2.61      0.00
   -4    5    6      1.36      0.00
   -3    5    6     -4.80      0.00
   -2    5    6      4.90      0.00
   -1    5    6      1.06      0.00
    0    5    6     -2.61      0.00
    1    5    6     -3.07      0.00
    2    5    6      0.74      0.00
    3    5    6     -0.10      0.00
    4    5    6     -1.25      0.00
    5    5    6     -1.82      0.00
    6    5    6      2.69      0.00
    7    5    6     -0.86      0.00
    8    5    6      1.74      0.00
    9    5    6     -3.93      0.00
   10    5    6     -0.52      0.00
  -13    6    6     -0.16      0.00
  -12    6    6      2.45      0.00
  -11    6    6     -2.48      0.00
  -10    6    6     -3.09      0.00
   -9    6    6      1.51      0.00
   -8    6    6     -1.73      0.00
   -7    6    6     -2.58      0.00
   -6    6    6      5.24      0.00
   -5    6    6      6.79      0.00
   -4    6    6      0.52      0.00
   -3    6    6     -0.24      0.00
   -2    6    6     -2.90      0.00
   -1    6    6     -3.99      0.00
    0    6    6     -0.19      0.00
    1    6    6     -4.27      0.00
    2    6    6     -5.58      0.00
    3    6    6      3.07      0.00
    4    6    6      3.21      0.00
    5    6    6     -2.85      0.00
    6    6    6     -0.91      0.00
    7    6    6     -1.22      0.00
    8    6    6      1.76      0.00
    9    6    6     -1.54      0.00
   10    6    6     -0.84      0.00
  -13    7    6      2.35      0.00
  -12    7    6      0.97      0.00
  -11    7    6      2.94      0.00
  -10    7    6      3.08      0.00
   -9    7    6      5.78      0.00
   -8    7    6      0.43      0.00
   -7    7    6     -0.09      0.00
   -6    7    6     -0.81      0.00
   -5    7    6      2.44      0.00
   -4    7    6     -5.35      0.00
   -3    7    6     -3.59      0.00
   -2    7    6      2.14      0.00
   -1    7    6      2.92      0.00
    0    7    6     -2.81      0.00
    1    7    6      1.80      0.00
    2    7    6      3.62      0.00
    3    7    6      7.60      0.00
    4    7    6      5.06      0.00
    5    7    6      5.35      0.00
    6    7    6      1.46      0.00
    7    7    6      0.45      0.00
    8    7    6     -5.21      0.00
    9    7    6     -0.90      0.00
   10    7    6     -3.87      0.00
  -12    8    6      1.23      0.00
  -11    8    6     -5.55      0.00
  -10    8    6     -3.97      0.00
   -9    8    6      0.20      0.00
   -8    8    6     -1.02      0.00
   -7    8    6     -3.33      0.00
   -6    8    6      1.17      0.00
   -5    8    6      2.06      0.00
   -4    8    6     -0.49      0.00
   -3    8    6     -0.79      0.00
   -2    8    6      0.93      0.00
   -1    8    6      4.09      0.00
    0    8    6      4.19      0.00
    1    8    6      0.69      0.00
    2    8    6     -3.92      0.00
    3    8    6      3.82      0.00
    4    8    6      3.60      0.00
    5    8    6     -2.37      0.00
    6    8    6     -5.26      0.00
    7    8    6     -0.69      0.00
    8    8    6     -1.02      0.00
    9    8    6     -1.21      0.00
   10    8    6     -3.04      0.00
  -12    9    6      1.42      0.00
  -11    9    6     -3.45      0.00
  -10    9    6     -2.21      0.00
   -9    9    6      0.48      0.00
   -8    9    6     -0.43      0.00
   -7    9    6     -1.57      0.00
   -6    9    6      3.43      0.00
   -5    9    6      0.87      0.00
   -4    9    6      1.07      0.00
   -3    9    6     -2.84      0.00
   -2    9    6      1.22      0.00
   -1    9    6      0.71      0.00
    0    9    6     -4.12      0.00
    1    9    6     -3.06      0.00
    2    9    6     -0.60      0.00
    3    9    6     -1.76      0.00
    4    9    6      1.55      0.00
    5    9    6     -0.49      0.00
    6    9    6      1.47      0.00
    7    9    6     -3.23      0.00
    8    9    6      1.52      0.00
    9    9    6     -0.44      0.00
   10    9    6      1.37      0.00
  -12   10    6      2.25      0.00
  -11   10    6     -1.82      0.00
  -10   10    6     -1.38      0.00
   -9   10    6      2.82      0.00
   -8   10    6      2.72      0.00
   -7   10    6      0.26      0.00
   -6   10    6      1.26      0.00
   -5   10    6      0.50      0.00
   -4   10    6     -4.47      0.00
   -3   10    6     -1.30      0.00
   -2   10    6     -3.07      0.00
   -1   10    6     -3.26      0.00
    0   10    6      0.39      0.00
    1   10    6     -6.28      0.00
    2   10    6     -3.24      0.00
    3   10    6      1.87      0.00
    4   10    6      5.02      0.00
    5   10    6      1.05      0.00
    6   10    6     -0.83      0.00
    7   10    6     -0.81      0.00
    8   10    6      1.48      0.00
    9   10    6     -1.10      0.00
   10   10    6     -0.14      0.00
  -12   11    6      3.12      0.00
  -11   11    6     -0.56      0.00
  -10   11    6     -2.33      0.00
   -9   11    6      0.93      0.00
   -8   11    6     -0.68      0.00
   -7   11    6      1.88      0.00
   -6   11    6      0.58      0.00
   -5   11    6      2.37      0.00
   -4   11    6     -3.36      0.00
   -3   11    6     -2.97      0.00
   -2   11    6      0.62      0.00
   -1   11    6     -1.85      0.00
    0   11    6     -0.37      0.00
    1   11    6      0.51      0.00
    2   11    6     -0.21      0.00
    3   11    6      3.08      0.00
    4   11    6     -1.04      0.00
    5   11    6     -0.39      0.00
    6   11    6     -1.67      0.00
    7   11    6      0.34      0.00
    8   11    6      0.75      0.00
    9   11    6      4.83      0.00
   10   11    6      0.15      0.00
  -12   12    6      1.65      0.00
  -11   12    6     -1.63      0.00
  -10   12    6     -2.72      0.00
   -9   12    6     -0.19      0.00
   -8   12    6     -1.30      0.00
   -7   12    6     -2.85      0.00
   -6   12    6      0.09      0.00
   -5   12    6     -0.62      0.00
   -4   12    6     -0.26      0.00
   -3   12    6     -0.48      0.00
   -2   12    6      1.35      0.00
   -1   12    6      0.76      0.00
    0   12    6     -0.86      0.00
    1   12    6      3.23      0.00
    2   12    6     -3.17      0.00
    3   12    6      2.44      0.00
    4   12    6      5.40      0.00
    5   12    6      1.42      0.00
    6   12    6     -2.01      0.00
    7   12    6      1.05      0.00
    8   12    6     -0.60      0.00
    9   12    6     -0.15      0.00
   10   12    6      1.27      0.00
  -12   13    6      2.02      0.00
  -11   13    6     -2.29      0.00
  -10   13    6     -3.03      0.00
   -9   13    6     -0.89      0.00
   -8   13    6      0.99      0.00
   -7   13    6      0.15      0.00
   -6   13    6      1.72      0.00
   -5   13    6     -1.12      0.00
   -4   13    6     -0.10      0.00
   -3   13    6     -1.29      0.00
   -2   13    6     -1.27      0.00
   -1   13    6      1.11      0.00
    0   13    6     -4.19      0.00
    1   13    6     -2.97      0.00
    2   13    6     -0.04      0.00
    3   13    6     -3.05      0.00
    4   13    6      1.67      0.00
    5   13    6     -1.13      0.00
    6   13    6     -1.17      0.00
    7   13    6     -2.51      0.00
    8   13    6      2.27      0.00
    9   13    6     -1.66      0.00
  -11   14    6      0.85      0.00
  -10   14    6      0.39      0.00
   -9   14    6     -0.45      0.00
   -8   14    6     -0.56      0.00
   -7   14    6     -0.17      0.00
   -6   14    6      1.86      0.00
   -5   14    6      2.63      0.00
   -4   14    6     -1.98      0.00
   -3   14    6      1.26      0.00
   -2   14    6     -1.27      0.00
   -1   14    6     -4.61      0.00
    0   14    6      1.65      0.00
    1   14    6     -1.87      0.00
    2   14    6      1.34      0.00
    3   14    6     -0.23      0.00
    4   14    6      2.82      0.00
    5   14    6      4.36      0.00
    6   14    6      0.02      0.00
    7   14    6     -0.86      0.00
    8   14    6      0.40      0.00
    9   14    6     -0.87      0.00
  -11   15    6     -0.12      0.00
  -10   15    6      0.49      0.00
   -9   15    6      1.25      0.00
   -8   15    6     -0.01      0.00
   -7   15    6      2.06      0.00
   -6   15    6     -0.15      0.00
   -5   15    6      1.48      0.00
   -4   15    6     -1.67      0.00
   -3   15    6     -1.87      0.00
   -2   15    6      1.56      0.00
   -1   15    6     -0.80      0.00
    0   15    6     -1.04      0.00
    1   15    6     -2.51      0.00
    2   15    6     -2.21      0.00
    3   15    6      4.02      0.00
    4   15    6      1.25      0.00
    5   15    6      2.15      0.00
    6   15    6     -0.41      0.00
    7   15    6     -1.33      0.00
    8   15    6     -2.88      0.00
    9   15    6     -2.37      0.00
  -11   16    6     -0.85      0.00
  -10   16    6     -0.74      0.00
   -9   16    6      0.34      0.00
   -8   16    6     -2.11      0.00
   -7   16    6     -1.70      0.00
   -6   16    6      1.19      0.00
   -5   16    6     -0.54      0.00
   -4   16    6     -2.02      0.00
   -3   16    6     -2.37      0.00
   -2   16    6     -0.80      0.00
   -1   16    6     -0.96      0.00
    0   16    6      1.00      0.00
    1   16    6      5.64      0.00
    2   16    6     -1.41      0.00
    3   16    6     -0.38      0.00
    4   16    6      2.76      0.00
    5   16    6      0.64      0.00
    6   16    6     -2.14      0.00
    7   16    6     -1.29      0.00
    8   16    6     -2.27      0.00
    9   16    6     -2.57      0.00
  -11   17    6     -0.45      0.00
  -10   17    6     -0.56      0.00
   -9   17    6     -0.68      0.00
   -8   17    6     -0.91      0.00
   -7   17    6     -2.07      0.00
   -6   17    6      0.53      0.00
   -5   17    6      0.01      0.00
   -4   17    6      0.75      0.00
   -3   17    6     -1.24      0.00
   -2   17    6      1.05      0.00
   -1   17    6      2.65      0.00
    0   17    6     -1.12      0.00
    1   17    6     -2.36      0.00
    2   17    6     -2.08      0.00
    3   17    6     -2.70      0.00
    4   17    6      1.80      0.00
    5   17    6     -0.57      0.00
    6   17    6     -0.24      0.00
    7   17    6     -0.38      0.00
    8   17    6      0.97      0.00
  -10   18    6      0.22      0.00
   -9   18    6      0.07      0.00
   -8   18    6     -0.12      0.00
   -7   18    6     -0.45      0.00
   -6   18    6      1.33      0.00
   -5   18    6      2.01      0.00
   -4   18    6     -1.50      0.00
   -3   18    6      0.11      0.00
   -2   18    6     -0.65      0.00
   -1   18    6     -2.19      0.00
    0   18    6      2.20      0.00
    1   18    6      0.34      0.00
    2   18    6      0.25      0.00
    3   18    6     -1.29      0.00
    4   18    6      0.90      0.00
    5   18    6      2.61      0.00
    6   18    6     -1.71      0.00
    7   18    6     -0.75      0.00
    8   18    6      0.64      0.00
  -10   19    6      0.79      0.00
   -9   19    6     -0.15      0.00
   -8   19    6     -1.92      0.00
   -7   19    6     -0.52      0.00
   -6   19    6     -0.86      0.00
   -5   19    6      1.24      0.00
   -4   19    6     -0.84      0.00
   -3   19    6     -1.33      0.00
   -2   19    6     -0.59      0.00
   -1   19    6      0.22      0.00
    0   19    6      0.91      0.00
    1   19    6     -0.09      0.00
    2   19    6     -3.91      0.00
    3   19    6      0.45      0.00
    4   19    6     -1.75      0.00
    5   19    6     -1.80      0.00
    6   19    6     -0.83      0.00
    7   19    6      1.20      0.00
    8   19    6      1.44      0.00
  -10   20    6     -0.43      0.00
   -9   20    6      0.90      0.00
   -8   20    6     -1.39      0.00
   -7   20    6     -1.91      0.00
   -6   20    6      1.17      0.00
   -5   20    6      1.27      0.00
   -4   20    6     -0.56      0.00
   -3   20    6      0.40      0.00
   -2   20    6      0.34      0.00
   -1   20    6     -0.92      0.00
    0   20    6      0.04      0.00
    1   20    6      2.08      0.00
    2   20    6     -0.94      0.00
    3   20    6     -1.40      0.00
    4   20    6      2.42      0.00
    5   20    6     -0.60      0.00
    6   20    6     -1.62      0.00
    7   20    6      0.51      0.00
   -9   21    6      1.11      0.00
   -8   21    6     -0.13      0.00
   -7   21    6     -1.72      0.00
   -6   21    6     -0.55      0.00
   -5   21    6     -0.52      0.00
   -4   21    6      0.59      0.00
   -3   21    6     -0.94      0.00
   -2   21    6      0.89      0.00
   -1   21    6     -0.85      0.00
    0   21    6      2.57      0.00
    1   21    6      1.08      0.00
    2   21    6     -1.23      0.00
    3   21    6     -0.08      0.00
    4   21    6      1.86      0.00
    5   21    6     -0.89      0.00
    6   21    6     -0.02      0.00
    7   21    6      1.20      0.00
   -9   22    6      0.22      0.00
   -8   22    6     -0.54      0.00
   -7   22    6     -1.55      0.00
   -6   22    6      1.59      0.00
   -5   22    6      2.41      0.00
   -4   22    6      0.09      0.00
   -3   22    6      1.11      0.00
   -2   22    6      2.97      0.00
   -1   22    6      0.27      0.00
    0   22    6     -1.27      0.00
    1   22    6      2.48      0.00
    2   22    6     -0.44      0.00
    3   22    6     -0.84      0.00
    4   22    6      1.23      0.00
    5   22    6      1.06      0.00
    6   22    6     -1.64      0.00
    7   22    6      0.81      0.00
   -8   23    6      0.45      0.00
   -7   23    6      0.53      0.00
   -6   23    6      0.39      0.00
   -5   23    6      0.97      0.00
   -4   23    6     -0.54      0.00
   -3   23    6      0.73      0.00
   -2   23    6     -1.80      0.00
   -1   23    6      0.99      0.00
    0   23    6     -0.40      0.00
    1   23    6      0.43      0.00
    2   23    6      0.08      0.00
    3   23    6      1.18      0.00
    4   23    6      1.82      0.00
    5   23    6      1.16      0.00
    6   23    6      0.21      0.00
   -8   24    6     -0.44      0.00
   -7   24    6     -1.99      0.00
   -6   24    6      0.57      0.00
   -5   24    6      0.29      0.00
   -4   24    6     -3.64      0.00
   -3   24    6      0.05      0.00
   -2   24    6      2.54      0.00
   -1   24    6      1.59      0.00
    0   24    6      1.86      0.00
    1   24    6      0.28      0.00
    2   24    6      1.51      0.00
    3   24    6     -0.69      0.00
    4   24    6      1.06      0.00
    5   24    6     -0.36      0.00
    6   24    6     -1.46      0.00
   -7   25    6      0.28      0.00
   -6   25    6      0.63      0.00
   -5   25    6      0.54      0.00
   -4   25    6     -1.54      0.00
   -3   25    6     -2.12      0.00
   -2   25    6      1.46      0.00
   -1   25    6     -1.16      0.00
    0   25    6      1.94      0.00
    1   25    6      0.33      0.00
    2   25    6     -0.06      0.00
    3   25    6      0.85      0.00
    4   25    6      0.12      0.00
    5   25    6      0.17      0.00
   -7   26    6     -1.25      0.00
   -6   26    6      0.18      0.00
   -5   26    6      0.99      0.00
   -4   26    6     -1.13      0.00
   -3   26    6     -0.64      0.00
   -2   26    6      4.57      0.00
   -1   26    6      4.51      0.00
    0   26    6      0.20      0.00
    1   26    6      2.04      0.00
    2   26    6     -0.75      0.00
    3   26    6      0.86      0.00
    4   26    6      0.55      0.00
   -6   27    6      1.20      0.00
   -5   27    6      0.29      0.00
   -4   27    6     -2.59      0.00
   -3   27    6     -2.08      0.00
   -2   27    6     -2.31      0.00
   -1   27    6      1.70      0.00
    0   27    6     -0.99      0.00
    1   27    6      0.34      0.00
    2   27    6      2.17      0.00
    3   27    6     -2.02      0.00
    4   27    6     -1.72      0.00
   -5   28    6      1.52      0.00
   -4   28    6     -0.73      0.00
   -3   28    6     -0.25      0.00
   -2   28    6      1.14      0.00
   -1   28    6      2.58      0.00
    0   28    6      3.02      0.00
    1   28    6     -3.46      0.00
    2   28    6      1.08      0.00
    3   28    6      0.96      0.00
   -4   29    6     -2.03      0.00
   -3   29    6     -1.78      0.00
   -2   29    6      0.07      0.00
   -1   29    6     -2.20      0.00
    0   29    6      0.95      0.00
    1   29    6      1.61      0.00
  -13    0    7      6.23      0.00
  -12    0    7      2.42      0.00
  -11    0    7      7.94      0.00
  -10    0    7      7.42      0.00
   -9    0    7      3.03      0.00
   -8    0    7     -2.25      0.00
   -7    0    7     -1.00      0.00
   -6    0    7      1.33      0.00
   -5    0    7      8.30      0.00
   -4    0    7      4.15      0.00
   -3    0    7      6.86      0.00
   -2    0    7     -7.51      0.00
   -1    0    7     -0.40      0.00
    0    0    7     -3.67      0.00
    1    0    7     -2.58      0.00
    2    0    7      0.23      0.00
    3    0    7     -1.10      0.00
    4    0    7     -2.49      0.00
    5    0    7      7.52      0.00
    6    0    7      1.73      0.00
    7    0    7      2.40      0.00
    8    0    7      3.75      0.00
    9    0    7     12.02      0.00
   10    0    7     -0.20      0.00
  -13    1    7      0.71      0.00
  -12    1    7      4.24      0.00
  -11    1    7      3.06      0.00
  -10    1    7      5.49      0.00
   -9    1    7      3.71      0.00
   -8    1    7      2.60      0.00
   -7    1    7      0.90      0.00
   -6    1    7     -0.30      0.00
   -5    1    7     -0.03      0.00
   -4    1    7      1.05      0.00
   -3    1    7     -0.13      0.00
   -2    1    7     -0.34      0.00
   -1    1    7     -1.90      0.00
    0    1    7      1.44      0.00
    1    1    7     -0.38      0.00
    2    1    7      1.71      0.00
    3    1    7      3.06      0.00
    4    1    7      4.24      0.00
    5    1    7      5.53      0.00
    6    1    7      0.36      0.00
    7    1    7     -2.72      0.00
    8    1    7     -3.35      0.00
    9    1    7     -2.07      0.00
   10    1    7     -0.74      0.00
  -13    2    7      1.31      0.00
  -12    2    7      3.19      0.00
  -11    2    7      1.88      0.00
  -10    2    7      3.75      0.00
   -9    2    7     -1.58      0.00
   -8    2    7     -1.54      0.00
   -7    2    7     -4.80      0.00
   -6    2    7      1.55      0.00
   -5    2    7     -1.10      0.00
   -4    2    7      7.29      0.00
   -3    2    7      3.50      0.00
   -2    2    7      0.98      0.00
   -1    2    7      0.09      0.00
    0    2    7      4.96      0.00
    1    2    7     -1.26      0.00
    2    2    7      2.37      0.00
    3    2    7     -1.80      0.00
    4    2    7     -2.97      0.00
    5    2    7      1.35      0.00
    6    2    7      4.94      0.00
    7    2    7     -5.52      0.00
    8    2    7      4.91      0.00
    9    2    7      6.62      0.00
   10    2    7      2.39      0.00
  -12    3    7     -2.80      0.00
  -11    3    7      2.48      0.00
  -10    3    7      1.87      0.00
   -9    3    7      1.54      0.00
   -8    3    7      0.78      0.00
   -7    3    7      0.95      0.00
   -6    3    7      1.17      0.00
   -5    3    7      2.99      0.00
   -4    3    7      0.76      0.00
   -3    3    7      3.74      0.00
   -2    3    7     -2.18      0.00
   -1    3    7     -7.10      0.00
    0    3    7     -4.94      0.00
    1    3    7     -3.51      0.00
    2    3    7     -7.64      0.00
    3    3    7     -3.79      0.00
    4    3    7      4.22      0.00
    5    3    7      2.99      0.00
    6    3    7      1.43      0.00
    7    3    7     -2.68      0.00
    8    3    7     -4.67      0.00
    9    3    7     -3.67      0.00
   10    3    7      1.01      0.00
  -12    4    7     -0.64      0.00
  -11    4    7      4.81      0.00
  -10    4    7      4.96      0.00
   -9    4    7      6.17      0.00
   -8    4    7      5.87      0.00
   -7    4    7      4.35      0.00
   -6    4    7     -1.82      0.00
   -5    4    7      0.65      0.00
   -4    4    7     -3.95      0.00
   -3    4    7     -1.15      0.00
   -2    4    7     -6.17      0.00
   -1    4    7     -0.18      0.00
    0    4    7     -5.40      0.00
    1    4    7     -2.19      0.00
    2    4    7      1.28      0.00
    3    4    7     -2.23      0.00
    4    4    7     -3.74      0.00
    5    4    7      6.55      0.00
    6    4    7      0.23      0.00
    7    4    7     -0.19      0.00
    8    4    7     -1.47      0.00
    9    4    7      6.48      0.00
   10    4    7     -2.19      0.00
  -12    5    7      4.97      0.00
  -11    5    7      2.86      0.00
  -10    5    7      2.39      0.00
   -9    5    7     -0.98      0.00
   -8    5    7      0.63      0.00
   -7    5    7      1.86      0.00
   -6    5    7      0.99      0.00
   -5    5    7      0.99      0.00
   -4    5    7      2.33      0.00
   -3    5    7      1.50      0.00
   -2    5    7     -1.61      0.00
   -1    5    7     -2.43      0.00
    0    5    7      4.15      0.00
    1    5    7      3.35      0.00
    2    5    7     -0.85      0.00
    3    5    7     -2.11      0.00
    4    5    7     -0.55      0.00
    5    5    7      1.19      0.00
    6    5    7     -1.43      0.00
    7    5    7     -0.62      0.00
    8    5    7      0.59      0.00
    9    5    7     -0.41      0.00
   10    5    7      1.41      0.00
  -12    6    7      0.16      0.00
  -11    6    7      0.54      0.00
  -10    6    7      0.75      0.00
   -9    6    7     -0.80      0.00
   -8    6    7      3.92      0.00
   -7    6    7     -0.55      0.00
   -6    6    7     -1.87      0.00
   -5    6    7     -5.30      0.00
   -4    6    7      0.26      0.00
   -3    6    7     -2.03      0.00
   -2    6    7      1.20      0.00
   -1    6    7      2.32      0.00
    0    6    7      2.62      0.00
    1    6    7      0.83      0.00
    2    6    7      6.18      0.00
    3    6    7     -3.58      0.00
    4    6    7     -4.08      0.00
    5    6    7      0.88      0.00
    6    6    7      3.76      0.00
    7    6    7     -5.58      0.00
    8    6    7      1.64      0.00
    9    6    7      2.63      0.00
   10    6    7      1.46      0.00
  -12    7    7     -1.03      0.00
  -11    7    7     -0.36      0.00
  -10    7    7     -3.42      0.00
   -9    7    7     -6.63      0.00
   -8    7    7     -2.79      0.00
   -7    7    7      1.78      0.00
   -6    7    7      0.12      0.00
   -5    7    7      1.55      0.00
   -4    7    7     -0.46      0.00
   -3    7    7      2.98      0.00
   -2    7    7     -1.49      0.00
   -1    7    7     -2.54      0.00
    0    7    7      4.15      0.00
    1    7    7      0.61      0.00
    2    7    7     -3.12      0.00
    3    7    7     -6.14      0.00
    4    7    7     -5.90      0.00
    5    7    7     -4.64      0.00
    6    7    7     -1.38      0.00
    7    7    7      2.55      0.00
    8    7    7      4.63      0.00
    9    7    7      1.07      0.00
  -12    8    7     -0.63      0.00
  -11    8    7      5.14      0.00
  -10    8    7      2.41      0.00
   -9    8    7      1.68      0.00
   -8    8    7      1.72      0.00
   -7    8    7      3.29      0.00
   -6    8    7     -1.25      0.00
   -5    8    7      2.90      0.00
   -4    8    7      0.60      0.00
   -3    8    7     -2.02      0.00
   -2    8    7     -2.08      0.00
   -1    8    7      0.14      0.00
    0    8    7     -2.38      0.00
    1    8    7      1.66      0.00
    2    8    7      2.96      0.00
    3    8    7     -0.90      0.00
    4    8    7     -5.60      0.00
    5    8    7      3.42      0.00
    6    8    7      1.83      0.00
    7    8    7      1.84      0.00
    8    8    7     -0.87      0.00
    9    8    7      7.03      0.00
  -12    9    7      3.11      0.00
  -11    9    7      2.18      0.00
  -10    9    7      1.90      0.00
   -9    9    7     -1.47      0.00
   -8    9    7      0.09      0.00
   -7    9    7      1.31      0.00
   -6    9    7      0.16      0.00
   -5    9    7     -2.22      0.00
   -4    9    7      1.23      0.00
   -3    9    7     -0.21      0.00
   -2    9    7     -0.69      0.00
   -1    9    7      2.68      0.00
    0    9    7      3.56      0.00
    1    9    7      3.60      0.00
    2    9    7      0.61      0.00
    3    9    7      2.02      0.00
    4    9    7      1.40      0.00
    5    9    7      0.76      0.00
    6    9    7     -1.21      0.00
    7    9    7      1.77      0.00
    8    9    7      2.10      0.00
    9    9    7     -2.41      0.00
  -12   10    7      0.30      0.00
  -11   10    7      1.91      0.00
  -10   10    7      0.08      0.00
   -9   10    7     -3.57      0.00
   -8   10    7     -0.55      0.00
   -7   10    7     -1.70      0.00
   -6   10    7      0.04      0.00
   -5   10    7      0.73      0.00
   -4   10    7      4.13      0.00
   -3   10    7      0.18      0.00
   -2   10    7     -1.61      0.00
   -1   10    7      2.76      0.00
    0   10    7      3.58      0.00
    1   10    7      0.92      0.00
    2   10    7      5.18      0.00
    3   10    7     -3.18      0.00
    4   10    7     -4.75      0.00
    5   10    7     -2.82      0.00
    6   10    7      2.35      0.00
    7   10    7     -3.73      0.00
    8   10    7      1.11      0.00
    9   10    7      2.04      0.00
  -12   11    7     -2.29      0.00
  -11   11    7      1.08      0.00
  -10   11    7      2.66      0.00
   -9   11    7     -1.22      0.00
   -8   11    7     -0.66      0.00
   -7   11    7      0.57      0.00
   -6   11    7     -1.04      0.00
   -5   11    7      0.97      0.00
   -4   11    7     -0.82      0.00
   -3   11    7      2.56      0.00
   -2   11    7      1.50      0.00
   -1   11    7      0.36      0.00
    0   11    7      3.72      0.00
    1   11    7     -4.33      0.00
    2   11    7     -2.22      0.00
    3   11    7      1.81      0.00
    4   11    7      3.02      0.00
    5   11    7      2.76      0.00
    6   11    7      0.15      0.00
    7   11    7      0.58      0.00
    8   11    7      0.07      0.00
    9   11    7     -2.48      0.00
  -11   12    7      1.81      0.00
  -10   12    7      0.98      0.00
   -9   12    7      1.34      0.00
   -8   12    7      1.02      0.00
   -7   12    7      2.99      0.00
   -6   12    7     -0.28      0.00
   -5   12    7      2.61      0.00
   -4   12    7      3.02      0.00
   -3   12    7     -1.65      0.00
   -2   12    7     -2.47      0.00
   -1   12    7     -0.07      0.00
    0   12    7      0.44      0.00
    1   12    7     -1.09      0.00
    2   12    7     -2.52      0.00
    3   12    7      1.47      0.00
    4   12    7     -4.67      0.00
    5   12    7     -1.95      0.00
    6   12    7      0.74      0.00
    7   12    7      0.66      0.00
    8   12    7     -3.10      0.00
    9   12    7      3.81      0.00
  -11   13    7      1.52      0.00
  -10   13    7      2.12      0.00
   -9   13    7      1.11      0.00
   -8   13    7     -0.32      0.00
   -7   13    7     -0.76      0.00
   -6   13    7      1.59      0.00
   -5   13    7     -0.40      0.00
   -4   13    7      1.35      0.00
   -3   13    7     -0.77      0.00
   -2   13    7      0.22      0.00
   -1   13    7      3.60      0.00
    0   13    7      2.15      0.00
    1   13    7      2.01      0.00
    2   13    7     -3.38      0.00
    3   13    7      2.04      0.00
    4   13    7      5.15      0.00
    5   13    7     -0.05      0.00
    6   13    7     -1.96      0.00
    7   13    7      1.98      0.00
    8   13    7      1.23      0.00
    9   13    7     -1.01      0.00
  -11   14    7     -0.82      0.00
  -10   14    7     -1.26      0.00
   -9   14    7     -1.44      0.00
   -8   14    7      2.50      0.00
   -7   14    7     -0.38      0.00
   -6   14    7     -1.62      0.00
   -5   14    7     -1.81      0.00
   -4   14    7      2.00      0.00
   -3   14    7      1.09      0.00
   -2   14    7     -2.30      0.00
   -1   14    7      3.66      0.00
    0   14    7      3.10      0.00
    1   14    7     -2.76      0.00
    2   14    7      0.43      0.00
    3   14    7     -1.65      0.00
    4   14    7     -1.26      0.00
    5   14    7     -3.27      0.00
    6   14    7      0.56      0.00
    7   14    7     -1.81      0.00
    8   14    7     -0.20      0.00
  -11   15    7      0.30      0.00
  -10   15    7      0.89      0.00
   -9   15    7     -1.85      0.00
   -8   15    7     -0.98      0.00
   -7   15    7     -0.36      0.00
   -6   15    7     -0.01      0.00
   -5   15    7      1.85      0.00
   -4   15    7     -1.69      0.00
   -3   15    7      0.32      0.00
   -2   15    7      0.03      0.00
   -1   15    7     -0.08      0.00
    0   15    7      5.29      0.00
    1   15    7     -0.89      0.00
    2   15    7     -1.82      0.00
    3   15    7      0.25      0.00
    4   15    7     -0.72      0.00
    5   15    7     -2.44      0.00
    6   15    7     -2.79      0.00
    7   15    7      2.50      0.00
    8   15    7      3.89      0.00
  -11   16    7      0.19      0.00
  -10   16    7      0.03      0.00
   -9   16    7      0.19      0.00
   -8   16    7      1.25      0.00
   -7   16    7      2.42      0.00
   -6   16    7     -1.29      0.00
   -5   16    7      0.06      0.00
   -4   16    7      2.99      0.00
   -3   16    7      1.29      0.00
   -2   16    7     -0.54      0.00
   -1   16    7      2.30      0.00
    0   16    7      1.27      0.00
    1   16    7     -2.17      0.00
    2   16    7     -4.38      0.00
    3   16    7      1.52      0.00
    4   16    7     -0.98      0.00
    5   16    7     -0.65      0.00
    6   16    7      2.21      0.00
    7   16    7      2.46      0.00
    8   16    7     -1.07      0.00
  -10   17    7      0.10      0.00
   -9   17    7      0.85      0.00
   -8   17    7      0.07      0.00
   -7   17    7      0.46      0.00
   -6   17    7      1.90      0.00
   -5   17    7      0.25      0.00
   -4   17    7      0.04      0.00
   -3   17    7     -0.83      0.00
   -2   17    7     -0.93      0.00
   -1   17    7      0.07      0.00
    0   17    7      0.67      0.00
    1   17    7      1.96      0.00
    2   17    7      0.49      0.00
    3   17    7      2.61      0.00
    4   17    7      3.35      0.00
    5   17    7     -2.87      0.00
    6   17    7     -2.31      0.00
    7   17    7      1.98      0.00
    8   17    7      1.61      0.00
  -10   18    7      0.03      0.00
   -9   18    7     -1.13      0.00
   -8   18    7      1.48      0.00
   -7   18    7      0.35      0.00
   -6   18    7     -1.11      0.00
   -5   18    7     -2.16      0.00
   -4   18    7      1.02      0.00
   -3   18    7     -0.15      0.00
   -2   18    7     -1.65      0.00
   -1   18    7      2.51      0.00
    0   18    7      3.35      0.00
    1   18    7     -2.09      0.00
    2   18    7     -1.24      0.00
    3   18    7     -1.38      0.00
    4   18    7      0.60      0.00
    5   18    7      0.17      0.00
    6   18    7      1.20      0.00
    7   18    7      0.19      0.00
  -10   19    7      0.63      0.00
   -9   19    7     -1.08      0.00
   -8   19    7      0.35      0.00
   -7   19    7      1.10      0.00
   -6   19    7      0.61      0.00
   -5   19    7      1.13      0.00
   -4   19    7     -0.57      0.00
   -3   19    7      1.48      0.00
   -2   19    7      1.72      0.00
   -1   19    7      0.28      0.00
    0   19    7     -0.53      0.00
    1   19    7     -1.19      0.00
    2   19    7      2.25      0.00
    3   19    7      3.98      0.00
    4   19    7      1.00      0.00
    5   19    7      0.76      0.00
    6   19    7     -0.76      0.00
    7   19    7      0.06      0.00
   -9   20    7      0.08      0.00
   -8   20    7      0.13      0.00
   -7   20    7      1.86      0.00
   -6   20    7     -0.67      0.00
   -5   20    7     -1.19      0.00
   -4   20    7      0.51      0.00
   -3   20    7     -0.62      0.00
   -2   20    7     -3.22      0.00
   -1   20    7      3.20      0.00
    0   20    7      2.32      0.00
    1   20    7     -2.28      0.00
    2   20    7     -2.80      0.00
    3   20    7      1.21      0.00
    4   20    7      0.53      0.00
    5   20    7      0.74      0.00
    6   20    7      2.12      0.00
    7   20    7      0.47      0.00
   -9   21    7     -0.86      0.00
   -8   21    7     -0.55      0.00
   -7   21    7      1.84      0.00
   -6   21    7      2.00      0.00
   -5   21    7      0.51      0.00
   -4   21    7     -0.59      0.00
   -3   21    7      0.45      0.00
   -2   21    7      1.34      0.00
   -1   21    7     -0.27      0.00
    0   21    7     -0.70      0.00
    1   21    7     -1.65      0.00
    2   21    7      1.86      0.00
    3   21    7      1.63      0.00
    4   21    7      0.57      0.00
    5   21    7     -1.18      0.00
    6   21    7     -0.13      0.00
   -8   22    7      0.15      0.00
   -7   22    7      0.46      0.00
   -6   22    7     -0.77      0.00
   -5   22    7     -1.90      0.00
   -4   22    7      0.58      0.00
   -3   22    7     -2.99      0.00
   -2   22    7     -2.17      0.00
   -1   22    7      0.45      0.00
    0   22    7      2.98      0.00
    1   22    7     -2.42      0.00
    2   22    7     -2.01      0.00
    3   22    7      1.57      0.00
    4   22    7      0.53      0.00
    5   22    7     -0.13      0.00
    6   22    7      0.55      0.00
   -8   23    7     -0.09      0.00
   -7   23    7      1.27      0.00
   -6   23    7      0.84      0.00
   -5   23    7     -0.85      0.00
   -4   23    7     -0.74      0.00
   -3   23    7     -0.19      0.00
   -2   23    7      0.91      0.00
   -1   23    7      1.28      0.00
    0   23    7     -1.15      0.00
    1   23    7      1.92      0.00
    2   23    7      0.58      0.00
    3   23    7      0.20      0.00
    4   23    7     -1.69      0.00
    5   23    7     -0.88      0.00
   -7   24    7      0.15      0.00
   -6   24    7      0.67      0.00
   -5   24    7      0.50      0.00
   -4   24    7      1.85      0.00
   -3   24    7      0.04      0.00
   -2   24    7     -4.51      0.00
   -1   24    7      1.53      0.00
    0   24    7     -0.72      0.00
    1   24    7     -3.80      0.00
    2   24    7     -0.61      0.00
    3   24    7      0.30      0.00
    4   24    7      0.14      0.00
    5   24    7     -0.17      0.00
   -7   25    7      1.04      0.00
   -6   25    7      0.44      0.00
   -5   25    7     -0.16      0.00
   -4   25    7      0.41      0.00
   -3   25    7      1.73      0.00
   -2   25    7      0.35      0.00
   -1   25    7     -2.23      0.00
    0   25    7      1.34      0.00
    1   25    7     -0.52      0.00
    2   25    7      0.25      0.00
    3   25    7      0.41      0.00
    4   25    7      0.01      0.00
   -6   26    7      0.96      0.00
   -5   26    7      0.59      0.00
   -4   26    7      1.24      0.00
   -3   26    7     -2.26      0.00
   -2   26    7     -1.71      0.00
   -1   26    7     -2.74      0.00
    0   26    7     -1.58      0.00
    1   26    7     -1.13      0.00
    2   26    7     -1.68      0.00
    3   26    7      0.45      0.00
   -5   27    7     -0.64      0.00
   -4   27    7      2.52      0.00
   -3   27    7      2.69      0.00
   -2   27    7      0.97      0.00
   -1   27    7     -0.14      0.00
    0   27    7     -2.46      0.00
    1   27    7      1.04      0.00
    2   27    7     -1.73      0.00
   -3   28    7      0.18      0.00
   -2   28    7     -1.79      0.00
   -1   28    7      0.63      0.00
    0   28    7     -2.46      0.00
    1   28    7     -1.32      0.00
  -12    0    8     -6.11      0.00
  -11    0    8     -2.58      0.00
  -10    0    8    -10.70      0.00
   -9    0    8     -4.68      0.00
   -8    0    8      2.12      0.00
   -7    0    8      3.56      0.00
   -6    0    8     -4.06      0.00
   -5    0    8     -4.58      0.00
   -4    0    8     -7.31      0.00
   -3    0    8     -7.17      0.00
   -2    0    8      0.25      0.00
   -1    0    8      5.98      0.00
    0    0    8     -0.28      0.00
    1    0    8      3.48      0.00
    2    0    8      0.33      0.00
    3    0    8     -2.24      0.00
    4    0    8      0.79      0.00
    5    0    8     -6.67      0.00
    6    0    8     -4.65      0.00
    7    0    8      1.54      0.00
    8    0    8     -7.15      0.00
    9    0    8     -4.73      0.00
  -12    1    8     -2.86      0.00
  -11    1    8     -3.27      0.00
  -10    1    8     -5.16      0.00
   -9    1    8     -2.79      0.00
   -8    1    8     -3.66      0.00
   -7    1    8      0.35      0.00
   -6    1    8     -2.25      0.00
   -5    1    8      1.16      0.00
   -4    1    8     -2.21      0.00
   -3    1    8     -0.36      0.00
   -2    1    8     -2.67      0.00
   -1    1    8      4.13      0.00
    0    1    8     -0.14      0.00
    1    1    8      0.52      0.00
    2    1    8     -1.87      0.00
    3    1    8     -1.30      0.00
    4    1    8     -6.30      0.00
    5    1    8     -1.03      0.00
    6    1    8     -4.61      0.00
    7    1    8      4.33      0.00
    8    1    8      1.95      0.00
    9    1    8      3.59      0.00
  -12    2    8      1.79      0.00
  -11    2    8     -0.26      0.00
  -10    2    8     -4.73      0.00
   -9    2    8     -1.91      0.00
   -8    2    8      4.67      0.00
   -7    2    8      3.94      0.00
   -6    2    8      0.57      0.00
   -5    2    8     -3.30      0.00
   -4    2    8     -1.29      0.00
   -3    2    8     -7.95      0.00
   -2    2    8     -1.42      0.00
   -1    2    8      0.55      0.00
    0    2    8      0.68      0.00
    1    2    8     -0.03      0.00
    2    2    8     -0.57      0.00
    3    2    8      0.68      0.00
    4    2    8      1.97      0.00
    5    2    8     -2.74      0.00
    6    2    8     -0.41      0.00
    7    2    8      0.23      0.00
    8    2    8     -3.08      0.00
    9    2    8     -3.26      0.00
  -12    3    8      3.04      0.00
  -11    3    8     -0.50      0.00
  -10    3    8     -2.12      0.00
   -9    3    8     -4.11      0.00
   -8    3    8      0.35      0.00
   -7    3    8     -2.09      0.00
   -6    3    8      0.45      0.00
   -5    3    8     -4.53      0.00
   -4    3    8     -0.35      0.00
   -3    3    8     -3.25      0.00
   -2    3    8      1.52      0.00
   -1    3    8      4.94      0.00
    0    3    8     10.35      0.00
    1    3    8      3.47      0.00
    2    3    8      4.01      0.00
    3    3    8      1.69      0.00
    4    3    8      0.22      0.00
    5    3    8     -7.02      0.00
    6    3    8     -0.22      0.00
    7    3    8     -1.10      0.00
    8    3    8      3.74      0.00
    9    3    8      1.51      0.00
  -12    4    8     -1.77      0.00
  -11    4    8      1.49      0.00
  -10    4    8     -7.38      0.00
   -9    4    8     -7.10      0.00
   -8    4    8     -5.85      0.00
   -7    4    8     -2.70      0.00
   -6    4    8     -2.26      0.00
   -5    4    8      1.53      0.00
   -4    4    8      0.03      0.00
   -3    4    8      1.03      0.00
   -2    4    8      1.53      0.00
   -1    4    8      2.81      0.00
    0    4    8      2.58      0.00
    1    4    8      5.00      0.00
    2    4    8     -2.17      0.00
    3    4    8     -0.78      0.00
    4    4    8      4.63      0.00
    5    4    8     -2.87      0.00
    6    4    8     -2.02      0.00
    7    4    8      3.04      0.00
    8    4    8     -3.73      0.00
    9    4    8     -0.71      0.00
  -12    5    8     -3.73      0.00
  -11    5    8     -1.72      0.00
  -10    5    8     -2.33      0.00
   -9    5    8      0.91      0.00
   -8    5    8     -1.25      0.00
   -7    5    8     -0.78      0.00
   -6    5    8     -3.21      0.00
   -5    5    8     -0.72      0.00
   -4    5    8     -1.37      0.00
   -3    5    8     -1.22      0.00
   -2    5    8     -1.99      0.00
   -1    5    8      4.52      0.00
    0    5    8     -1.27      0.00
    1    5    8     -3.06      0.00
    2    5    8     -4.65      0.00
    3    5    8      3.01      0.00
    4    5    8      2.62      0.00
    5    5    8      4.45      0.00
    6    5    8     -3.86      0.00
    7    5    8      1.93      0.00
    8    5    8     -2.05      0.00
    9    5    8      2.06      0.00
  -12    6    8      4.64      0.00
  -11    6    8      2.40      0.00
  -10    6    8     -1.65      0.00
   -9    6    8     -2.05      0.00
   -8    6    8     -0.98      0.00
   -7    6    8     -1.82      0.00
   -6    6    8      2.44      0.00
   -5    6    8      0.83      0.00
   -4    6    8      3.85      0.00
   -3    6    8      0.91      0.00
   -2    6    8     -1.32      0.00
   -1    6    8     -3.69      0.00
    0    6    8     -0.52      0.00
    1    6    8      0.47      0.00
    2    6    8     -5.88      0.00
    3    6    8     -0.28      0.00
    4    6    8      6.31      0.00
    5    6    8      1.37      0.00
    6    6    8      1.15      0.00
    7    6    8      0.20      0.00
    8    6    8     -1.55      0.00
    9    6    8     -2.34      0.00
  -12    7    8     -0.38      0.00
  -11    7    8      2.35      0.00
  -10    7    8      3.96      0.00
   -9    7    8      2.89      0.00
   -8    7    8      4.13      0.00
   -7    7    8     -2.50      0.00
   -6    7    8      0.03      0.00
   -5    7    8     -1.42      0.00
   -4    7    8      0.66      0.00
   -3    7    8     -0.33      0.00
   -2    7    8      0.32      0.00
   -1    7    8      0.29      0.00
    0    7    8      1.60      0.00
    1    7    8     -4.11      0.00
    2    7    8     -1.94      0.00
    3    7    8      1.48      0.00
    4    7    8     11.59      0.00
    5    7    8      4.47      0.00
    6    7    8      1.24      0.00
    7    7    8     -5.47      0.00
    8    7    8     -3.51      0.00
    9    7    8     -2.45      0.00
  -12    8    8     -1.08      0.00
  -11    8    8     -0.63      0.00
  -10    8    8     -4.18      0.00
   -9    8    8     -2.85      0.00
   -8    8    8     -2.53      0.00
   -7    8    8     -2.06      0.00
   -6    8    8     -2.61      0.00
   -5    8    8     -0.44      0.00
   -4    8    8     -2.22      0.00
   -3    8    8      3.47      0.00
   -2    8    8      2.02      0.00
   -1    8    8     -2.70      0.00
    0    8    8      0.13      0.00
    1    8    8      1.91      0.00
    2    8    8     -4.76      0.00
    3    8    8     -2.08      0.00
    4    8    8      4.77      0.00
    5    8    8      1.88      0.00
    6    8    8     -1.11      0.00
    7    8    8     -0.25      0.00
    8    8    8     -4.83      0.00
    9    8    8     -3.14      0.00
  -11    9    8     -0.46      0.00
  -10    9    8     -1.44      0.00
   -9    9    8      1.53      0.00
   -8    9    8     -1.68      0.00
   -7    9    8     -1.29      0.00
   -6    9    8     -0.76      0.00
   -5    9    8      1.89      0.00
   -4    9    8      0.84      0.00
   -3    9    8     -1.83      0.00
   -2    9    8     -1.94      0.00
   -1    9    8      0.28      0.00
    0    9    8     -2.42      0.00
    1    9    8     -1.28      0.00
    2    9    8     -8.45      0.00
    3    9    8     -3.72      0.00
    4    9    8      0.74      0.00
    5    9    8      2.40      0.00
    6    9    8     -3.69      0.00
    7    9    8      0.38      0.00
    8    9    8     -2.91      0.00
  -11   10    8     -0.32      0.00
  -10   10    8     -1.38      0.00
   -9   10    8      1.43      0.00
   -8   10    8      3.00      0.00
   -7   10    8     -0.45      0.00
   -6   10    8      0.84      0.00
   -5   10    8     -3.19      0.00
   -4   10    8     -0.70      0.00
   -3   10    8      1.49      0.00
   -2   10    8      0.91      0.00
   -1   10    8     -2.15      0.00
    0   10    8     -2.96      0.00
    1   10    8      2.23      0.00
    2   10    8     -2.64      0.00
    3   10    8     -2.69      0.00
    4   10    8      4.88      0.00
    5   10    8      4.85      0.00
    6   10    8      1.91      0.00
    7   10    8     -0.46      0.00
    8   10    8     -0.40      0.00
  -11   11    8      1.06      0.00
  -10   11    8     -0.73      0.00
   -9   11    8     -2.39      0.00
   -8   11    8      0.31      0.00
   -7   11    8     -2.02      0.00
   -6   11    8      0.98      0.00
   -5   11    8      1.21      0.00
   -4   11    8     -0.98      0.00
   -3   11    8     -1.76      0.00
   -2   11    8     -3.51      0.00
   -1   11    8     -0.97      0.00
    0   11    8      3.68      0.00
    1   11    8      1.58      0.00
    2   11    8      0.87      0.00
    3   11    8     -5.93      0.00
    4   11    8     -0.85      0.00
    5   11    8     -3.05      0.00
    6   11    8     -0.96      0.00
    7   11    8     -1.92      0.00
    8   11    8      1.64      0.00
  -11   12    8     -0.15      0.00
  -10   12    8     -1.41      0.00
   -9   12    8     -1.54      0.00
   -8   12    8     -1.25      0.00
   -7   12    8     -1.37      0.00
   -6   12    8     -2.91      0.00
   -5   12    8     -1.04      0.00
   -4   12    8     -3.44      0.00
   -3   12    8      1.38      0.00
   -2   12    8      3.47      0.00
   -1   12    8     -0.95      0.00
    0   12    8      1.18      0.00
    1   12    8      4.25      0.00
    2   12    8      1.96      0.00
    3   12    8     -2.15      0.00
    4   12    8      0.45      0.00
    5   12    8      4.87      0.00
    6   12    8      0.89      0.00
    7   12    8     -0.26      0.00
    8   12    8     -0.67      0.00
  -11   13    8      0.26      0.00
  -10   13    8     -2.02      0.00
   -9   13    8     -0.16      0.00
   -8   13    8     -2.74      0.00
   -7   13    8     -0.49      0.00
   -6   13    8     -0.59      0.00
   -5   13    8      0.33      0.00
   -4   13    8      0.91      0.00
   -3   13    8     -2.02      0.00
   -2   13    8     -1.88      0.00
   -1   13    8     -0.32      0.00
    0   13    8     -1.03      0.00
    1   13    8      1.82      0.00
    2   13    8     -1.87      0.00
    3   13    8     -1.14      0.00
    4   13    8     -2.84      0.00
    5   13    8     -0.66      0.00
    6   13    8     -0.38      0.00
    7   13    8      1.10      0.00
    8   13    8     -1.28      0.00
  -11   14    8      2.02      0.00
  -10   14    8     -0.02      0.00
   -9   14    8      1.41      0.00
   -8   14    8      0.32      0.00
   -7   14    8     -1.51      0.00
   -6   14    8      1.41      0.00
   -5   14    8     -0.26      0.00
   -4   14    8      0.34      0.00
   -3   14    8     -0.82      0.00
   -2   14    8     -0.50      0.00
   -1   14    8     -1.43      0.00
    0   14    8     -2.60      0.00
    1   14    8      3.07      0.00
    2   14    8      1.41      0.00
    3   14    8     -3.11      0.00
    4   14    8      1.55      0.00
    5   14    8      3.57      0.00
    6   14    8      1.49      0.00
    7   14    8     -0.21      0.00
  -10   15    8     -0.18      0.00
   -9   15    8     -0.93      0.00
   -8   15    8      0.92      0.00
   -7   15    8     -1.17      0.00
   -6   15    8     -0.19      0.00
   -5   15    8      0.20      0.00
   -4   15    8     -0.42      0.00
   -3   15    8      0.74      0.00
   -2   15    8     -0.81      0.00
   -1   15    8     -0.73      0.00
    0   15    8     -0.09      0.00
    1   15    8     -1.94      0.00
    2   15    8      2.22      0.00
    3   15    8     -0.67      0.00
    4   15    8      1.66      0.00
    5   15    8      3.13      0.00
    6   15    8      1.90      0.00
    7   15    8     -2.68      0.00
  -10   16    8      0.09      0.00
   -9   16    8      0.05      0.00
   -8   16    8     -0.50      0.00
   -7   16    8     -1.59      0.00
   -6   16    8     -1.50      0.00
   -5   16    8      1.19      0.00
   -4   16    8     -1.07      0.00
   -3   16    8     -1.68      0.00
   -2   16    8     -0.29      0.00
   -1   16    8     -1.82      0.00
    0   16    8     -0.84      0.00
    1   16    8      2.13      0.00
    2   16    8      2.72      0.00
    3   16    8      0.32      0.00
    4   16    8     -1.18      0.00
    5   16    8      1.69      0.00
    6   16    8     -0.70      0.00
    7   16    8     -2.22      0.00
  -10   17    8     -1.23      0.00
   -9   17    8      0.37      0.00
   -8   17    8     -1.10      0.00
   -7   17    8     -0.51      0.00
   -6   17    8     -0.60      0.00
   -5   17    8     -0.55      0.00
   -4   17    8     -0.06      0.00
   -3   17    8     -0.53      0.00
   -2   17    8      0.17      0.00
   -1   17    8      1.74      0.00
    0   17    8     -0.23      0.00
    1   17    8     -0.30      0.00
    2   17    8     -3.45      0.00
    3   17    8     -2.42      0.00
    4   17    8     -1.16      0.00
    5   17    8      1.53      0.00
    6   17    8      1.22      0.00
    7   17    8     -0.52      0.00
   -9   18    8      1.50      0.00
   -8   18    8      0.28      0.00
   -7   18    8     -1.92      0.00
   -6   18    8     -0.14      0.00
   -5   18    8      1.82      0.00
   -4   18    8      2.36      0.00
   -3   18    8     -0.48      0.00
   -2   18    8     -0.32      0.00
   -1   18    8     -1.89      0.00
    0   18    8     -2.21      0.00
    1   18    8      0.67      0.00
    2   18    8      1.96      0.00
    3   18    8     -0.23      0.00
    4   18    8      0.85      0.00
    5   18    8     -0.57      0.00
    6   18    8     -0.77      0.00
   -9   19    8     -0.80      0.00
   -8   19    8      1.36      0.00
   -7   19    8     -1.25      0.00
   -6   19    8     -0.21      0.00
   -5   19    8     -0.17      0.00
   -4   19    8     -1.75      0.00
   -3   19    8     -2.37      0.00
   -2   19    8     -1.09      0.00
   -1   19    8     -0.76      0.00
    0   19    8      2.16      0.00
    1   19    8      1.17      0.00
    2   19    8     -2.25      0.00
    3   19    8     -4.96      0.00
    4   19    8     -1.38      0.00
    5   19    8      1.38      0.00
    6   19    8     -0.54      0.00
   -9   20    8     -0.44      0.00
   -8   20    8      0.53      0.00
   -7   20    8     -1.92      0.00
   -6   20    8     -1.43      0.00
   -5   20    8      2.23      0.00
   -4   20    8      2.00      0.00
   -3   20    8     -0.10      0.00
   -2   20    8     -0.03      0.00
   -1   20    8     -0.02      0.00
    0   20    8     -2.32      0.00
    1   20    8      2.24      0.00
    2   20    8      2.14      0.00
    3   20    8     -0.14      0.00
    4   20    8     -1.78      0.00
    5   20    8     -0.79      0.00
   -8   21    8      0.40      0.00
   -7   21    8     -1.82      0.00
   -6   21    8     -1.87      0.00
   -5   21    8     -0.25      0.00
   -4   21    8     -0.81      0.00
   -3   21    8     -0.40      0.00
   -2   21    8     -1.93      0.00
   -1   21    8      0.39      0.00
    0   21    8      0.65      0.00
    1   21    8      0.67      0.00
    2   21    8     -2.14      0.00
    3   21    8     -3.50      0.00
    4   21    8      0.21      0.00
    5   21    8      0.55      0.00
   -8   22    8      0.12      0.00
   -7   22    8     -0.85      0.00
   -6   22    8     -0.95      0.00
   -5   22    8      2.65      0.00
   -4   22    8      2.24      0.00
   -3   22    8      0.29      0.00
   -2   22    8      0.85      0.00
   -1   22    8     -1.63      0.00
    0   22    8      0.15      0.00
    1   22    8      0.64      0.00
    2   22    8      0.67      0.00
    3   22    8     -1.92      0.00
    4   22    8     -0.91      0.00
   -7   23    8     -2.10      0.00
   -6   23    8     -1.92      0.00
   -5   23    8      0.26      0.00
   -4   23    8      0.97      0.00
   -3   23    8     -0.29      0.00
   -2   23    8      1.03      0.00
   -1   23    8     -2.28      0.00
    0   23    8     -1.69      0.00
    1   23    8     -0.61      0.00
    2   23    8     -2.23      0.00
    3   23    8     -0.83      0.00
    4   23    8      1.50      0.00
   -6   24    8     -0.86      0.00
   -5   24    8      0.28      0.00
   -4   24    8      0.66      0.00
   -3   24    8     -0.34      0.00
   -2   24    8     -0.13      0.00
   -1   24    8      2.24      0.00
    0   24    8     -0.14      0.00
    1   24    8      3.08      0.00
    2   24    8      0.68      0.00
    3   24    8     -1.54      0.00
   -5   25    8     -0.14      0.00
   -4   25    8     -0.95      0.00
   -3   25    8      0.80      0.00
   -2   25    8     -0.33      0.00
   -1   25    8      0.99      0.00
    0   25    8     -0.83      0.00
    1   25    8     -2.15      0.00
    2   25    8      0.84      0.00
   -4   26    8      0.11      0.00
   -3   26    8      0.26      0.00
   -2   26    8      1.41      0.00
   -1   26    8      0.31      0.00
    0   26    8      3.92      0.00
    1   26    8      0.44      0.00
   -2   27    8      0.80      0.00
   -1   27    8     -0.13      0.00
  -12    0    9      3.84      0.00
  -11    0    9      9.49      0.00
  -10    0    9     10.26      0.00
   -9    0    9     -0.29      0.00
   -8    0    9      0.11      0.00
   -7    0    9     -0.80      0.00
   -6    0    9      2.44      0.00
   -5    0    9      4.72      0.00
   -4    0    9      6.87      0.00
   -3    0    9      5.32      0.00
   -2    0    9      6.37      0.00
   -1    0    9     -5.44      0.00
    0    0    9     -5.67      0.00
    1    0    9     -1.84      0.00
    2    0    9      2.69      0.00
    3    0    9     -2.05      0.00
    4    0    9      1.62      0.00
    5    0    9      3.21      0.00
    6    0    9     10.20      0.00
    7    0    9     -1.36      0.00
    8    0    9      1.05      0.00
  -12    1    9     -1.37      0.00
  -11    1    9      3.45      0.00
  -10    1    9      3.71      0.00
   -9    1    9      4.64      0.00
   -8    1    9      0.37      0.00
   -7    1    9      1.80      0.00
   -6    1    9     -0.06      0.00
   -5    1    9      3.33      0.00
   -4    1    9      0.07      0.00
   -3    1    9      2.36      0.00
   -2    1    9      0.06      0.00
   -1    1    9      0.57      0.00
    0    1    9     -4.51      0.00
    1    1    9      0.64      0.00
    2    1    9      1.53      0.00
    3    1    9      1.38      0.00
    4    1    9      3.68      0.00
    5    1    9      5.29      0.00
    6    1    9     -0.41      0.00
    7    1    9      0.51      0.00
    8    1    9     -3.62      0.00
  -12    2    9      0.53      0.00
  -11    2    9      3.00      0.00
  -10    2    9      3.57      0.00
   -9    2    9     -0.65      0.00
   -8    2    9     -4.12      0.00
   -7    2    9     -0.21      0.00
   -6    2    9     -2.95      0.00
   -5    2    9      3.19      0.00
   -4    2    9      3.17      0.00
   -3    2    9      5.30      0.00
   -2    2    9      3.66      0.00
   -1    2    9      1.38      0.00
    0    2    9     -6.16      0.00
    1    2    9     -0.48      0.00
    2    2    9      1.09      0.00
    3    2    9      1.67      0.00
    4    2    9     -7.86      0.00
    5    2    9      6.20      0.00
    6    2    9      2.98      0.00
    7    2    9     -0.09      0.00
    8    2    9     -0.20      0.00
  -11    3    9     -1.10      0.00
  -10    3    9      4.01      0.00
   -9    3    9      2.75      0.00
   -8    3    9      1.57      0.00
   -7    3    9     -1.17      0.00
   -6    3    9      3.58      0.00
   -5    3    9      2.65      0.00
   -4    3    9      3.55      0.00
   -3    3    9      0.45      0.00
   -2    3    9     -0.39      0.00
   -1    3    9     -7.16      0.00
    0    3    9     -6.51      0.00
    1    3    9     -5.69      0.00
    2    3    9     -1.86      0.00
    3    3    9     -2.01      0.00
    4    3    9      1.77      0.00
    5    3    9      3.80      0.00
    6    3    9      6.71      0.00
    7    3    9     -2.76      0.00
    8    3    9      0.63      0.00
  -11    4    9      3.45      0.00
  -10    4    9      6.63      0.00
   -9    4    9      1.81      0.00
   -8    4    9      6.98      0.00
   -7    4    9      5.28      0.00
   -6    4    9      1.20      0.00
   -5    4    9      0.12      0.00
   -4    4    9      1.15      0.00
   -3    4    9     -0.99      0.00
   -2    4    9      2.79      0.00
   -1    4    9     -2.43      0.00
    0    4    9     -4.52      0.00
    1    4    9     -4.79      0.00
    2    4    9      4.62      0.00
    3    4    9     -1.86      0.00
    4    4    9     -3.74      0.00
    5    4    9     -2.63      0.00
    6    4    9      6.27      0.00
    7    4    9     -1.71      0.00
    8    4    9     -0.91      0.00
  -11    5    9      2.18      0.00
  -10    5    9      2.48      0.00
   -9    5    9      1.83      0.00
   -8    5    9     -2.93      0.00
   -7    5    9      2.16      0.00
   -6    5    9      2.47      0.00
   -5    5    9      5.42      0.00
   -4    5    9      0.04      0.00
   -3    5    9     -0.05      0.00
   -2    5    9     -1.65      0.00
   -1    5    9     -0.22      0.00
    0    5    9     -1.07      0.00
    1    5    9      5.43      0.00
    2    5    9      4.73      0.00
    3    5    9     -2.27      0.00
    4    5    9     -5.84      0.00
    5    5    9     -1.32      0.00
    6    5    9     -0.29      0.00
    7    5    9      1.68      0.00
    8    5    9      0.02      0.00
  -11    6    9     -1.55      0.00
  -10    6    9     -0.06      0.00
   -9    6    9      0.44      0.00
   -8    6    9      0.77      0.00
   -7    6    9      4.55      0.00
   -6    6    9     -3.06      0.00
   -5    6    9     -1.70      0.00
   -4    6    9     -0.03      0.00
   -3    6    9     -1.95      0.00
   -2    6    9      0.56      0.00
   -1    6    9      6.29      0.00
    0    6    9     -0.64      0.00
    1    6    9     -0.39      0.00
    2    6    9      4.46      0.00
    3    6    9      4.06      0.00
    4    6    9    -10.32      0.00
    5    6    9     -1.61      0.00
    6    6    9     -0.69      0.00
    7    6    9      1.33      0.00
    8    6    9     -0.46      0.00
  -11    7    9     -1.60      0.00
  -10    7    9     -0.85      0.00
   -9    7    9     -3.43      0.00
   -8    7    9     -2.41      0.00
   -7    7    9     -0.59      0.00
   -6    7    9      3.90      0.00
   -5    7    9      0.67      0.00
   -4    7    9      0.84      0.00
   -3    7    9     -2.10      0.00
   -2    7    9     -2.81      0.00
   -1    7    9     -1.90      0.00
    0    7    9      3.64      0.00
    1    7    9      4.72      0.00
    2    7    9      4.79      0.00
    3    7    9     -2.74      0.00
    4    7    9     -9.35      0.00
    5    7    9     -7.63      0.00
    6    7    9      2.80      0.00
    7    7    9      0.98      0.00
    8    7    9      6.38      0.00
  -11    8    9      2.90      0.00
  -10    8    9      4.57      0.00
   -9    8    9     -0.79      0.00
   -8    8    9      3.71      0.00
   -7    8    9      4.45      0.00
   -6    8    9      0.91      0.00
   -5    8    9      0.85      0.00
   -4    8    9      1.40      0.00
   -3    8    9     -2.22      0.00
   -2    8    9     -1.10      0.00
   -1    8    9      1.14      0.00
    0    8    9      2.31      0.00
    1    8    9     -3.38      0.00
    2    8    9      5.13      0.00
    3    8    9      1.07      0.00
    4    8    9     -2.55      0.00
    5    8    9     -5.86      0.00
    6    8    9      2.10      0.00
    7    8    9      1.08      0.00
    8    8    9      1.80      0.00
  -11    9    9      1.89      0.00
  -10    9    9      2.03      0.00
   -9    9    9      0.77      0.00
   -8    9    9     -1.93      0.00
   -7    9    9      2.89      0.00
   -6    9    9     -0.02      0.00
   -5    9    9      1.10      0.00
   -4    9    9     -0.28      0.00
   -3    9    9     -0.05      0.00
   -2    9    9     -0.40      0.00
   -1    9    9      0.17      0.00
    0    9    9      2.05      0.00
    1    9    9      5.63      0.00
    2    9    9      7.01      0.00
    3    9    9      5.12      0.00
    4    9    9     -2.90      0.00
    5    9    9      0.13      0.00
    6    9    9      1.07      0.00
    7    9    9      2.11      0.00
  -11   10    9      0.73      0.00
  -10   10    9      0.15      0.00
   -9   10    9     -0.89      0.00
   -8   10    9     -3.38      0.00
   -7   10    9      1.87      0.00
   -6   10    9     -0.50      0.00
   -5   10    9     -0.51      0.00
   -4   10    9      3.28      0.00
   -3   10    9     -1.97      0.00
   -2   10    9     -3.21      0.00
   -1   10    9      2.29      0.00
    0   10    9      1.32      0.00
    1   10    9     -0.53      0.00
    2   10    9     -1.34      0.00
    3   10    9      4.36      0.00
    4   10    9     -3.08      0.00
    5   10    9     -4.22      0.00
    6   10    9     -3.23      0.00
    7   10    9      1.85      0.00
  -11   11    9     -0.18      0.00
  -10   11    9      2.15      0.00
   -9   11    9      1.35      0.00
   -8   11    9      2.05      0.00
   -7   11    9      0.00      0.00
   -6   11    9      1.16      0.00
   -5   11    9     -1.14      0.00
   -4   11    9      1.86      0.00
   -3   11    9      2.33      0.00
   -2   11    9      0.74      0.00
   -1   11    9     -1.52      0.00
    0   11    9     -1.33      0.00
    1   11    9     -0.87      0.00
    2   11    9      1.39      0.00
    3   11    9      1.59      0.00
    4   11    9      2.41      0.00
    5   11    9      2.94      0.00
    6   11    9      3.33      0.00
    7   11    9     -1.32      0.00
  -10   12    9      2.63      0.00
   -9   12    9     -1.38      0.00
   -8   12    9      1.61      0.00
   -7   12    9      2.85      0.00
   -6   12    9      1.49      0.00
   -5   12    9      1.60      0.00
   -4   12    9      1.86      0.00
   -3   12    9      0.74      0.00
   -2   12    9     -3.45      0.00
   -1   12    9     -3.84      0.00
    0   12    9      0.25      0.00
    1   12    9     -4.41      0.00
    2   12    9     -2.22      0.00
    3   12    9      0.13      0.00
    4   12    9      2.07      0.00
    5   12    9     -4.25      0.00
    6   12    9     -1.45      0.00
    7   12    9      0.26      0.00
  -10   13    9      2.25      0.00
   -9   13    9      1.77      0.00
   -8   13    9      0.75      0.00
   -7   13    9      2.14      0.00
   -6   13    9     -0.18      0.00
   -5   13    9      1.19      0.00
   -4   13    9      0.18      0.00
   -3   13    9     -0.16      0.00
   -2   13    9      1.00      0.00
   -1   13    9     -0.69      0.00
    0   13    9     -0.72      0.00
    1   13    9      2.04      0.00
    2   13    9      0.12      0.00
    3   13    9     -0.33      0.00
    4   13    9     -0.24      0.00
    5   13    9      3.98      0.00
    6   13    9      0.22      0.00
    7   13    9     -0.66      0.00
  -10   14    9     -1.48      0.00
   -9   14    9     -0.34      0.00
   -8   14    9     -1.89      0.00
   -7   14    9      1.88      0.00
   -6   14    9     -0.15      0.00
   -5   14    9     -1.88      0.00
   -4   14    9      2.30      0.00
   -3   14    9      1.10      0.00
   -2   14    9     -1.09      0.00
   -1   14    9      0.04      0.00
    0   14    9      1.39      0.00
    1   14    9      1.59      0.00
    2   14    9     -3.05      0.00
    3   14    9      2.26      0.00
    4   14    9      0.96      0.00
    5   14    9     -3.14      0.00
    6   14    9     -2.73      0.00
  -10   15    9      0.97      0.00
   -9   15    9      0.92      0.00
   -8   15    9      1.03      0.00
   -7   15    9     -0.36      0.00
   -6   15    9      1.64      0.00
   -5   15    9      0.68      0.00
   -4   15    9      0.41      0.00
   -3   15    9     -0.48      0.00
   -2   15    9     -0.94      0.00
   -1   15    9     -1.10      0.00
    0   15    9      1.12      0.00
    1   15    9      3.00      0.00
    2   15    9      0.06      0.00
    3   15    9     -5.68      0.00
    4   15    9     -1.71      0.00
    5   15    9     -0.24      0.00
    6   15    9     -0.88      0.00
   -9   16    9     -1.95      0.00
   -8   16    9      0.93      0.00
   -7   16    9      1.70      0.00
   -6   16    9      0.62      0.00
   -5   16    9     -0.17      0.00
   -4   16    9     -0.36      0.00
   -3   16    9      2.39      0.00
   -2   16    9      0.11      0.00
   -1   16    9     -2.09      0.00
    0   16    9      1.69      0.00
    1   16    9      0.09      0.00
    2   16    9     -1.91      0.00
    3   16    9     -2.10      0.00
    4   16    9      0.02      0.00
    5   16    9     -0.54      0.00
    6   16    9     -0.29      0.00
   -9   17    9      0.99      0.00
   -8   17    9     -0.66      0.00
   -7   17    9      0.12      0.00
   -6   17    9      0.29      0.00
   -5   17    9      1.36      0.00
   -4   17    9      0.99      0.00
   -3   17    9     -0.48      0.00
   -2   17    9     -1.34      0.00
   -1   17    9     -1.35      0.00
    0   17    9     -1.58      0.00
    1   17    9      3.15      0.00
    2   17    9      2.33      0.00
    3   17    9      0.20      0.00
    4   17    9     -0.09      0.00
    5   17    9      1.14      0.00
   -8   18    9     -0.84      0.00
   -7   18    9      1.89      0.00
   -6   18    9      0.51      0.00
   -5   18    9     -2.22      0.00
   -4   18    9     -1.86      0.00
   -3   18    9      0.75      0.00
   -2   18    9     -0.44      0.00
   -1   18    9      0.04      0.00
    0   18    9      2.42      0.00
    1   18    9      1.76      0.00
    2   18    9     -1.89      0.00
    3   18    9     -1.26      0.00
    4   18    9     -0.34      0.00
    5   18    9     -0.05      0.00
   -8   19    9     -1.12      0.00
   -7   19    9     -0.68      0.00
   -6   19    9      0.41      0.00
   -5   19    9      0.79      0.00
   -4   19    9      2.26      0.00
   -3   19    9      2.43      0.00
   -2   19    9      1.49      0.00
   -1   19    9     -1.55      0.00
    0   19    9     -1.01      0.00
    1   19    9     -0.77      0.00
    2   19    9      1.92      0.00
    3   19    9      1.54      0.00
    4   19    9      2.11      0.00
    5   19    9      0.49      0.00
   -8   20    9      1.07      0.00
   -7   20    9      1.19      0.00
   -6   20    9      1.43      0.00
   -5   20    9     -1.80      0.00
   -4   20    9     -2.78      0.00
   -3   20    9      0.33      0.00
   -2   20    9      0.53      0.00
   -1   20    9     -1.92      0.00
    0   20    9      0.91      0.00
    1   20    9      0.16      0.00
    2   20    9     -1.99      0.00
    3   20    9     -0.86      0.00
    4   20    9      0.21      0.00
   -7   21    9      0.79      0.00
   -6   21    9      2.25      0.00
   -5   21    9      0.74      0.00
   -4   21    9      0.83      0.00
   -3   21    9      0.77      0.00
   -2   21    9      0.20      0.00
   -1   21    9      2.06      0.00
    0   21    9     -1.59      0.00
    1   21    9      0.31      0.00
    2   21    9      2.06      0.00
    3   21    9      2.51      0.00
    4   21    9      0.82      0.00
   -6   22    9      0.46      0.00
   -5   22    9     -1.84      0.00
   -4   22    9     -3.05      0.00
   -3   22    9      1.08      0.00
   -2   22    9     -0.50      0.00
   -1   22    9     -0.08      0.00
    0   22    9      2.04      0.00
    1   22    9     -0.25      0.00
    2   22    9      0.54      0.00
    3   22    9      1.39      0.00
   -6   23    9      2.43      0.00
   -5   23    9      0.91      0.00
   -4   23    9     -0.97      0.00
   -3   23    9     -1.76      0.00
   -2   23    9      1.02      0.00
   -1   23    9      1.10      0.00
    0   23    9      3.62      0.00
    1   23    9      1.29      0.00
    2   23    9      1.25      0.00
   -4   24    9     -0.44      0.00
   -3   24    9     -0.06      0.00
   -2   24    9      0.15      0.00
   -1   24    9     -1.38      0.00
    0   24    9     -0.63      0.00
    1   24    9     -0.12      0.00
   -3   25    9     -1.13      0.00
   -2   25    9     -1.49      0.00
   -1   25    9      2.55      0.00
  -11    0   10     -8.58      0.00
  -10    0   10     -5.64      0.00
   -9    0   10     -2.23      0.00
   -8    0   10      0.95      0.00
   -7    0   10     -5.27      0.00
   -6    0   10      0.34      0.00
   -5    0   10     -3.49      0.00
   -4    0   10     -5.69      0.00
   -3    0   10     -6.55      0.00
   -2    0   10     -3.18      0.00
   -1    0   10     -0.74      0.00
    0    0   10     10.89      0.00
    1    0   10      2.18      0.00
    2    0   10      0.04      0.00
    3    0   10     -1.27      0.00
    4    0   10      3.10      0.00
    5    0   10     -7.68      0.00
    6    0   10     -4.85      0.00
    7    0   10      0.97      0.00
  -11    1   10     -0.60      0.00
  -10    1   10     -1.94      0.00
   -9    1   10     -4.24      0.00
   -8    1   10     -0.87      0.00
   -7    1   10     -0.62      0.00
   -6    1   10     -1.17      0.00
   -5    1   10     -3.09      0.00
   -4    1   10     -1.18      0.00
   -3    1   10     -2.34      0.00
   -2    1   10      0.19      0.00
   -1    1   10     -0.72      0.00
    0    1   10      2.34      0.00
    1    1   10      1.42      0.00
    2    1   10      1.03      0.00
    3    1   10     -5.28      0.00
    4    1   10     -0.60      0.00
    5    1   10     -6.23      0.00
    6    1   10     -0.89      0.00
    7    1   10      1.62      0.00
  -11    2   10     -2.34      0.00
  -10    2   10     -1.39      0.00
   -9    2   10      3.94      0.00
   -8    2   10     -1.02      0.00
   -7    2   10     -0.58      0.00
   -6    2   10      0.80      0.00
   -5    2   10      1.70      0.00
   -4    2   10     -5.58      0.00
   -3    2   10     -3.74      0.00
   -2    2   10     -6.46      0.00
   -1    2   10      1.91      0.00
    0    2   10      4.07      0.00
    1    2   10      3.21      0.00
    2    2   10     -0.86      0.00
    3    2   10      0.35      0.00
    4    2   10      1.51      0.00
    5    2   10      0.88      0.00
    6    2   10     -9.17      0.00
    7    2   10      4.74      0.00
  -11    3   10     -0.08      0.00
  -10    3   10     -2.45      0.00
   -9    3   10     -2.00      0.00
   -8    3   10     -1.96      0.00
   -7    3   10      0.52      0.00
   -6    3   10     -3.86      0.00
   -5    3   10     -5.56      0.00
   -4    3   10     -1.74      0.00
   -3    3   10      0.68      0.00
   -2    3   10     -0.63      0.00
   -1    3   10      3.67      0.00
    0    3   10      6.74      0.00
    1    3   10      6.87      0.00
    2    3   10      0.37      0.00
    3    3   10      3.64      0.00
    4    3   10     -6.53      0.00
    5    3   10     -2.57      0.00
    6    3   10     -5.34      0.00
    7    3   10     -0.55      0.00
  -11    4   10     -3.11      0.00
  -10    4   10     -1.99      0.00
   -9    4   10     -3.18      0.00
   -8    4   10     -4.26      0.00
   -7    4   10     -9.96      0.00
   -6    4   10      1.29      0.00
   -5    4   10      0.04      0.00
   -4    4   10     -2.79      0.00
   -3    4   10     -1.86      0.00
   -2    4   10     -0.20      0.00
   -1    4   10     -2.46      0.00
    0    4   10      6.59      0.00
    1    4   10      3.84      0.00
    2    4   10     -0.46      0.00
    3    4   10     -1.98      0.00
    4    4   10      7.64      0.00
    5    4   10     -0.75      0.00
    6    4   10     -1.19      0.00
    7    4   10      0.17      0.00
  -11    5   10     -0.45      0.00
  -10    5   10     -0.01      0.00
   -9    5   10     -1.84      0.00
   -8    5   10      1.42      0.00
   -7    5   10     -0.99      0.00
   -6    5   10     -5.46      0.00
   -5    5   10     -5.59      0.00
   -4    5   10      0.42      0.00
   -3    5   10      2.07      0.00
   -2    5   10      2.55      0.00
   -1    5   10     -2.53      0.00
    0    5   10     -2.19      0.00
    1    5   10     -2.50      0.00
    2    5   10     -0.79      0.00
    3    5   10     -2.33      0.00
    4    5   10      5.28      0.00
    5    5   10      1.22      0.00
    6    5   10      0.52      0.00
    7    5   10      0.74      0.00
  -11    6   10      1.92      0.00
  -10    6   10      1.82      0.00
   -9    6   10      3.47      0.00
   -8    6   10     -4.42      0.00
   -7    6   10     -4.04      0.00
   -6    6   10      1.83      0.00
   -5    6   10      4.41      0.00
   -4    6   10     -2.65      0.00
   -3    6   10     -0.38      0.00
   -2    6   10     -2.29      0.00
   -1    6   10     -2.52      0.00
    0    6   10     -4.21      0.00
    1    6   10      1.88      0.00
    2    6   10     -3.04      0.00
    3    6   10     -2.13      0.00
    4    6   10      3.63      0.00
    5    6   10      6.92      0.00
    6    6   10     -3.54      0.00
    7    6   10      2.20      0.00
  -10    7   10      0.57      0.00
   -9    7   10      3.72      0.00
   -8    7   10      1.76      0.00
   -7    7   10     -1.41      0.00
   -6    7   10     -4.69      0.00
   -5    7   10     -3.23      0.00
   -4    7   10      2.75      0.00
   -3    7   10      4.79      0.00
   -2    7   10      1.98      0.00
   -1    7   10     -1.17      0.00
    0    7   10     -5.37      0.00
    1    7   10     -3.17      0.00
    2    7   10     -3.89      0.00
    3    7   10      2.71      0.00
    4    7   10      3.45      0.00
    5    7   10      8.71      0.00
    6    7   10      0.03      0.00
    7    7   10     -2.39      0.00
  -10    8   10     -1.03      0.00
   -9    8   10     -1.41      0.00
   -8    8   10     -1.21      0.00
   -7    8   10     -7.63      0.00
   -6    8   10      1.40      0.00
   -5    8   10      0.98      0.00
   -4    8   10     -3.16      0.00
   -3    8   10      0.11      0.00
   -2    8   10      2.45      0.00
   -1    8   10     -2.64      0.00
    0    8   10     -1.14      0.00
    1    8   10      1.56      0.00
    2    8   10      0.68      0.00
    3    8   10     -3.80      0.00
    4    8   10      3.93      0.00
    5    8   10      1.95      0.00
    6    8   10      1.96      0.00
  -10    9   10     -0.34      0.00
   -9    9   10     -0.52      0.00
   -8    9   10      1.43      0.00
   -7    9   10     -2.59      0.00
   -6    9   10     -3.55      0.00
   -5    9   10      0.50      0.00
   -4    9   10      0.94      0.00
   -3    9   10      1.99      0.00
   -2    9   10      1.38      0.00
   -1    9   10     -3.10      0.00
    0    9   10     -4.12      0.00
    1    9   10     -3.46      0.00
    2    9   10     -2.29      0.00
    3    9   10     -8.30      0.00
    4    9   10      0.03      0.00
    5    9   10      1.30      0.00
    6    9   10      0.03      0.00
  -10   10   10      0.27      0.00
   -9   10   10      2.99      0.00
   -8   10   10     -0.21      0.00
   -7   10   10     -0.61      0.00
   -6   10   10      0.27      0.00
   -5   10   10      2.66      0.00
   -4   10   10     -2.54      0.00
   -3   10   10     -0.96      0.00
   -2   10   10      2.77      0.00
   -1   10   10      1.92      0.00
    0   10   10     -4.02      0.00
    1   10   10      1.26      0.00
    2   10   10      1.94      0.00
    3   10   10     -0.61      0.00
    4   10   10     -2.88      0.00
    5   10   10      4.14      0.00
    6   10   10      0.61      0.00
  -10   11   10     -2.55      0.00
   -9   11   10      0.49      0.00
   -8   11   10     -1.53      0.00
   -7   11   10     -2.72      0.00
   -6   11   10     -1.61      0.00
   -5   11   10     -0.47      0.00
   -4   11   10      1.07      0.00
   -3   11   10     -0.42      0.00
   -2   11   10     -2.34      0.00
   -1   11   10     -0.56      0.00
    0   11   10      1.03      0.00
    1   11   10      3.67      0.00
    2   11   10      0.18      0.00
    3   11   10     -2.32      0.00
    4   11   10     -4.51      0.00
    5   11   10     -1.37      0.00
    6   11   10     -1.78      0.00
   -9   12   10     -1.55      0.00
   -8   12   10      0.77      0.00
   -7   12   10     -4.09      0.00
   -6   12   10     -0.32      0.00
   -5   12   10      0.10      0.00
   -4   12   10     -3.70      0.00
   -3   12   10     -0.22      0.00
   -2   12   10      4.52      0.00
   -1   12   10      3.59      0.00
    0   12   10      1.81      0.00
    1   12   10      1.47      0.00
    2   12   10      5.76      0.00
    3   12   10     -0.71      0.00
    4   12   10     -1.54      0.00
    5   12   10      0.29      0.00
    6   12   10      2.69      0.00
   -9   13   10     -1.53      0.00
   -8   13   10     -0.39      0.00
   -7   13   10     -2.54      0.00
   -6   13   10     -2.95      0.00
   -5   13   10      0.78      0.00
   -4   13   10      0.51      0.00
   -3   13   10      1.46      0.00
   -2   13   10     -0.44      0.00
   -1   13   10     -2.17      0.00
    0   13   10      0.51      0.00
    1   13   10      1.07      0.00
    2   13   10      2.21      0.00
    3   13   10     -1.16      0.00
    4   13   10     -0.98      0.00
    5   13   10     -1.94      0.00
   -9   14   10      1.14      0.00
   -8   14   10     -0.25      0.00
   -7   14   10      0.40      0.00
   -6   14   10      0.11      0.00
   -5   14   10      1.06      0.00
   -4   14   10     -2.04      0.00
   -3   14   10     -2.07      0.00
   -2   14   10      1.83      0.00
   -1   14   10      2.11      0.00
    0   14   10     -3.61      0.00
    1   14   10     -2.18      0.00
    2   14   10      1.49      0.00
    3   14   10      0.71      0.00
    4   14   10     -3.55      0.00
    5   14   10      1.67      0.00
   -9   15   10      0.39      0.00
   -8   15   10     -1.08      0.00
   -7   15   10     -1.39      0.00
   -6   15   10     -2.66      0.00
   -5   15   10     -1.51      0.00
   -4   15   10      2.01      0.00
   -3   15   10      1.57      0.00
   -2   15   10     -0.45      0.00
   -1   15   10     -1.13      0.00
    0   15   10     -0.46      0.00
    1   15   10     -0.46      0.00
    2   15   10      0.73      0.00
    3   15   10      4.71      0.00
    4   15   10      2.16      0.00
    5   15   10      0.01      0.00
   -8   16   10      0.52      0.00
   -7   16   10     -1.03      0.00
   -6   16   10      0.55      0.00
   -5   16   10     -0.34      0.00
   -4   16   10     -1.70      0.00
   -3   16   10      0.38      0.00
   -2   16   10      1.95      0.00
   -1   16   10      0.33      0.00
    0   16   10     -0.34      0.00
    1   16   10     -1.30      0.00
    2   16   10      3.43      0.00
    3   16   10      1.24      0.00
    4   16   10      0.59      0.00
   -8   17   10      1.21      0.00
   -7   17   10     -0.05      0.00
   -6   17   10     -1.64      0.00
   -5   17   10      0.11      0.00
   -4   17   10      0.25      0.00
   -3   17   10      0.30      0.00
   -2   17   10      1.47      0.00
   -1   17   10      0.52      0.00
    0   17   10      0.35      0.00
    1   17   10     -0.43      0.00
    2   17   10     -0.55      0.00
    3   17   10      0.13      0.00
    4   17   10     -1.51      0.00
   -7   18   10      0.33      0.00
   -6   18   10      0.23      0.00
   -5   18   10      0.09      0.00
   -4   18   10      1.63      0.00
   -3   18   10      1.13      0.00
   -2   18   10      0.05      0.00
   -1   18   10      0.61      0.00
    0   18   10     -3.38      0.00
    1   18   10     -0.93      0.00
    2   18   10      1.70      0.00
    3   18   10      1.53      0.00
   -7   19   10      1.31      0.00
   -6   19   10     -0.88      0.00
   -5   19   10      0.09      0.00
   -4   19   10     -1.14      0.00
   -3   19   10     -2.82      0.00
   -2   19   10     -1.59      0.00
   -1   19   10      0.57      0.00
    0   19   10      2.01      0.00
    1   19   10      1.01      0.00
    2   19   10      0.59      0.00
    3   19   10     -0.65      0.00
   -6   20   10     -0.76      0.00
   -5   20   10     -0.14      0.00
   -4   20   10      2.66      0.00
   -3   20   10      1.70      0.00
   -2   20   10      0.52      0.00
   -1   20   10     -0.64      0.00
    0   20   10      0.85      0.00
    1   20   10      0.90      0.00
    2   20   10      2.14      0.00
   -5   21   10     -0.45      0.00
   -4   21   10     -0.15      0.00
   -3   21   10     -1.65      0.00
   -2   21   10     -0.21      0.00
   -1   21   10     -0.43      0.00
    0   21   10     -1.37      0.00
    1   21   10      0.71      0.00
   -4   22   10      3.02      0.00
   -3   22   10      1.37      0.00
   -2   22   10     -2.24      0.00
   -1   22   10      0.37      0.00
    0   22   10     -1.99      0.00
   -2   23   10     -0.09      0.00
  -10    0   11      5.93      0.00
   -9    0   11      2.85      0.00
   -8    0   11      0.78      0.00
   -7    0   11      3.83      0.00
   -6    0   11      2.54      0.00
   -5    0   11      0.92      0.00
   -4    0   11      7.06      0.00
   -3    0   11      4.22      0.00
   -2    0   11     -3.23      0.00
   -1    0   11      2.18      0.00
    0    0   11     -4.38      0.00
    1    0   11     -9.25      0.00
    2    0   11     -3.52      0.00
    3    0   11      6.98      0.00
    4    0   11     -3.65      0.00
    5    0   11      0.38      0.00
    6    0   11      6.15      0.00
  -10    1   11      1.57      0.00
   -9    1   11      0.86      0.00
   -8    1   11      3.73      0.00
   -7    1   11     -1.48      0.00
   -6    1   11      2.00      0.00
   -5    1   11      2.62      0.00
   -4    1   11      2.77      0.00
   -3    1   11      0.63      0.00
   -2    1   11      3.84      0.00
   -1    1   11     -2.56      0.00
    0    1   11     -0.81      0.00
    1    1   11     -2.44      0.00
    2    1   11      1.49      0.00
    3    1   11     -0.18      0.00
    4    1   11      7.19      0.00
    5    1   11     -0.30      0.00
    6    1   11      4.42      0.00
  -10    2   11      2.19      0.00
   -9    2   11     -1.74      0.00
   -8    2   11     -1.32      0.00
   -7    2   11      2.87      0.00
   -6    2   11     -0.57      0.00
   -5    2   11     -1.45      0.00
   -4    2   11      7.02      0.00
   -3    2   11      1.97      0.00
   -2    2   11     -1.18      0.00
   -1    2   11      5.04      0.00
    0    2   11     -3.06      0.00
    1    2   11     -8.30      0.00
    2    2   11      2.15      0.00
    3    2   11      1.40      0.00
    4    2   11     -0.24      0.00
    5    2   11     -2.36      0.00
    6    2   11      4.41      0.00
  -10    3   11      0.08      0.00
   -9    3   11      4.50      0.00
   -8    3   11      0.88      0.00
   -7    3   11      0.92      0.00
   -6    3   11      1.43      0.00
   -5    3   11      7.64      0.00
   -4    3   11      1.73      0.00
   -3    3   11      1.99      0.00
   -2    3   11     -1.64      0.00
   -1    3   11     -0.34      0.00
    0    3   11     -7.14      0.00
    1    3   11     -5.98      0.00
    2    3   11     -2.51      0.00
    3    3   11      3.00      0.00
    4    3   11      0.23      0.00
    5    3   11      7.73      0.00
    6    3   11      1.61      0.00
  -10    4   11      2.67      0.00
   -9    4   11      2.70      0.00
   -8    4   11      3.75      0.00
   -7    4   11      6.73      0.00
   -6    4   11      1.29      0.00
   -5    4   11     -1.12      0.00
   -4    4   11      5.98      0.00
   -3    4   11      2.26      0.00
   -2    4   11     -3.84      0.00
   -1    4   11      3.18      0.00
    0    4   11     -0.07      0.00
    1    4   11     -8.20      0.00
    2    4   11     -3.23      0.00
    3    4   11      6.17      0.00
    4    4   11     -6.78      0.00
    5    4   11     -4.18      0.00
  -10    5   11      0.01      0.00
   -9    5   11     -0.15      0.00
   -8    5   11      3.35      0.00
   -7    5   11     -0.90      0.00
   -6    5   11      4.82      0.00
   -5    5   11      6.21      0.00
   -4    5   11      0.32      0.00
   -3    5   11     -2.60      0.00
   -2    5   11      0.96      0.00
   -1    5   11     -1.43      0.00
    0    5   11      3.68      0.00
    1    5   11      1.46      0.00
    2    5   11      3.02      0.00
    3    5   11     -1.83      0.00
    4    5   11      1.73      0.00
    5    5   11     -5.96      0.00
  -10    6   11     -0.62      0.00
   -9    6   11     -2.15      0.00
   -8    6   11      0.23      0.00
   -7    6   11      4.64      0.00
   -6    6   11     -2.49      0.00
   -5    6   11     -2.62      0.00
   -4    6   11      5.36      0.00
   -3    6   11      1.25      0.00
   -2    6   11     -0.36      0.00
   -1    6   11      6.46      0.00
    0    6   11      4.29      0.00
    1    6   11     -3.69      0.00
    2    6   11      3.34      0.00
    3    6   11      2.49      0.00
    4    6   11     -2.02      0.00
    5    6   11     -5.08      0.00
   -9    7   11      1.02      0.00
   -8    7   11     -1.75      0.00
   -7    7   11      2.78      0.00
   -6    7   11      2.73      0.00
   -5    7   11      3.32      0.00
   -4    7   11     -1.95      0.00
   -3    7   11     -3.22      0.00
   -2    7   11     -3.89      0.00
   -1    7   11      2.16      0.00
    0    7   11      3.96      0.00
    1    7   11      4.49      0.00
    2    7   11      1.11      0.00
    3    7   11      2.62      0.00
    4    7   11     -6.71      0.00
    5    7   11     -3.96      0.00
   -9    8   11      1.43      0.00
   -8    8   11      1.05      0.00
   -7    8   11      3.72      0.00
   -6    8   11      0.73      0.00
   -5    8   11     -2.16      0.00
   -4    8   11      4.58      0.00
   -3    8   11      2.20      0.00
   -2    8   11     -2.94      0.00
   -1    8   11      1.18      0.00
    0    8   11      3.01      0.00
    1    8   11     -3.47      0.00
    2    8   11     -2.69      0.00
    3    8   11      4.08      0.00
    4    8   11     -2.67      0.00
    5    8   11     -2.85      0.00
   -9    9   11     -0.60      0.00
   -8    9   11      1.99      0.00
   -7    9   11      0.90      0.00
   -6    9   11      2.36      0.00
   -5    9   11     -0.39      0.00
   -4    9   11     -1.17      0.00
   -3    9   11     -0.56      0.00
   -2    9   11      0.50      0.00
   -1    9   11     -1.15      0.00
    0    9   11      4.16      0.00
    1    9   11      2.66      0.00
    2    9   11      4.22      0.00
    3    9   11      4.48      0.00
    4    9   11      4.17      0.00
    5    9   11     -4.47      0.00
   -9   10   11     -1.23      0.00
   -8   10   11     -2.19      0.00
   -7   10   11      0.97      0.00
   -6   10   11     -1.17      0.00
   -5   10   11     -1.73      0.00
   -4   10   11      2.31      0.00
   -3   10   11      1.50      0.00
   -2   10   11     -1.44      0.00
   -1   10   11     -0.83      0.00
    0   10   11      0.45      0.00
    1   10   11     -0.79      0.00
    2   10   11      0.35      0.00
    3   10   11     -0.44      0.00
    4   10   11      2.14      0.00
    5   10   11      0.11      0.00
   -9   11   11      2.74      0.00
   -8   11   11     -0.08      0.00
   -7   11   11      3.46      0.00
   -6   11   11      0.17      0.00
   -5   11   11     -1.17      0.00
   -4   11   11      1.63      0.00
   -3   11   11      1.82      0.00
   -2   11   11      1.15      0.00
   -1   11   11      0.91      0.00
    0   11   11     -3.56      0.00
    1   11   11     -3.25      0.00
    2   11   11     -1.22      0.00
    3   11   11      6.24      0.00
    4   11   11      0.36      0.00
   -8   12   11     -0.23      0.00
   -7   12   11      0.85      0.00
   -6   12   11      2.27      0.00
   -5   12   11     -1.45      0.00
   -4   12   11      2.65      0.00
   -3   12   11      2.06      0.00
   -2   12   11     -4.02      0.00
   -1   12   11     -5.21      0.00
    0   12   11     -2.50      0.00
    1   12   11     -1.54      0.00
    2   12   11     -3.41      0.00
    3   12   11     -1.00      0.00
    4   12   11      1.22      0.00
   -8   13   11      2.49      0.00
   -7   13   11      1.35      0.00
   -6   13   11      1.52      0.00
   -5   13   11     -0.59      0.00
   -4   13   11     -0.73      0.00
   -3   13   11      1.03      0.00
   -2   13   11      1.76      0.00
   -1   13   11     -0.47      0.00
    0   13   11     -1.61      0.00
    1   13   11     -3.05      0.00
    2   13   11      1.22      0.00
    3   13   11      0.85      0.00
    4   13   11      0.70      0.00
   -8   14   11     -1.08      0.00
   -7   14   11     -0.56      0.00
   -6   14   11     -0.52      0.00
   -5   14   11     -0.32      0.00
   -4   14   11      1.73      0.00
   -3   14   11      1.83      0.00
   -2   14   11     -0.70      0.00
   -1   14   11     -1.04      0.00
    0   14   11      0.15      0.00
    1   14   11      3.65      0.00
    2   14   11      1.84      0.00
    3   14   11     -0.76      0.00
   -7   15   11      2.29      0.00
   -6   15   11      1.41      0.00
   -5   15   11      0.36      0.00
   -4   15   11      0.09      0.00
   -3   15   11     -0.40      0.00
   -2   15   11      0.36      0.00
   -1   15   11      2.09      0.00
    0   15   11     -1.93      0.00
    1   15   11     -1.32      0.00
    2   15   11      0.40      0.00
    3   15   11     -0.53      0.00
   -7   16   11     -0.46      0.00
   -6   16   11     -0.36      0.00
   -5   16   11     -0.10      0.00
   -4   16   11      1.59      0.00
   -3   16   11      0.32      0.00
   -2   16   11     -2.27      0.00
   -1   16   11     -1.69      0.00
    0   16   11      0.20      0.00
    1   16   11      0.00      0.00
    2   16   11     -1.45      0.00
   -6   17   11      0.56      0.00
   -5   17   11     -0.42      0.00
   -4   17   11     -1.14      0.00
   -3   17   11      1.08      0.00
   -2   17   11      0.23      0.00
   -1   17   11     -2.10      0.00
    0   17   11     -1.50      0.00
    1   17   11     -1.54      0.00
    2   17   11      2.26      0.00
   -5   18   11      0.37      0.00
   -4   18   11     -0.54      0.00
   -3   18   11     -1.73      0.00
   -2   18   11     -0.07      0.00
   -1   18   11      0.96      0.00
    0   18   11      0.16      0.00
    1   18   11      0.97      0.00
   -5   19   11     -0.52      0.00
   -4   19   11      0.97      0.00
   -3   19   11      3.50      0.00
   -2   19   11      1.12      0.00
   -1   19   11     -0.24      0.00
    0   19   11     -3.08      0.00
   -3   20   11     -2.15      0.00
   -2   20   11     -0.16      0.00
   -1   20   11     -0.96      0.00
   -9    0   12     -0.02      0.00
   -8    0   12     -0.06      0.00
   -7    0   12     -4.99      0.00
   -6    0   12     -9.11      0.00
   -5    0   12      1.86      0.00
   -4    0   12     -1.38      0.00
   -3    0   12     -1.19      0.00
   -2    0   12      1.68      0.00
   -1    0   12      1.87      0.00
    0    0   12      2.66      0.00
    1    0   12      7.24      0.00
    2    0   12      1.53      0.00
    3    0   12      2.47      0.00
    4    0   12     -4.01      0.00
   -9    1   12     -1.09      0.00
   -8    1   12     -0.75      0.00
   -7    1   12     -0.80      0.00
   -6    1   12     -0.20      0.00
   -5    1   12     -3.87      0.00
   -4    1   12     -3.26      0.00
   -3    1   12     -0.96      0.00
   -2    1   12     -1.45      0.00
   -1    1   12     -1.64      0.00
    0    1   12      2.74      0.00
    1    1   12      2.76      0.00
    2    1   12     -2.77      0.00
    3    1   12     -0.04      0.00
    4    1   12     -3.22      0.00
   -9    2   12      0.58      0.00
   -8    2   12      4.95      0.00
   -7    2   12     -4.82      0.00
   -6    2   12     -5.23      0.00
   -5    2   12      1.89      0.00
   -4    2   12      0.52      0.00
   -3    2   12     -4.81      0.00
   -2    2   12      4.72      0.00
   -1    2   12     -3.66      0.00
    0    2   12     -0.08      0.00
    1    2   12      4.50      0.00
    2    2   12      3.32      0.00
    3    2   12     -5.70      0.00
    4    2   12      3.79      0.00
   -9    3   12     -1.50      0.00
   -8    3   12     -2.70      0.00
   -7    3   12      1.10      0.00
   -6    3   12     -1.87      0.00
   -5    3   12     -8.45      0.00
   -4    3   12     -3.09      0.00
   -3    3   12     -0.13      0.00
   -2    3   12     -0.89      0.00
   -1    3   12      2.71      0.00
    0    3   12      3.56      0.00
    1    3   12      4.64      0.00
    2    3   12      3.22      0.00
    3    3   12     -1.97      0.00
    4    3   12     -2.65      0.00
   -8    4   12     -0.85      0.00
   -7    4   12     -5.42      0.00
   -6    4   12     -6.55      0.00
   -5    4   12      1.70      0.00
   -4    4   12     -2.91      0.00
   -3    4   12     -0.89      0.00
   -2    4   12      1.01      0.00
   -1    4   12     -0.14      0.00
    0    4   12     -1.32      0.00
    1    4   12      5.61      0.00
    2    4   12      1.75      0.00
    3    4   12      2.77      0.00
    4    4   12     -1.03      0.00
   -8    5   12     -0.67      0.00
   -7    5   12     -1.42      0.00
   -6    5   12     -2.46      0.00
   -5    5   12     -8.93      0.00
   -4    5   12     -2.00      0.00
   -3    5   12      4.71      0.00
   -2    5   12      1.69      0.00
   -1    5   12     -2.34      0.00
    0    5   12     -2.07      0.00
    1    5   12     -1.69      0.00
    2    5   12     -3.41      0.00
    3    5   12      2.28      0.00
    4    5   12      1.04      0.00
   -8    6   12      4.78      0.00
   -7    6   12     -3.50      0.00
   -6    6   12     -2.02      0.00
   -5    6   12      1.58      0.00
   -4    6   12     -2.78      0.00
   -3    6   12     -4.28      0.00
   -2    6   12      1.39      0.00
   -1    6   12     -6.01      0.00
    0    6   12     -5.38      0.00
    1    6   12      0.44      0.00
    2    6   12      1.55      0.00
    3    6   12     -5.37      0.00
    4    6   12      4.19      0.00
   -8    7   12     -0.61      0.00
   -7    7   12      0.12      0.00
   -6    7   12     -3.73      0.00
   -5    7   12     -5.22      0.00
   -4    7   12      0.75      0.00
   -3    7   12      5.58      0.00
   -2    7   12      4.34      0.00
   -1    7   12      0.64      0.00
    0    7   12     -6.72      0.00
    1    7   12     -5.65      0.00
    2    7   12      0.45      0.00
    3    7   12      0.78      0.00
   -8    8   12      0.79      0.00
   -7    8   12     -1.41      0.00
   -6    8   12     -3.47      0.00
   -5    8   12      0.43      0.00
   -4    8   12     -2.89      0.00
   -3    8   12     -1.67      0.00
   -2    8   12     -0.62      0.00
   -1    8   12      0.80      0.00
    0    8   12     -1.37      0.00
    1    8   12      2.26      0.00
    2    8   12      0.72      0.00
    3    8   12      2.89      0.00
   -8    9   12      1.01      0.00
   -7    9   12     -1.16      0.00
   -6    9   12     -0.84      0.00
   -5    9   12     -2.73      0.00
   -4    9   12     -1.31      0.00
   -3    9   12      3.28      0.00
   -2    9   12      3.32      0.00
   -1    9   12     -0.72      0.00
    0    9   12     -3.46      0.00
    1    9   12     -4.40      0.00
    2    9   12     -2.87      0.00
    3    9   12     -1.71      0.00
   -7   10   12      0.27      0.00
   -6   10   12     -1.39      0.00
   -5   10   12      1.23      0.00
   -4   10   12     -1.33      0.00
   -3   10   12     -2.43      0.00
   -2   10   12      1.18      0.00
   -1   10   12      0.16      0.00
    0   10   12      0.57      0.00
    1   10   12     -0.73      0.00
    2   10   12      0.56      0.00
    3   10   12     -1.84      0.00
   -7   11   12      0.68      0.00
   -6   11   12     -1.27      0.00
   -5   11   12     -0.88      0.00
   -4   11   12     -3.39      0.00
   -3   11   12     -1.59      0.00
   -2   11   12      1.89      0.00
   -1   11   12      1.91      0.00
    0   11   12     -0.42      0.00
    1   11   12      1.21      0.00
    2   11   12      2.21      0.00
   -7   12   12      0.66      0.00
   -6   12   12     -3.10      0.00
   -5   12   12     -0.07      0.00
   -4   12   12     -0.03      0.00
   -3   12   12     -1.55      0.00
   -2   12   12      1.48      0.00
   -1   12   12      5.72      0.00
    0   12   12      4.17      0.00
    1   12   12      0.67      0.00
    2   12   12     -0.28      0.00
   -6   13   12     -0.10      0.00
   -5   13   12     -1.88      0.00
   -4   13   12     -2.67      0.00
   -3   13   12      0.13      0.00
   -2   13   12      1.68      0.00
   -1   13   12     -0.27      0.00
    0   13   12      0.94      0.00
    1   13   12      0.55      0.00
   -6   14   12     -0.44      0.00
   -5   14   12      0.77      0.00
   -4   14   12     -1.38      0.00
   -3   14   12     -2.27      0.00
   -2   14   12      0.95      0.00
   -1   14   12      0.37      0.00
    0   14   12      0.10      0.00
    1   14   12     -3.74      0.00
   -5   15   12     -1.82      0.00
   -4   15   12     -1.74      0.00
   -3   15   12     -0.61      0.00
   -2   15   12      1.88      0.00
   -1   15   12      0.40      0.00
    0   15   12     -1.75      0.00
   -4   16   12     -0.61      0.00
   -3   16   12     -1.00      0.00
   -2   16   12      1.37      0.00
   -1   16   12      2.58      0.00
   -7    0   13      9.54      0.00
   -6    0   13      6.89      0.00
   -5    0   13     -4.24      0.00
   -4    0   13     -2.96      0.00
   -3    0   13      5.35      0.00
   -2    0   13     -7.22      0.00
   -1    0   13     -4.51      0.00
    0    0   13      3.15      0.00
    1    0   13     -4.36      0.00
    2    0   13     -7.01      0.00
   -7    1   13      1.30      0.00
   -6    1   13      0.25      0.00
   -5    1   13      3.79      0.00
   -4    1   13      1.25      0.00
   -3    1   13      3.52      0.00
   -2    1   13      0.64      0.00
   -1    1   13      1.29      0.00
    0    1   13     -1.21      0.00
    1    1   13     -1.21      0.00
    2    1   13     -1.83      0.00
   -7    2   13      5.39      0.00
   -6    2   13      5.60      0.00
   -5    2   13     -4.89      0.00
   -4    2   13     -2.58      0.00
   -3    2   13      5.27      0.00
   -2    2   13     -3.21      0.00
   -1    2   13     -4.37      0.00
    0    2   13      6.95      0.00
    1    2   13      0.33      0.00
    2    2   13     -7.57      0.00
   -7    3   13      1.45      0.00
   -6    3   13      1.57      0.00
   -5    3   13      5.06      0.00
   -4    3   13      4.33      0.00
   -3    3   13     -2.24      0.00
   -2    3   13      3.46      0.00
   -1    3   13     -0.83      0.00
    0    3   13     -4.48      0.00
    1    3   13     -5.03      0.00
    2    3   13      1.05      0.00
   -7    4   13      7.39      0.00
   -6    4   13      4.53      0.00
   -5    4   13     -2.84      0.00
   -4    4   13      0.43      0.00
   -3    4   13      4.77      0.00
   -2    4   13     -4.96      0.00
   -1    4   13     -1.15      0.00
    0    4   13      5.44      0.00
    1    4   13     -3.42      0.00
   -6    5   13      3.14      0.00
   -5    5   13      6.44      0.00
   -4    5   13     -0.13      0.00
   -3    5   13     -2.94      0.00
   -2    5   13     -1.41      0.00
   -1    5   13      2.49      0.00
    0    5   13      2.15      0.00
    1    5   13      2.00      0.00
   -6    6   13      2.87      0.00
   -5    6   13     -2.26      0.00
   -4    6   13      2.30      0.00
   -3    6   13      5.33      0.00
   -2    6   13      0.56      0.00
   -1    6   13      0.69      0.00
    0    6   13      9.00      0.00
    1    6   13      1.76      0.00
   -6    7   13      3.93      0.00
   -5    7   13      3.07      0.00
   -4    7   13     -1.35      0.00
   -3    7   13     -8.14      0.00
   -2    7   13     -1.81      0.00
   -1    7   13      0.78      0.00
    0    7   13      3.78      0.00
    1    7   13      3.88      0.00
   -6    8   13      1.98      0.00
   -5    8   13      0.21      0.00
   -4    8   13      2.68      0.00
   -3    8   13      3.16      0.00
   -2    8   13     -1.33      0.00
   -1    8   13      0.12      0.00
    0    8   13      2.03      0.00
   -5    9   13      1.38      0.00
   -4    9   13     -0.74      0.00
   -3    9   13     -2.95      0.00
   -2    9   13     -3.21      0.00
   -1    9   13      1.36      0.00
    0    9   13      3.55      0.00
   -5   10   13     -0.62      0.00
   -4   10   13      0.41      0.00
   -3   10   13      2.50      0.00
   -2   10   13      0.40      0.00
   -1   10   13     -1.56      0.00
   -4   11   13      1.69      0.00
   -3   11   13     -0.33      0.00
   -2   11   13     -0.13      0.00
   -1   11   13     -0.42      0.00
    1    0    0     42.87      0.00
    0    2    0     60.76      0.00
   13   10    0      6.19      0.00
    9   25    0      0.53      0.00
    8   27    0      3.86      0.00
    6   30    0     -2.44      0.00
    5   31    0      3.03      0.00
    2   33    0     -1.97      0.00
    0    0    1    -84.27      0.00
    0    1    1     14.33      0.00
   13    8    1     -9.24      0.00
  -13   11    1     -0.66      0.00
  -11   20    1      1.68      0.00
   10   22    1     -0.61      0.00
  -10   23    1     -1.68      0.00
   -6   30    1      0.80      0.00
   -5   31    1      2.03      0.00
   -4   32    1      1.25      0.00
   -2   33    1      0.66      0.00
    1   33    1      0.17      0.00
   13    2    2      0.02      0.00
   13    3    2      0.66      0.00
   13    4    2      1.76      0.00
   12   13    2     -0.98      0.00
   10   21    2      0.10      0.00
  -10   23    2      1.31      0.00
    6   29    2      0.18      0.00
   -6   30    2     -2.50      0.00
   -5   31    2      0.39      0.00
    3   32    2     -2.75      0.00
   -1   33    2     -1.09      0.00
    0   33    2      0.94      0.00
   12   10    3     -0.96      0.00
   11   16    3     -0.74      0.00
  -11   20    3      1.08      0.00
  -10   23    3     -0.82      0.00
   -9   25    3     -0.34      0.00
    8   25    3      1.38      0.00
   -8   27    3      2.17      0.00
   -3   32    3     -0.38      0.00
    2   32    3      0.16      0.00
   12    6    4      3.71      0.00
  -13   11    4      4.83      0.00
  -12   16    4     -0.19      0.00
   10   18    4      0.18      0.00
  -11   20    4     -0.83      0.00
    9   21    4      1.47      0.00
   -7   28    4     -0.88      0.00
   -4   31    4      0.54      0.00
   -1   32    4     -1.58      0.00
    0   32    4     -1.44      0.00
  -13   10    5     -2.50      0.00
   11   10    5      3.72      0.00
  -11   19    5     -1.15      0.00
  -10   22    5     -0.13      0.00
    8   22    5      0.15      0.00
   -9   24    5     -0.66      0.00
   -8   26    5      0.25      0.00
    6   26    5      0.33      0.00
   -2   31    5      0.73      0.00
   -1   31    5      2.84      0.00
    0   31    5      2.26      0.00
   11    3    6      4.13      0.00
   11    4    6      0.75      0.00
   11    5    6     -2.12      0.00
  -13    8    6      2.82      0.00
  -12   14    6      1.75      0.00
    9   17    6     -2.41      0.00
  -11   18    6     -1.02      0.00
    8   20    6      1.04      0.00
  -10   21    6      0.87      0.00
   -9   23    6      0.92      0.00
   -8   25    6      0.36      0.00
    5   26    6     -0.64      0.00
    2   29    6      0.16      0.00
   -2   30    6      0.02      0.00
   -1   30    6      1.64      0.00
    0   30    6     -0.14      0.00
  -13    3    7     -4.82      0.00
  -13    4    7      4.49      0.00
  -13    5    7      0.91      0.00
   10    7    7      0.72      0.00
   10    8    7     -0.15      0.00
  -12   12    7     -0.77      0.00
   -9   22    7      0.40      0.00
   -4   28    7      0.09      0.00
  -12    9    8     -4.08      0.00
    9    9    8      2.11      0.00
    8   14    8      1.52      0.00
  -10   18    8     -1.68      0.00
    6   20    8     -1.18      0.00
    5   22    8      0.08      0.00
   -7   24    8     -0.31      0.00
   -6   25    8     -1.66      0.00
    3   25    8     -0.81      0.00
   -5   26    8      0.19      0.00
    2   26    8     -0.67      0.00
   -3   27    8     -2.54      0.00
    0   27    8      0.14      0.00
  -12    3    9     -2.15      0.00
  -12    4    9      0.11      0.00
  -12    5    9     -1.82      0.00
    8    9    9      0.68      0.00
    7   14    9      1.05      0.00
    6   17    9     -0.39      0.00
   -9   18    9      0.39      0.00
   -7   22    9      0.87      0.00
   -5   24    9     -1.19      0.00
   -4   25    9     -0.34      0.00
    0   25    9      0.05      0.00
  -11    7   10     -1.10      0.00
    7    8   10     -1.68      0.00
  -10   12   10     -0.63      0.00
    6   13   10     -0.53      0.00
    5   16   10      0.49      0.00
   -8   18   10     -0.86      0.00
    4   18   10     -0.16      0.00
    3   20   10      0.35      0.00
   -6   21   10     -0.99      0.00
    2   21   10      0.07      0.00
   -5   22   10      0.53      0.00
    1   22   10     -0.41      0.00
   -3   23   10      1.33      0.00
   -1   23   10     -2.31      0.00
    6    4   11      2.63      0.00
    6    5   11      1.84      0.00
  -10    7   11     -1.13      0.00
    5   11   11      1.49      0.00
   -9   12   11      1.99      0.00
    4   14   11      1.33      0.00
    3   16   11     -1.66      0.00
   -6   18   11     -0.86      0.00
    2   18   11     -0.73      0.00
    1   19   11     -2.93      0.00
   -4   20   11     -1.85      0.00
    0   20   11     -0.43      0.00
   -9    4   12     -0.23      0.00
   -9    5   12     -0.45      0.00
    4    7   12      2.76      0.00
   -8   10   12      4.34      0.00
    3   11   12     -1.59      0.00
    2   13   12     -0.35      0.00
    1   15   12      0.42      0.00
    0   16   12      1.10      0.00
   -3   17   12      0.00      0.00
   -2   17   12      1.47      0.00
    2    4   13     -6.82      0.00
   -7    5   13      3.85      0.00
    2    5   13     -1.21      0.00
    1    8   13     -2.56      0.00
   -6    9   13      2.83      0.00
    1    9   13      3.74      0.00
    0   10   13      1.44      0.00
   -3   12   13      0.24      0.00
   -2   12   13     -1.68      0.00
   -3    0   14     -2.07      0.00
   -3    1   14     -1.41      0.00
    0    0    0      0.00      0.00
# SQUEEZE RESULTS (Version = 100419)
# Note: Data are Listed for all Voids in the P1 Unit Cell
# i.e. Centre of Gravity, Solvent Accessible Volume,
# Recovered number of Electrons in the Void and
# Details about the Squeezed Material
loop_
  _platon_squeeze_void_nr
  _platon_squeeze_void_average_x
  _platon_squeeze_void_average_y
  _platon_squeeze_void_average_z
  _platon_squeeze_void_volume
  _platon_squeeze_void_count_electrons
  _platon_squeeze_void_content
   1  0.000  0.000  0.500       177        30 ' '
   2  0.000  0.500  0.500       177        30 ' '
   3  0.041  0.250  0.500         8         6 ' '
   4  0.251 -0.008  0.838        15         2 ' '
   5  0.251  0.508  0.838        15         2 ' '
   6  0.449  0.750  0.186        21         3 ' '
   7  0.551  0.250  0.814        21         3 ' '
   8  0.748  0.008  0.161        15         2 ' '
   9  0.749  0.492  0.162        15         2 ' '
  10  0.958  0.750  0.500         8         6 ' '
# Missing Reflections Below sin(th)/lambda = 0.25
loop_
  _platon_missing_refln_index_h
  _platon_missing_refln_index_k
  _platon_missing_refln_index_l
  _platon_missing_refln_theta
    1    0    0     1.812
    0    2    0     1.479
    0    0    1     1.800
    0    1    1     1.946
_platon_squeeze_void_probe_radius                  1.20
_platon_squeeze_details
)
TITL P21m_a           P 21/m       R = 0.11
CELL   11.4564   27.5440   11.5369     90.00    101.26     90.00
SPGR P21/m
# Solvent Accessible Volume =       462
# Electrons Found in S.A.V. =        88
# Note: Atoms in Void are Labelled as Cxxx and Qxxx for all Others
Q101 0.319 0.621 0.266 !       5.26 eA-3
Q102 0.091 0.752 0.469 !       4.60 eA-3
Q103 1.003 0.752 0.391 !       4.45 eA-3
C104 0.504 0.753 0.203 !       4.32 eA-3
C105 0.050 0.248 0.500 !       4.20 eA-3
Q106 0.228 0.208 0.197 !       3.84 eA-3
Q107 0.146 0.749 0.312 !       3.39 eA-3
Q108 0.314 0.499 0.471 !       3.29 eA-3
Q109 0.409 0.336 0.147 !       3.20 eA-3
Q110 0.412 0.702 0.170 !       3.05 eA-3
Q111 0.856 0.382 0.483 !       3.04 eA-3
Q112 0.307 0.250 0.203 !       2.94 eA-3
Q113 0.141 0.498 0.311 !       2.87 eA-3
Q114 0.405 0.406 0.134 !       2.86 eA-3
Q115 0.130 0.252 0.297 !       2.86 eA-3
Q116 0.905 0.622 0.529 !       2.81 eA-3
Q117 0.881 1.002 0.937 !       2.52 eA-3
C118 0.264 0.033 0.375 !       2.50 eA-3
Q119 0.944 0.371 0.355 !       2.40 eA-3
Q120 0.768 0.996 0.150 !       2.31 eA-3
Q121 0.236 0.245 0.266 !       2.24 eA-3
Q122 0.085 0.765 0.407 !       2.23 eA-3
Q123 0.509 0.873 0.872 !       2.19 eA-3
Q124 0.303 0.248 0.047 !       2.14 eA-3
Q125 0.367 0.745 0.079 !       2.12 eA-3
Q126 0.733 0.127 0.575 !       2.11 eA-3
Q127 0.829 0.624 0.437 !       2.03 eA-3
Q128 0.577 0.250 0.031 !       2.00 eA-3
Q129 0.855 0.748 0.109 !       1.99 eA-3
Q130 0.766 0.755 0.891 !       1.96 eA-3
Q131 0.603 0.753 0.078 !       1.94 eA-3
Q132 0.050 0.745 0.313 !       1.93 eA-3
C133 0.330 0.748 0.187 !       1.90 eA-3
Q134 0.331 0.370 0.091 !       1.82 eA-3
Q135 0.180 0.752 0.406 !       1.78 eA-3
Q136 0.079 0.858 0.454 !       1.78 eA-3
Q137 0.404 0.499 0.921 !       1.78 eA-3
Q138 0.935 0.011 0.496 !       1.77 eA-3
Q139 0.532 0.636 0.794 !       1.75 eA-3
Q140 0.032 0.979 0.390 !       1.74 eA-3
Q141 0.149 0.253 0.141 !       1.73 eA-3
Q142 0.076 0.486 0.485 !       1.72 eA-3
Q143 0.073 0.337 0.470 !       1.71 eA-3
Q144 0.127 0.746 0.562 !       1.69 eA-3
Q145 0.442 0.853 0.976 !       1.66 eA-3
C146 0.104 0.062 0.486 !       1.65 eA-3
Q147 0.584 0.256 0.656 !       1.65 eA-3
Q148 0.174 0.625 0.341 !       1.62 eA-3
Q149 0.268 0.248 0.438 !       1.61 eA-3
Q150 0.265 0.015 0.219 !       1.59 eA-3
Q151 0.394 0.250 0.109 !       1.58 eA-3
Q152 0.945 0.247 0.422 !       1.57 eA-3
Q153 0.960 0.749 0.297 !       1.56 eA-3
Q154 0.844 0.224 0.280 !       1.56 eA-3
Q155 0.156 0.776 0.720 !       1.56 eA-3
Q156 0.750 0.753 0.344 !       1.55 eA-3
Q157 1.007 0.985 0.557 !       1.55 eA-3
Q158 0.093 0.827 0.432 !       1.55 eA-3
Q159 0.850 0.234 0.114 !       1.54 eA-3
Q160 0.269 0.734 0.033 !       1.53 eA-3
Q161 0.738 0.250 0.578 !       1.53 eA-3
Q162 0.398 0.253 0.016 !       1.52 eA-3
Q163 0.641 0.812 0.278 !       1.51 eA-3
Q164 0.628 0.625 0.949 !       1.50 eA-3
Q165 0.415 0.750 0.156 !       1.50 eA-3
Q166 0.183 0.766 0.470 !       1.50 eA-3
Q167 0.111 0.954 0.475 !       1.49 eA-3
Q168 0.757 0.251 0.812 !       1.43 eA-3
Q169 0.359 0.749 0.484 !       1.43 eA-3
Q170 0.768 0.251 0.391 !       1.43 eA-3
Q171 0.877 0.090 0.408 !       1.43 eA-3
Q172 0.734 0.250 0.531 !       1.43 eA-3
Q173 0.652 0.096 0.876 !       1.43 eA-3
Q174 0.187 0.954 0.247 !       1.42 eA-3
Q175 0.951 0.451 0.506 !       1.40 eA-3
Q176 0.858 0.253 0.359 !       1.40 eA-3
Q177 0.366 0.255 0.500 !       1.39 eA-3
Q178 0.552 0.750 0.453 !       1.39 eA-3
Q179 0.445 0.752 0.797 !       1.39 eA-3
Q180 0.012 0.518 0.465 !       1.38 eA-3
Q181 0.852 0.742 0.795 !       1.38 eA-3
Q182 0.936 0.775 0.345 !       1.38 eA-3
Q183 0.065 0.537 0.526 !       1.37 eA-3
Q184 0.142 0.759 0.735 !       1.37 eA-3
Q185 0.347 0.498 0.108 !       1.36 eA-3
Q186 0.173 0.889 0.124 !       1.35 eA-3
Q187 0.341 0.246 0.422 !       1.35 eA-3
Q188 0.998 0.199 0.141 !       1.35 eA-3
C189 0.843 0.485 0.451 !       1.35 eA-3
Q190 0.460 0.382 0.986 !       1.35 eA-3
Q191 0.933 0.403 0.576 !       1.34 eA-3
Q192 0.427 0.188 0.048 !       1.34 eA-3
Q193 0.293 0.069 0.127 !       1.33 eA-3
Q194 0.040 0.224 0.266 !       1.33 eA-3
C195 0.950 0.937 0.553 !       1.33 eA-3
Q196 0.482 0.426 0.405 !       1.33 eA-3
Q197 0.887 0.016 0.550 !       1.32 eA-3
Q198 0.854 0.414 0.609 !       1.31 eA-3
Q199 0.219 0.252 0.344 !       1.29 eA-3
)
;
_shelx_fab_checksum              9626
loop_
_space_group_symop_operation_xyz
'x, y, z'
'-x, y+1/2, -z'
'-x, -y, -z'
'x, -y-1/2, z'
loop_
_atom_site_label
_atom_site_type_symbol
_atom_site_fract_x
_atom_site_fract_y
_atom_site_fract_z
_atom_site_U_iso_or_equiv
_atom_site_adp_type
_atom_site_occupancy
_atom_site_site_symmetry_order
_atom_site_calc_flag
_atom_site_refinement_flags_posn
_atom_site_refinement_flags_adp
_atom_site_refinement_flags_occupancy
_atom_site_disorder_assembly
_atom_site_disorder_group
Dy1 Dy 0.77132(9) 0.750000 0.82215(8) 0.0237(3) Uani 1 2 d S T P A .
Dy2 Dy 0.59272(7) 0.62642(3) 0.87195(6) 0.0265(2) Uani 1 1 d . . . . .
O1 O 0.7162(11) 0.7002(4) 0.6565(9) 0.039(3) Uani 1 1 d . . . . .
O2 O 0.6175(10) 0.6317(4) 0.6780(9) 0.029(2) Uani 1 1 d . . . . .
O3 O 0.6348(17) 0.6662(6) 0.0593(12) 0.074(5) Uani 1 1 d . . . . .
O4 O 0.6466(11) 0.5874(5) 0.0691(10) 0.046(3) Uani 1 1 d . . . . .
O6 O -0.0243(15) 0.750000 0.9255(15) 0.047(5) Uani 1 2 d S T P . .
O7 O -0.0600(16) 0.750000 0.7353(15) 0.075(8) Uani 1 2 d S T P . .
O8 O 0.3804(11) 0.6305(5) 0.7667(12) 0.054(4) Uani 1 1 d . . . . .
O9 O 0.4198(12) 0.6212(6) 0.9551(13) 0.063(4) Uani 1 1 d . U . . .
O10 O -0.2141(10) 0.5873(4) 0.8808(10) 0.037(3) Uani 1 1 d . . . . .
O11 O -0.2042(10) 0.6667(4) 0.8884(9) 0.035(3) Uani 1 1 d . . . . .
O12 O 0.7546(12) 0.750000 1.0265(12) 0.028(3) Uani 1 2 d S T P . .
H12B H 0.697950 0.730720 1.028789 0.034 Uiso 1 1 d R U . . .
N1 N 0.4589(12) 0.4574(5) 0.1990(11) 0.030(3) Uani 1 1 d . . . . .
C1 C 0.6645(15) 0.6611(7) 0.6208(14) 0.038(4) Uani 1 1 d . . . . .
C2 C 0.6574(17) 0.6501(7) 0.4919(15) 0.041(4) Uani 1 1 d . . . . .
C3 C 0.705(2) 0.6827(9) 0.422(2) 0.071(6) Uani 1 1 d . U . . .
H3 H 0.744111 0.711179 0.456353 0.085 Uiso 1 1 calc R U . . .
C4 C 0.696(2) 0.6741(9) 0.301(2) 0.067(6) Uani 1 1 d . U . . .
H4 H 0.726341 0.697460 0.253300 0.080 Uiso 1 1 calc R U . . .
C5 C 0.6449(18) 0.6322(7) 0.2497(15) 0.048(5) Uani 1 1 d . . . . .
C6 C 0.6000(14) 0.5978(7) 0.3184(14) 0.035(4) Uani 1 1 d . . . . .
C7 C 0.6068(15) 0.6078(6) 0.4386(14) 0.034(4) Uani 1 1 d . . . . .
H7 H 0.575567 0.584709 0.485672 0.041 Uiso 1 1 calc R U . . .
C8 C 0.6432(18) 0.6274(8) 0.1182(14) 0.046(5) Uani 1 1 d . . . . .
C9 C 0.5474(15) 0.5502(6) 0.2763(13) 0.031(4) Uani 1 1 d . . . . .
C10 C 0.5822(17) 0.5085(7) 0.3427(16) 0.044(4) Uani 1 1 d . . . . .
H10 H 0.636904 0.510591 0.415875 0.053 Uiso 1 1 calc R U . . .
C11 C 0.5371(15) 0.4648(6) 0.3017(14) 0.034(4) Uani 1 1 d . . . . .
H11 H 0.562631 0.437133 0.348924 0.041 Uiso 1 1 calc R U . . .
C12 C 0.4266(13) 0.4980(6) 0.1376(14) 0.030(4) Uani 1 1 d . . . . .
H12 H 0.372717 0.494630 0.064125 0.036 Uiso 1 1 calc R U . . .
C13 C 0.4639(14) 0.5433(6) 0.1709(13) 0.031(4) Uani 1 1 d . . . . .
H13 H 0.433824 0.570415 0.123319 0.037 Uiso 1 1 calc R U . . .
C14 C 0.5163(19) 0.750000 0.8308(17) 0.024(4) Uani 1 2 d S TU P A .
C15 C 0.3837(13) 0.750000 0.8228(16) 0.028(5) Uani 1 2 d DS T P . .
C18 C 0.1438(13) 0.750000 0.8298(17) 0.035(6) Uani 1 2 d DS T P . .
C21 C 0.0133(19) 0.750000 0.8309(18) 0.027(5) Uani 1 2 d S T P . .
O5 O 0.5703(9) 0.7103(4) 0.8288(8) 0.030(2) Uani 1 1 d . . . . .
C16 C 0.3452(15) 0.7639(5) 0.9238(15) 0.028(6) Uani 0.5 1 d D U P A -1
H16 H 0.401668 0.773887 0.991268 0.033 Uiso 0.5 1 calc R U P A -1
C17 C 0.2261(15) 0.7635(6) 0.9281(15) 0.027(6) Uani 0.5 1 d D U P A -1
H17 H 0.200678 0.772428 0.998761 0.032 Uiso 0.5 1 calc R U P A -1
C19 C 0.1817(17) 0.7343(8) 0.7294(17) 0.045(6) Uani 0.5 1 d D U P A -1
H19 H 0.125444 0.723061 0.663215 0.054 Uiso 0.5 1 calc R U P A -1
C20 C 0.3013(17) 0.7351(7) 0.7253(16) 0.047(5) Uani 0.5 1 d D U P A -1
C23 C 0.413(2) 0.7444(9) 0.559(2) 0.058(5) Uani 0.5 1 d G U P A -1
H23 H 0.448107 0.772491 0.599136 0.069 Uiso 0.5 1 calc R U P A -1
C24 C 0.437(2) 0.7323(9) 0.449(2) 0.059(5) Uani 0.5 1 d G U P A -1
H24 H 0.488413 0.752128 0.413989 0.071 Uiso 0.5 1 calc R U P A -1
N3 N 0.385(2) 0.6912(9) 0.3902(17) 0.063(5) Uani 0.5 1 d G U P A -1
H3A H 0.400509 0.683586 0.320535 0.075 Uiso 0.5 1 calc R U P A -1
C25 C 0.310(2) 0.6623(8) 0.441(2) 0.062(5) Uani 0.5 1 d G U P A -1
H25 H 0.274709 0.634189 0.401148 0.074 Uiso 0.5 1 calc R U P A -1
C26 C 0.286(2) 0.6744(9) 0.551(2) 0.058(5) Uani 0.5 1 d G U P A -1
H26 H 0.234402 0.654552 0.586294 0.070 Uiso 0.5 1 calc R U P A -1
C27 C 0.337(2) 0.7154(10) 0.6101(17) 0.054(4) Uani 0.5 1 d G U P A -1
C28 C 0.3459(14) 0.6249(6) 0.8618(19) 0.041(5) Uani 1 1 d . . . . .
C29 C 0.2151(11) 0.6227(7) 0.8673(14) 0.050(5) Uani 1 1 d D . . . .
C32 C -0.0220(10) 0.6238(6) 0.8845(12) 0.039(4) Uani 1 1 d D . . . .
C35 C -0.1517(11) 0.6253(6) 0.8858(12) 0.023(3) Uani 1 1 d . . . . .
C30 C 0.1292(14) 0.6357(12) 0.7697(16) 0.041(5) Uani 0.564(10) 1 d D U P B 1
H30 H 0.151648 0.643681 0.697030 0.049 Uiso 0.564(10) 1 calc R U P B 1
C31 C 0.0111(14) 0.6369(12) 0.7793(16) 0.042(5) Uani 0.564(10) 1 d D U P B 1
H31 H -0.047865 0.646648 0.713673 0.050 Uiso 0.564(10) 1 calc R U P B 1
C33 C 0.0594(15) 0.5978(11) 0.965(2) 0.045(4) Uani 0.564(10) 1 d D U P B 1
C34 C 0.1779(14) 0.5981(11) 0.957(2) 0.045(4) Uani 0.564(10) 1 d D U P B 1
H34 H 0.234257 0.581196 1.014305 0.054 Uiso 0.564(10) 1 calc R U P B 1
C36 C 0.035(3) 0.5743(14) 1.076(3) 0.049(4) Uani 0.564(10) 1 d . U P B 1
C37 C 0.087(3) 0.5257(14) 1.107(3) 0.054(4) Uani 0.564(10) 1 d . U P B 1
H37 H 0.131316 0.507727 1.060025 0.065 Uiso 0.564(10) 1 calc R U P B 1
C38 C 0.062(3) 0.5102(15) 1.214(3) 0.056(5) Uani 0.564(10) 1 d . U P B 1
H38 H 0.103977 0.481421 1.242623 0.067 Uiso 0.564(10) 1 calc R U P B 1
N2 N -0.011(3) 0.5279(12) 1.287(3) 0.058(4) Uani 0.564(10) 1 d . U P B 1
C39 C -0.057(3) 0.5731(15) 1.243(3) 0.054(4) Uani 0.564(10) 1 d . U P B 1
H39 H -0.106207 0.588886 1.288288 0.065 Uiso 0.564(10) 1 calc R U P B 1
C40 C -0.041(3) 0.5973(16) 1.144(3) 0.052(4) Uani 0.564(10) 1 d . U P B 1
H40 H -0.077822 0.627714 1.122223 0.062 Uiso 0.564(10) 1 calc R U P B 1
C30A C 0.1291(16) 0.6083(16) 0.774(2) 0.043(5) Uani 0.436(10) 1 d D U P B 2
H30A H 0.151277 0.597231 0.703079 0.051 Uiso 0.436(10) 1 calc R U P B 2
C31A C 0.0109(15) 0.6099(16) 0.7814(19) 0.042(5) Uani 0.436(10) 1 d D U P B 2
H31A H -0.048351 0.601207 0.714950 0.050 Uiso 0.436(10) 1 calc R U P B 2
C33A C 0.0634(16) 0.6386(16) 0.9800(19) 0.044(4) Uani 0.436(10) 1 d D U P B 2
C34A C 0.1818(16) 0.6376(15) 0.9712(19) 0.044(4) Uani 0.436(10) 1 d D U P B 2
H34A H 0.241016 0.647085 1.036892 0.053 Uiso 0.436(10) 1 calc R U P B 2
C36A C 0.030(4) 0.6545(18) 1.110(4) 0.049(4) Uani 0.436(10) 1 d . U P B 2
C37A C -0.042(4) 0.630(2) 1.160(4) 0.051(4) Uani 0.436(10) 1 d . U P B 2
H37A H -0.082495 0.602527 1.120313 0.061 Uiso 0.436(10) 1 calc R U P B 2
C38A C -0.062(4) 0.6416(19) 1.268(4) 0.052(4) Uani 0.436(10) 1 d . U P B 2
H38A H -0.111727 0.620768 1.302837 0.063 Uiso 0.436(10) 1 calc R U P B 2
N2A N -0.016(3) 0.6804(16) 1.330(3) 0.055(5) Uani 0.436(10) 1 d . U P B 2
C39A C 0.051(4) 0.7066(19) 1.278(4) 0.054(5) Uani 0.436(10) 1 d . U P B 2
H39A H 0.082827 0.735460 1.316804 0.065 Uiso 0.436(10) 1 calc R U P B 2
C40A C 0.082(4) 0.6958(18) 1.164(4) 0.049(5) Uani 0.436(10) 1 d . U P B 2
H40A H 0.134220 0.715682 1.129589 0.059 Uiso 0.436(10) 1 calc R U P B 2
loop_
_atom_site_aniso_label
_atom_site_aniso_U_11
_atom_site_aniso_U_22
_atom_site_aniso_U_33
_atom_site_aniso_U_23
_atom_site_aniso_U_13
_atom_site_aniso_U_12
Dy1 0.0182(5) 0.0384(6) 0.0141(5) 0.000 0.0025(4) 0.000
Dy2 0.0238(4) 0.0368(5) 0.0194(4) -0.0021(3) 0.0055(3) -0.0029(3)
O1 0.047(7) 0.046(7) 0.019(6) -0.002(5) -0.003(5) -0.028(6)
O2 0.038(6) 0.032(6) 0.018(5) -0.004(4) 0.008(4) -0.008(5)
O3 0.135(15) 0.064(10) 0.030(8) -0.011(7) 0.030(9) -0.047(10)
O4 0.039(7) 0.069(9) 0.031(7) -0.004(6) 0.007(5) 0.015(6)
O6 0.027(10) 0.075(14) 0.041(11) 0.000 0.013(8) 0.000
O7 0.024(10) 0.18(3) 0.017(9) 0.000 0.000(7) 0.000
O8 0.034(7) 0.084(11) 0.047(8) -0.027(7) 0.016(6) -0.007(7)
O9 0.034(6) 0.094(8) 0.060(7) 0.026(6) 0.012(6) 0.006(6)
O10 0.033(7) 0.044(7) 0.039(7) -0.005(5) 0.015(5) -0.007(6)
O11 0.039(7) 0.041(7) 0.022(6) -0.002(5) 0.002(5) 0.003(5)
O12 0.007(7) 0.048(10) 0.030(8) 0.000 0.003(6) 0.000
N1 0.031(8) 0.042(8) 0.019(6) -0.004(6) 0.007(5) -0.005(6)
C1 0.039(10) 0.054(12) 0.023(9) -0.004(8) 0.013(7) -0.008(9)
C2 0.048(11) 0.050(11) 0.025(9) 0.002(8) 0.010(8) -0.017(9)
C3 0.080(10) 0.076(10) 0.058(9) -0.003(8) 0.019(8) -0.026(8)
C4 0.078(10) 0.072(10) 0.051(9) 0.000(8) 0.015(8) -0.030(8)
C5 0.062(13) 0.058(13) 0.024(9) -0.007(8) 0.013(8) -0.036(10)
C6 0.021(8) 0.058(12) 0.026(8) -0.011(8) 0.003(6) -0.009(8)
C7 0.041(10) 0.036(10) 0.027(9) 0.001(7) 0.013(7) -0.005(8)
C8 0.056(12) 0.067(14) 0.016(8) 0.004(9) 0.011(8) -0.021(10)
C9 0.040(10) 0.041(10) 0.016(7) -0.003(7) 0.016(7) -0.002(7)
C10 0.053(12) 0.040(11) 0.040(11) -0.004(8) 0.012(9) -0.003(9)
C11 0.039(10) 0.041(10) 0.021(8) -0.007(7) 0.001(7) -0.004(8)
C12 0.015(8) 0.040(10) 0.035(9) 0.000(7) 0.006(6) -0.001(7)
C13 0.031(9) 0.046(10) 0.016(7) -0.006(7) 0.006(6) 0.000(7)
C14 0.025(8) 0.030(8) 0.012(7) 0.000 -0.009(6) 0.000
C15 0.016(11) 0.029(12) 0.044(14) 0.000 0.014(10) 0.000
C18 0.017(12) 0.031(13) 0.056(16) 0.000 0.009(10) 0.000
C21 0.023(12) 0.040(14) 0.018(11) 0.000 0.000(9) 0.000
O5 0.022(6) 0.051(7) 0.017(5) 0.000(5) 0.003(4) 0.003(5)
C16 0.025(8) 0.030(10) 0.028(8) -0.002(6) 0.002(7) -0.001(6)
C17 0.026(8) 0.029(10) 0.025(8) -0.001(6) 0.005(7) -0.002(6)
C19 0.046(8) 0.046(9) 0.043(8) 0.001(7) 0.007(7) 0.002(7)
C20 0.046(7) 0.049(8) 0.046(7) 0.003(6) 0.008(6) 0.002(6)
C23 0.057(7) 0.065(7) 0.052(7) 0.001(6) 0.013(6) 0.002(6)
C24 0.059(8) 0.066(8) 0.055(7) 0.001(6) 0.015(6) 0.002(6)
N3 0.062(8) 0.068(8) 0.059(7) -0.003(6) 0.014(6) 0.004(6)
C25 0.063(8) 0.064(8) 0.059(7) -0.003(6) 0.014(6) 0.005(6)
C26 0.059(7) 0.060(7) 0.055(7) -0.003(6) 0.011(6) 0.003(6)
C27 0.053(7) 0.058(7) 0.051(6) 0.000(5) 0.011(5) 0.003(6)
C28 0.012(8) 0.036(10) 0.075(14) 0.013(9) 0.006(8) -0.002(7)
C29 0.030(10) 0.044(12) 0.079(15) 0.025(10) 0.023(10) 0.007(8)
C32 0.025(9) 0.048(11) 0.045(11) 0.018(8) 0.006(7) 0.003(8)
C35 0.005(7) 0.049(10) 0.016(7) 0.002(6) 0.001(5) -0.002(7)
C30 0.038(7) 0.042(8) 0.045(7) -0.005(6) 0.013(6) -0.002(6)
C31 0.039(7) 0.044(8) 0.044(7) -0.005(6) 0.011(6) -0.001(6)
C33 0.033(8) 0.056(9) 0.045(8) 0.009(7) 0.006(6) -0.002(8)
C34 0.033(8) 0.055(10) 0.046(9) 0.010(8) 0.006(7) -0.001(9)
C36 0.039(8) 0.063(9) 0.046(8) 0.010(7) 0.008(6) -0.001(7)
C37 0.047(9) 0.065(10) 0.048(9) 0.015(8) 0.004(8) 0.001(8)
C38 0.052(10) 0.067(10) 0.049(9) 0.012(8) 0.008(8) 0.005(8)
N2 0.050(9) 0.072(10) 0.051(9) 0.007(8) 0.006(7) 0.007(8)
C39 0.043(8) 0.073(9) 0.048(8) 0.007(7) 0.010(6) 0.003(7)
C40 0.040(7) 0.070(8) 0.046(7) 0.007(7) 0.009(6) 0.000(7)
C30A 0.039(7) 0.044(8) 0.047(7) -0.006(6) 0.011(6) -0.001(6)
C31A 0.039(7) 0.043(8) 0.045(7) -0.007(6) 0.012(6) 0.000(6)
C33A 0.032(8) 0.057(9) 0.043(8) 0.009(7) 0.008(6) 0.000(8)
C34A 0.031(8) 0.056(10) 0.045(9) 0.010(8) 0.007(7) -0.001(9)
C36A 0.037(8) 0.066(9) 0.044(8) 0.006(7) 0.009(6) 0.001(7)
C37A 0.040(8) 0.069(9) 0.045(8) 0.007(7) 0.011(6) 0.001(7)
C38A 0.039(8) 0.072(9) 0.047(8) 0.006(8) 0.012(6) -0.001(7)
N2A 0.041(10) 0.076(11) 0.049(9) 0.003(8) 0.014(8) -0.003(9)
C39A 0.043(10) 0.073(11) 0.046(10) 0.002(9) 0.010(9) -0.003(9)
C40A 0.038(10) 0.069(11) 0.042(9) 0.004(8) 0.009(8) -0.001(8)
loop_
_atom_type_symbol
_atom_type_description
_atom_type_scat_dispersion_real
_atom_type_scat_dispersion_imag
_atom_type_scat_source
C C 0.0033 0.0016 'International Tables Vol C Tables 4.2.6.8 and 6.1.1.4'
H H 0.0000 0.0000 'International Tables Vol C Tables 4.2.6.8 and 6.1.1.4'
N N 0.0061 0.0033 'International Tables Vol C Tables 4.2.6.8 and 6.1.1.4'
O O 0.0106 0.0060 'International Tables Vol C Tables 4.2.6.8 and 6.1.1.4'
Dy Dy -0.1892 4.4098 'International Tables Vol C Tables 4.2.6.8 and 6.1.1.4'
loop_
_geom_angle_atom_site_label_1
_geom_angle_atom_site_label_2
_geom_angle_atom_site_label_3
_geom_angle
_geom_angle_site_symmetry_1
_geom_angle_site_symmetry_3
_geom_angle_publ_flag
O1 Dy1 O1 71.9(6) . 4_575 ?
O1 Dy1 O7 76.4(4) . 1_655 ?
O1 Dy1 O7 76.4(4) 4_575 1_655 ?
O1 Dy1 O12 137.9(3) . . ?
O1 Dy1 O12 137.9(3) 4_575 . ?
O7 Dy1 O12 130.5(5) 1_655 . ?
O1 Dy1 O6 119.1(4) . 1_655 ?
O1 Dy1 O6 119.1(4) 4_575 1_655 ?
O7 Dy1 O6 53.8(6) 1_655 1_655 ?
O12 Dy1 O6 76.7(5) . 1_655 ?
O1 Dy1 O11 144.3(4) . 4_675 ?
O1 Dy1 O11 72.4(4) 4_575 4_675 ?
O7 Dy1 O11 94.6(3) 1_655 4_675 ?
O12 Dy1 O11 73.5(3) . 4_675 ?
O6 Dy1 O11 78.6(3) 1_655 4_675 ?
O1 Dy1 O11 72.4(4) . 1_655 ?
O1 Dy1 O11 144.3(4) 4_575 1_655 ?
O7 Dy1 O11 94.6(3) 1_655 1_655 ?
O12 Dy1 O11 73.5(3) . 1_655 ?
O6 Dy1 O11 78.6(3) 1_655 1_655 ?
O11 Dy1 O11 143.3(5) 4_675 1_655 ?
O1 Dy1 O5 100.0(4) . 4_575 ?
O1 Dy1 O5 70.9(4) 4_575 4_575 ?
O7 Dy1 O5 146.4(4) 1_655 4_575 ?
O12 Dy1 O5 74.1(4) . 4_575 ?
O6 Dy1 O5 140.9(4) 1_655 4_575 ?
O11 Dy1 O5 68.6(4) 4_675 4_575 ?
O11 Dy1 O5 116.4(4) 1_655 4_575 ?
O1 Dy1 O5 70.9(4) . . ?
O1 Dy1 O5 100.0(4) 4_575 . ?
O7 Dy1 O5 146.4(4) 1_655 . ?
O12 Dy1 O5 74.1(4) . . ?
O6 Dy1 O5 140.9(4) 1_655 . ?
O11 Dy1 O5 116.4(4) 4_675 . ?
O11 Dy1 O5 68.6(4) 1_655 . ?
O5 Dy1 O5 50.5(5) 4_575 . ?
O1 Dy1 C21 98.0(5) . 1_655 ?
O1 Dy1 C21 98.0(5) 4_575 1_655 ?
O7 Dy1 C21 26.8(6) 1_655 1_655 ?
O12 Dy1 C21 103.7(5) . 1_655 ?
O6 Dy1 C21 27.0(6) 1_655 1_655 ?
O11 Dy1 C21 86.3(3) 4_675 1_655 ?
O11 Dy1 C21 86.3(3) 1_655 1_655 ?
O5 Dy1 C21 154.5(3) 4_575 1_655 ?
O5 Dy1 C21 154.5(3) . 1_655 ?
O1 Dy1 C14 85.2(4) . . ?
O1 Dy1 C14 85.2(4) 4_575 . ?
O7 Dy1 C14 157.1(6) 1_655 . ?
O12 Dy1 C14 72.3(5) . . ?
O6 Dy1 C14 149.1(5) 1_655 . ?
O11 Dy1 C14 92.5(3) 4_675 . ?
O11 Dy1 C14 92.5(3) 1_655 . ?
O5 Dy1 C14 25.2(2) 4_575 . ?
O5 Dy1 C14 25.2(2) . . ?
C21 Dy1 C14 176.1(6) 1_655 . ?
O2 Dy2 O5 76.4(4) . . ?
O2 Dy2 O9 131.7(5) . . ?
O5 Dy2 O9 94.6(4) . . ?
O2 Dy2 O3 143.6(4) . 1_556 ?
O5 Dy2 O3 74.7(5) . 1_556 ?
O9 Dy2 O3 72.4(6) . 1_556 ?
O2 Dy2 O10 77.7(4) . 1_655 ?
O5 Dy2 O10 119.9(4) . 1_655 ?
O9 Dy2 O10 141.1(4) . 1_655 ?
O3 Dy2 O10 98.2(6) 1_556 1_655 ?
O2 Dy2 O4 149.0(4) . 1_556 ?
O5 Dy2 O4 127.8(4) . 1_556 ?
O9 Dy2 O4 71.4(4) . 1_556 ?
O3 Dy2 O4 53.1(5) 1_556 1_556 ?
O10 Dy2 O4 73.1(4) 1_655 1_556 ?
O2 Dy2 N1 78.8(4) . 3_666 ?
O5 Dy2 N1 146.0(4) . 3_666 ?
O9 Dy2 N1 85.0(5) . 3_666 ?
O3 Dy2 N1 136.0(4) 1_556 3_666 ?
O10 Dy2 N1 76.1(4) 1_655 3_666 ?
O4 Dy2 N1 84.3(4) 1_556 3_666 ?
O2 Dy2 O8 79.6(4) . . ?
O5 Dy2 O8 78.4(4) . . ?
O9 Dy2 O8 52.2(5) . . ?
O3 Dy2 O8 115.1(5) 1_556 . ?
O10 Dy2 O8 145.8(4) 1_655 . ?
O4 Dy2 O8 120.6(4) 1_556 . ?
N1 Dy2 O8 74.6(5) 3_666 . ?
O2 Dy2 O11 76.2(4) . 1_655 ?
O5 Dy2 O11 69.6(4) . 1_655 ?
O9 Dy2 O11 145.0(5) . 1_655 ?
O3 Dy2 O11 73.3(5) 1_556 1_655 ?
O10 Dy2 O11 52.0(4) 1_655 1_655 ?
O4 Dy2 O11 93.5(4) 1_556 1_655 ?
N1 Dy2 O11 125.8(4) 3_666 1_655 ?
O8 Dy2 O11 143.5(4) . 1_655 ?
O2 Dy2 C8 160.9(5) . 1_556 ?
O5 Dy2 C8 101.4(5) . 1_556 ?
O9 Dy2 C8 67.1(5) . 1_556 ?
O3 Dy2 C8 26.8(5) 1_556 1_556 ?
O10 Dy2 C8 87.5(5) 1_655 1_556 ?
O4 Dy2 C8 26.5(5) 1_556 1_556 ?
N1 Dy2 C8 109.5(5) 3_666 1_556 ?
O8 Dy2 C8 118.9(5) . 1_556 ?
O11 Dy2 C8 85.2(4) 1_655 1_556 ?
O2 Dy2 C28 105.9(5) . . ?
O5 Dy2 C28 86.5(4) . . ?
O9 Dy2 C28 25.9(5) . . ?
O3 Dy2 C28 93.9(6) 1_556 . ?
O10 Dy2 C28 153.0(4) 1_655 . ?
O4 Dy2 C28 95.7(5) 1_556 . ?
N1 Dy2 C28 78.4(5) 3_666 . ?
O8 Dy2 C28 26.3(5) . . ?
O11 Dy2 C28 155.0(4) 1_655 . ?
C8 Dy2 C28 92.8(6) 1_556 . ?
O2 Dy2 C35 75.0(4) . 1_655 ?
O5 Dy2 C35 95.1(4) . 1_655 ?
O9 Dy2 C35 153.2(4) . 1_655 ?
O3 Dy2 C35 86.1(5) 1_556 1_655 ?
O10 Dy2 C35 25.6(4) 1_655 1_655 ?
O4 Dy2 C35 83.0(4) 1_556 1_655 ?
N1 Dy2 C35 100.5(4) 3_666 1_655 ?
O8 Dy2 C35 154.6(4) . 1_655 ?
O11 Dy2 C35 26.4(4) 1_655 1_655 ?
C8 Dy2 C35 86.4(5) 1_556 1_655 ?
C28 Dy2 C35 178.4(5) . 1_655 ?
C1 O1 Dy1 143.6(10) . . ?
C1 O2 Dy2 135.0(10) . . ?
C8 O3 Dy2 94.5(11) . 1_554 ?
C8 O4 Dy2 90.5(11) . 1_554 ?
C21 O6 Dy1 92.0(14) . 1_455 ?
C21 O7 Dy1 95.2(14) . 1_455 ?
C28 O8 Dy2 90.7(11) . . ?
C28 O9 Dy2 97.3(11) . . ?
C35 O10 Dy2 97.8(9) . 1_455 ?
C35 O11 Dy1 148.9(9) . 1_455 ?
C35 O11 Dy2 92.1(8) . 1_455 ?
Dy1 O11 Dy2 110.0(4) 1_455 1_455 ?
Dy1 O12 H12B 103.9 . . ?
Dy1 O12 H12B 103.9(2) . 4_575 ?
H12B O12 H12B 78.1 . 4_575 ?
C12 N1 C11 114.0(14) . . ?
C12 N1 Dy2 125.4(10) . 3_666 ?
C11 N1 Dy2 120.2(11) . 3_666 ?
O2 C1 O1 127.8(15) . . ?
O2 C1 C2 116.9(15) . . ?
O1 C1 C2 115.3(14) . . ?
C3 C2 C7 117.5(17) . . ?
C3 C2 C1 119.6(17) . . ?
C7 C2 C1 122.9(15) . . ?
C2 C3 C4 121(2) . . ?
C2 C3 H3 119.6 . . ?
C4 C3 H3 119.6 . . ?
C5 C4 C3 121(2) . . ?
C5 C4 H4 119.7 . . ?
C3 C4 H4 119.7 . . ?
C4 C5 C6 120.1(17) . . ?
C4 C5 C8 114.9(16) . . ?
C6 C5 C8 125.0(16) . . ?
C5 C6 C7 118.2(16) . . ?
C5 C6 C9 125.8(14) . . ?
C7 C6 C9 116.0(15) . . ?
C2 C7 C6 122.7(15) . . ?
C2 C7 H7 118.7 . . ?
C6 C7 H7 118.7 . . ?
O4 C8 O3 120.8(15) . . ?
O4 C8 C5 122.5(17) . . ?
O3 C8 C5 116.7(18) . . ?
O4 C8 Dy2 63.0(9) . 1_554 ?
O3 C8 Dy2 58.7(9) . 1_554 ?
C5 C8 Dy2 168.1(15) . 1_554 ?
C10 C9 C13 115.9(16) . . ?
C10 C9 C6 119.6(15) . . ?
C13 C9 C6 124.5(15) . . ?
C11 C10 C9 119.4(17) . . ?
C11 C10 H10 120.3 . . ?
C9 C10 H10 120.3 . . ?
N1 C11 C10 125.5(17) . . ?
N1 C11 H11 117.2 . . ?
C10 C11 H11 117.3 . . ?
N1 C12 C13 125.6(15) . . ?
N1 C12 H12 117.2 . . ?
C13 C12 H12 117.2 . . ?
C12 C13 C9 119.7(16) . . ?
C12 C13 H13 120.2 . . ?
C9 C13 H13 120.2 . . ?
O5 C14 O5 121(2) 4_575 . ?
O5 C14 C15 119.5(10) 4_575 . ?
O5 C14 C15 119.5(10) . . ?
O5 C14 Dy1 60.3(10) 4_575 . ?
O5 C14 Dy1 60.3(10) . . ?
C15 C14 Dy1 174.7(13) . . ?
C16 C15 C20 119.3(11) . . ?
C16 C15 C14 115.7(14) . . ?
C20 C15 C14 124.9(14) . . ?
C17 C18 C19 119.8(11) . . ?
C17 C18 C21 121.2(15) . . ?
C19 C18 C21 118.9(15) . . ?
O7 C21 O6 119(2) . . ?
O7 C21 C18 119.6(19) . . ?
O6 C21 C18 121.5(19) . . ?
O7 C21 Dy1 57.9(12) . 1_455 ?
O6 C21 Dy1 61.0(12) . 1_455 ?
C18 C21 Dy1 177.5(14) . 1_455 ?
C14 O5 Dy2 151.3(11) . . ?
C14 O5 Dy1 94.5(11) . . ?
Dy2 O5 Dy1 111.2(4) . . ?
C17 C16 C15 120.8(11) . . ?
C17 C16 H16 119.6 . . ?
C15 C16 H16 119.6 . . ?
C16 C17 C18 119.8(11) . . ?
C16 C17 H17 120.1 . . ?
C18 C17 H17 120.1 . . ?
C20 C19 C18 120.0(12) . . ?
C20 C19 H19 120.0 . . ?
C18 C19 H19 120.0 . . ?
C19 C20 C15 120.2(12) . . ?
C19 C20 C27 116.9(16) . . ?
C15 C20 C27 122.8(17) . . ?
C24 C23 C27 120.0 . . ?
C24 C23 H23 120.0 . . ?
C27 C23 H23 120.0 . . ?
N3 C24 C23 120.0 . . ?
N3 C24 H24 120.0 . . ?
C23 C24 H24 120.0 . . ?
C24 N3 C25 120.0 . . ?
C24 N3 H3A 120.0 . . ?
C25 N3 H3A 120.0 . . ?
N3 C25 C26 120.0 . . ?
N3 C25 H25 120.0 . . ?
C26 C25 H25 120.0 . . ?
C25 C26 C27 120.0 . . ?
C25 C26 H26 120.0 . . ?
C27 C26 H26 120.0 . . ?
C26 C27 C23 120.0 . . ?
C26 C27 C20 122.6(17) . . ?
C23 C27 C20 116.9(17) . . ?
O9 C28 O8 119.7(16) . . ?
O9 C28 C29 118.3(17) . . ?
O8 C28 C29 122.0(17) . . ?
O9 C28 Dy2 56.8(9) . . ?
O8 C28 Dy2 62.9(9) . . ?
C29 C28 Dy2 175.0(13) . . ?
C30A C29 C34A 119.3(10) . . ?
C34 C29 C30 117.6(11) . . ?
C30A C29 C28 122.9(15) . . ?
C34 C29 C28 120.5(13) . . ?
C34A C29 C28 117.8(15) . . ?
C30 C29 C28 120.4(13) . . ?
C31A C32 C33A 120.2(10) . . ?
C33 C32 C31 117.4(11) . . ?
C31A C32 C35 117.4(13) . . ?
C33 C32 C35 123.5(12) . . ?
C33A C32 C35 122.3(13) . . ?
C31 C32 C35 116.4(12) . . ?
O10 C35 O11 118.1(12) . . ?
O10 C35 C32 122.1(15) . . ?
O11 C35 C32 119.7(14) . . ?
O10 C35 Dy2 56.7(7) . 1_455 ?
O11 C35 Dy2 61.5(7) . 1_455 ?
C32 C35 Dy2 176.2(10) . 1_455 ?
C31 C30 C29 119.4(11) . . ?
C31 C30 H30 120.3 . . ?
C29 C30 H30 120.3 . . ?
C30 C31 C32 120.2(11) . . ?
C30 C31 H31 119.9 . . ?
C32 C31 H31 119.9 . . ?
C34 C33 C32 119.7(11) . . ?
C34 C33 C36 114.2(17) . . ?
C32 C33 C36 125.3(18) . . ?
C29 C34 C33 120.5(11) . . ?
C29 C34 H34 119.7 . . ?
C33 C34 H34 119.7 . . ?
C40 C36 C37 122(3) . . ?
C40 C36 C33 121(3) . . ?
C37 C36 C33 117(3) . . ?
C38 C37 C36 110(3) . . ?
C38 C37 H37 124.8 . . ?
C36 C37 H37 124.8 . . ?
C37 C38 N2 133(4) . . ?
C37 C38 H38 113.4 . . ?
N2 C38 H38 113.4 . . ?
C38 N2 C39 109(3) . . ?
C40 C39 N2 129(4) . . ?
C40 C39 H39 115.3 . . ?
N2 C39 H39 115.3 . . ?
C39 C40 C36 116(4) . . ?
C39 C40 H40 122.1 . . ?
C36 C40 H40 122.1 . . ?
C29 C30A C31A 120.3(12) . . ?
C29 C30A H30A 119.8 . . ?
C31A C30A H30A 119.8 . . ?
C32 C31A C30A 120.4(12) . . ?
C32 C31A H31A 119.8 . . ?
C30A C31A H31A 119.8 . . ?
C34A C33A C32 119.2(12) . . ?
C34A C33A C36A 117.9(19) . . ?
C32 C33A C36A 123(2) . . ?
C33A C34A C29 120.6(12) . . ?
C33A C34A H34A 119.7 . . ?
C29 C34A H34A 119.7 . . ?
C37A C36A C40A 119(5) . . ?
C37A C36A C33A 123(4) . . ?
C40A C36A C33A 118(4) . . ?
C36A C37A C38A 122(5) . . ?
C36A C37A H37A 119.2 . . ?
C38A C37A H37A 119.2 . . ?
N2A C38A C37A 125(5) . . ?
N2A C38A H38A 117.6 . . ?
C37A C38A H38A 117.6 . . ?
C39A N2A C38A 114(4) . . ?
N2A C39A C40A 126(5) . . ?
N2A C39A H39A 117.2 . . ?
C40A C39A H39A 117.2 . . ?
C36A C40A C39A 115(4) . . ?
C36A C40A H40A 122.7 . . ?
C39A C40A H40A 122.7 . . ?
loop_
_geom_bond_atom_site_label_1
_geom_bond_atom_site_label_2
_geom_bond_distance
_geom_bond_site_symmetry_2
_geom_bond_publ_flag
Dy1 O1 2.337(11) . ?
Dy1 O1 2.337(11) 4_575 ?
Dy1 O7 2.343(18) 1_655 ?
Dy1 O12 2.402(14) . ?
Dy1 O6 2.411(17) 1_655 ?
Dy1 O11 2.417(12) 4_675 ?
Dy1 O11 2.417(12) 1_655 ?
Dy1 O5 2.563(11) 4_575 ?
Dy1 O5 2.563(11) . ?
Dy1 C21 2.75(2) 1_655 ?
Dy1 C14 2.94(2) . ?
Dy2 O2 2.314(10) . ?
Dy2 O5 2.367(11) . ?
Dy2 O9 2.368(13) . ?
Dy2 O3 2.387(13) 1_556 ?
Dy2 O10 2.446(11) 1_655 ?
Dy2 O4 2.482(12) 1_556 ?
Dy2 N1 2.483(13) 3_666 ?
Dy2 O8 2.500(13) . ?
Dy2 O11 2.551(12) 1_655 ?
Dy2 C8 2.787(16) 1_556 ?
Dy2 C28 2.807(16) . ?
Dy2 C35 2.901(13) 1_655 ?
O1 C1 1.26(2) . ?
O2 C1 1.233(19) . ?
O3 C8 1.26(2) . ?
O4 C8 1.24(2) . ?
O6 C21 1.25(3) . ?
O7 C21 1.25(3) . ?
O8 C28 1.25(2) . ?
O9 C28 1.24(2) . ?
O10 C35 1.263(18) . ?
O11 C35 1.292(19) . ?
O12 H12B 0.8427 . ?
O12 H12B 0.8427 4_575 ?
N1 C12 1.34(2) . ?
N1 C11 1.35(2) . ?
C1 C2 1.50(2) . ?
C2 C3 1.39(3) . ?
C2 C7 1.39(2) . ?
C3 C4 1.40(3) . ?
C3 H3 0.9500 . ?
C4 C5 1.37(3) . ?
C4 H4 0.9500 . ?
C5 C6 1.40(2) . ?
C5 C8 1.52(2) . ?
C6 C7 1.40(2) . ?
C6 C9 1.48(2) . ?
C7 H7 0.9500 . ?
C9 C10 1.40(2) . ?
C9 C13 1.41(2) . ?
C10 C11 1.36(2) . ?
C10 H10 0.9500 . ?
C11 H11 0.9500 . ?
C12 C13 1.35(2) . ?
C12 H12 0.9500 . ?
C13 H13 0.9500 . ?
C14 O5 1.258(15) 4_575 ?
C14 O5 1.258(15) . ?
C14 C15 1.50(3) . ?
C15 C16 1.379(9) . ?
C15 C20 1.382(9) . ?
C18 C17 1.377(9) . ?
C18 C19 1.383(9) . ?
C18 C21 1.50(3) . ?
C16 C17 1.376(9) . ?
C16 H16 0.9500 . ?
C17 H17 0.9500 . ?
C19 C20 1.380(10) . ?
C19 H19 0.9500 . ?
C20 C27 1.56(2) . ?
C23 C24 1.3900 . ?
C23 C27 1.3900 . ?
C23 H23 0.9500 . ?
C24 N3 1.3900 . ?
C24 H24 0.9500 . ?
N3 C25 1.3900 . ?
N3 H3A 0.8800 . ?
C25 C26 1.3900 . ?
C25 H25 0.9500 . ?
C26 C27 1.3900 . ?
C26 H26 0.9500 . ?
C28 C29 1.514(19) . ?
C29 C30A 1.370(9) . ?
C29 C34 1.374(9) . ?
C29 C34A 1.389(9) . ?
C29 C30 1.390(9) . ?
C32 C31A 1.370(9) . ?
C32 C33 1.381(9) . ?
C32 C33A 1.384(10) . ?
C32 C31 1.387(9) . ?
C32 C35 1.490(17) . ?
C30 C31 1.380(10) . ?
C30 H30 0.9500 . ?
C31 H31 0.9500 . ?
C33 C34 1.378(10) . ?
C33 C36 1.51(4) . ?
C34 H34 0.9500 . ?
C36 C40 1.42(5) . ?
C36 C37 1.48(5) . ?
C37 C38 1.38(5) . ?
C37 H37 0.9500 . ?
C38 N2 1.39(5) . ?
C38 H38 0.9500 . ?
N2 C39 1.41(5) . ?
C39 C40 1.36(5) . ?
C39 H39 0.9500 . ?
C40 H40 0.9500 . ?
C30A C31A 1.375(10) . ?
C30A H30A 0.9500 . ?
C31A H31A 0.9500 . ?
C33A C34A 1.380(10) . ?
C33A C36A 1.67(5) . ?
C34A H34A 0.9500 . ?
C36A C37A 1.30(6) . ?
C36A C40A 1.37(7) . ?
C37A C38A 1.35(6) . ?
C37A H37A 0.9500 . ?
C38A N2A 1.34(6) . ?
C38A H38A 0.9500 . ?
N2A C39A 1.29(6) . ?
C39A C40A 1.46(6) . ?
C39A H39A 0.9500 . ?
C40A H40A 0.9500 . ?
loop_
_geom_torsion_atom_site_label_1
_geom_torsion_atom_site_label_2
_geom_torsion_atom_site_label_3
_geom_torsion_atom_site_label_4
_geom_torsion
_geom_torsion_site_symmetry_1
_geom_torsion_site_symmetry_2
_geom_torsion_site_symmetry_3
_geom_torsion_site_symmetry_4
_geom_torsion_publ_flag
Dy2 O2 C1 O1 0(3) . . . . ?
Dy2 O2 C1 C2 -178.8(11) . . . . ?
Dy1 O1 C1 O2 0(4) . . . . ?
Dy1 O1 C1 C2 178.7(13) . . . . ?
O2 C1 C2 C3 178(2) . . . . ?
O1 C1 C2 C3 -1(3) . . . . ?
O2 C1 C2 C7 -4(3) . . . . ?
O1 C1 C2 C7 177.9(18) . . . . ?
C7 C2 C3 C4 3(4) . . . . ?
C1 C2 C3 C4 -178(2) . . . . ?
C2 C3 C4 C5 -3(4) . . . . ?
C3 C4 C5 C6 0(4) . . . . ?
C3 C4 C5 C8 -179(2) . . . . ?
C4 C5 C6 C7 1(3) . . . . ?
C8 C5 C6 C7 -179.2(19) . . . . ?
C4 C5 C6 C9 -177(2) . . . . ?
C8 C5 C6 C9 2(3) . . . . ?
C3 C2 C7 C6 -2(3) . . . . ?
C1 C2 C7 C6 179.8(17) . . . . ?
C5 C6 C7 C2 -1(3) . . . . ?
C9 C6 C7 C2 177.8(17) . . . . ?
Dy2 O4 C8 O3 -10(2) 1_554 . . . ?
Dy2 O4 C8 C5 167.9(17) 1_554 . . . ?
Dy2 O3 C8 O4 11(2) 1_554 . . . ?
Dy2 O3 C8 C5 -167.5(15) 1_554 . . . ?
C4 C5 C8 O4 150(2) . . . . ?
C6 C5 C8 O4 -29(3) . . . . ?
C4 C5 C8 O3 -32(3) . . . . ?
C6 C5 C8 O3 149(2) . . . . ?
C4 C5 C8 Dy2 -96(7) . . . 1_554 ?
C6 C5 C8 Dy2 85(7) . . . 1_554 ?
C5 C6 C9 C10 133(2) . . . . ?
C7 C6 C9 C10 -45(2) . . . . ?
C5 C6 C9 C13 -46(3) . . . . ?
C7 C6 C9 C13 135.8(16) . . . . ?
C13 C9 C10 C11 2(2) . . . . ?
C6 C9 C10 C11 -177.6(15) . . . . ?
C12 N1 C11 C10 0(2) . . . . ?
Dy2 N1 C11 C10 172.2(14) 3_666 . . . ?
C9 C10 C11 N1 0(3) . . . . ?
C11 N1 C12 C13 -1(2) . . . . ?
Dy2 N1 C12 C13 -173.1(11) 3_666 . . . ?
N1 C12 C13 C9 3(2) . . . . ?
C10 C9 C13 C12 -3(2) . . . . ?
C6 C9 C13 C12 176.4(14) . . . . ?
O5 C14 C15 C16 -75.2(18) 4_575 . . . ?
O5 C14 C15 C16 111.1(16) . . . . ?
O5 C14 C15 C20 108.1(17) 4_575 . . . ?
O5 C14 C15 C20 -66(2) . . . . ?
Dy1 O7 C21 O6 0.000(7) 1_455 . . . ?
Dy1 O7 C21 C18 180.000(6) 1_455 . . . ?
Dy1 O6 C21 O7 0.000(6) 1_455 . . . ?
Dy1 O6 C21 C18 180.000(6) 1_455 . . . ?
C17 C18 C21 O7 161.7(9) . . . . ?
C19 C18 C21 O7 -20.9(11) . . . . ?
C17 C18 C21 O6 -18.3(9) . . . . ?
C19 C18 C21 O6 159.1(11) . . . . ?
O5 C14 O5 Dy2 154.2(11) 4_575 . . . ?
C15 C14 O5 Dy2 -32(3) . . . . ?
Dy1 C14 O5 Dy2 154(2) . . . . ?
O5 C14 O5 Dy1 0.2(19) 4_575 . . . ?
C15 C14 O5 Dy1 173.9(15) . . . . ?
C20 C15 C16 C17 -0.6(8) . . . . ?
C14 C15 C16 C17 -177.5(6) . . . . ?
C15 C16 C17 C18 -1.4(8) . . . . ?
C19 C18 C17 C16 3.7(16) . . . . ?
C21 C18 C17 C16 -178.9(6) . . . . ?
C17 C18 C19 C20 -4(2) . . . . ?
C21 C18 C19 C20 178.5(13) . . . . ?
C18 C19 C20 C15 2(2) . . . . ?
C18 C19 C20 C27 178(2) . . . . ?
C16 C15 C20 C19 0.2(18) . . . . ?
C14 C15 C20 C19 176.8(13) . . . . ?
C16 C15 C20 C27 -175.8(19) . . . . ?
C14 C15 C20 C27 1(2) . . . . ?
C27 C23 C24 N3 0.0 . . . . ?
C23 C24 N3 C25 0.0 . . . . ?
C24 N3 C25 C26 0.0 . . . . ?
N3 C25 C26 C27 0.0 . . . . ?
C25 C26 C27 C23 0.0 . . . . ?
C25 C26 C27 C20 171(2) . . . . ?
C24 C23 C27 C26 0.0 . . . . ?
C24 C23 C27 C20 -172(2) . . . . ?
C19 C20 C27 C26 -41(3) . . . . ?
C15 C20 C27 C26 135.4(17) . . . . ?
C19 C20 C27 C23 131.0(18) . . . . ?
C15 C20 C27 C23 -53(3) . . . . ?
Dy2 O9 C28 O8 -1(2) . . . . ?
Dy2 O9 C28 C29 179.0(14) . . . . ?
Dy2 O8 C28 O9 1.2(19) . . . . ?
Dy2 O8 C28 C29 -179.0(16) . . . . ?
O9 C28 C29 C30A -155(3) . . . . ?
O8 C28 C29 C30A 25(4) . . . . ?
O9 C28 C29 C34 -27(3) . . . . ?
O8 C28 C29 C34 154(2) . . . . ?
O9 C28 C29 C34A 27(3) . . . . ?
O8 C28 C29 C34A -152(3) . . . . ?
O9 C28 C29 C30 168(2) . . . . ?
O8 C28 C29 C30 -12(3) . . . . ?
Dy2 O10 C35 O11 2.1(14) 1_455 . . . ?
Dy2 O10 C35 C32 -175.7(11) 1_455 . . . ?
Dy1 O11 C35 O10 -138.3(15) 1_455 . . . ?
Dy2 O11 C35 O10 -2.0(13) 1_455 . . . ?
Dy1 O11 C35 C32 40(3) 1_455 . . . ?
Dy2 O11 C35 C32 175.8(11) 1_455 . . . ?
Dy1 O11 C35 Dy2 -136.2(18) 1_455 . . 1_455 ?
C31A C32 C35 O10 69(3) . . . . ?
C33 C32 C35 O10 -56(3) . . . . ?
C33A C32 C35 O10 -115(3) . . . . ?
C31 C32 C35 O10 104(2) . . . . ?
C31A C32 C35 O11 -109(3) . . . . ?
C33 C32 C35 O11 126(2) . . . . ?
C33A C32 C35 O11 67(3) . . . . ?
C31 C32 C35 O11 -73(2) . . . . ?
C34 C29 C30 C31 19(4) . . . . ?
C28 C29 C30 C31 -175(3) . . . . ?
C29 C30 C31 C32 -2(5) . . . . ?
C33 C32 C31 C30 -17(4) . . . . ?
C35 C32 C31 C30 -179(3) . . . . ?
C31 C32 C33 C34 19(4) . . . . ?
C35 C32 C33 C34 180(3) . . . . ?
C31 C32 C33 C36 -171(3) . . . . ?
C35 C32 C33 C36 -11(5) . . . . ?
C30 C29 C34 C33 -17(4) . . . . ?
C28 C29 C34 C33 177(3) . . . . ?
C32 C33 C34 C29 -2(5) . . . . ?
C36 C33 C34 C29 -173(3) . . . . ?
C34 C33 C36 C40 133(4) . . . . ?
C32 C33 C36 C40 -37(5) . . . . ?
C34 C33 C36 C37 -50(5) . . . . ?
C32 C33 C36 C37 140(3) . . . . ?
C40 C36 C37 C38 -6(5) . . . . ?
C33 C36 C37 C38 177(3) . . . . ?
C36 C37 C38 N2 9(6) . . . . ?
C37 C38 N2 C39 -7(6) . . . . ?
C38 N2 C39 C40 2(6) . . . . ?
N2 C39 C40 C36 -1(6) . . . . ?
C37 C36 C40 C39 3(5) . . . . ?
C33 C36 C40 C39 -180(3) . . . . ?
C34A C29 C30A C31A 2(6) . . . . ?
C28 C29 C30A C31A -176(3) . . . . ?
C33A C32 C31A C30A 3(6) . . . . ?
C35 C32 C31A C30A 179(4) . . . . ?
C29 C30A C31A C32 -3(7) . . . . ?
C31A C32 C33A C34A -2(5) . . . . ?
C35 C32 C33A C34A -178(3) . . . . ?
C31A C32 C33A C36A -178(4) . . . . ?
C35 C32 C33A C36A 6(5) . . . . ?
C32 C33A C34A C29 1(6) . . . . ?
C36A C33A C34A C29 177(3) . . . . ?
C30A C29 C34A C33A -1(6) . . . . ?
C28 C29 C34A C33A 177(3) . . . . ?
C34A C33A C36A C37A -132(5) . . . . ?
C32 C33A C36A C37A 44(6) . . . . ?
C34A C33A C36A C40A 49(6) . . . . ?
C32 C33A C36A C40A -135(4) . . . . ?
C40A C36A C37A C38A -5(8) . . . . ?
C33A C36A C37A C38A 176(4) . . . . ?
C36A C37A C38A N2A 4(8) . . . . ?
C37A C38A N2A C39A 0(7) . . . . ?
C38A N2A C39A C40A -3(7) . . . . ?
C37A C36A C40A C39A 2(7) . . . . ?
C33A C36A C40A C39A -179(4) . . . . ?
N2A C39A C40A C36A 2(7) . . . . ?
