#------------------------------------------------------------------------------
#$Date: 2020-11-06 14:16:49 +0200 (Fri, 06 Nov 2020) $
#$Revision: 258843 $
#$URL: file:///home/coder/svn-repositories/cod/cif/7/70/54/7705435.cif $
#------------------------------------------------------------------------------
#
# This file is available in the Crystallography Open Database (COD),
# http://www.crystallography.net/
#
# All data on this site have been placed in the public domain by the
# contributors.
#
data_7705435
loop_
_publ_author_name
'Zhang, Chengcheng'
'Ma, Xiufang'
'Cen, Peipei'
'Jin, Xiaoyong'
'Yang, Jinhui'
'Zhang, Yi-Quan'
'Ferrando-Soria, Jes\'us'
'Pardo, Emilio'
'Liu, Xiangyu'
_publ_section_title
;
 A series of lanthanide(III) metal-organic frameworks derived from a
 pyridyl-dicarboxylate ligand: single-molecule magnet behaviour and
 luminescence properties.
;
_journal_issue                   40
_journal_name_full
'Dalton transactions (Cambridge, England : 2003)'
_journal_page_first              14123
_journal_page_last               14132
_journal_paper_doi               10.1039/d0dt02736g
_journal_volume                  49
_journal_year                    2020
_chemical_formula_moiety         '0.5(C130 H75.89 Gd6 N10 O42), 1.5(H2 O)'
_chemical_formula_sum            'C65 H40.85 Gd3 N5 O22.5'
_chemical_formula_weight         1723.63
_space_group_crystal_system      monoclinic
_space_group_IT_number           11
_space_group_name_Hall           '-P 2yb'
_space_group_name_H-M_alt        'P 1 21/m 1'
_atom_sites_solution_hydrogens   mixed
_atom_sites_solution_primary     dual
_audit_creation_date             2020-06-17
_audit_creation_method
;
Olex2 1.2
(compiled 2018.05.29 svn.r3508 for OlexSys, GUI svn.r5506)
;
_audit_update_record
;
2020-07-29 deposited with the CCDC.	2020-09-15 downloaded from the CCDC.
;
_cell_angle_alpha                90
_cell_angle_beta                 102.164(7)
_cell_angle_gamma                90
_cell_formula_units_Z            2
_cell_length_a                   11.513(3)
_cell_length_b                   27.717(6)
_cell_length_c                   11.592(3)
_cell_measurement_reflns_used    9769
_cell_measurement_temperature    298.0
_cell_measurement_theta_max      27.26
_cell_measurement_theta_min      2.27
_cell_volume                     3616.0(15)
_computing_molecular_graphics    'Olex2 (Dolomanov et al., 2009)'
_computing_publication_material  'Olex2 (Dolomanov et al., 2009)'
_computing_structure_refinement  'ShelXL (Sheldrick, 2015)'
_computing_structure_solution    'ShelXT (Sheldrick, 2015)'
_diffrn_ambient_temperature      298.0
_diffrn_measured_fraction_theta_full 0.999
_diffrn_measured_fraction_theta_max 0.999
_diffrn_measurement_device_type  'Bruker APEX-II CCD'
_diffrn_measurement_method       '\f and \w scans'
_diffrn_radiation_type           MoK\a
_diffrn_radiation_wavelength     0.71073
_diffrn_reflns_av_R_equivalents  0.0645
_diffrn_reflns_av_unetI/netI     0.0397
_diffrn_reflns_Laue_measured_fraction_full 0.999
_diffrn_reflns_Laue_measured_fraction_max 0.999
_diffrn_reflns_limit_h_max       14
_diffrn_reflns_limit_h_min       -14
_diffrn_reflns_limit_k_max       35
_diffrn_reflns_limit_k_min       -35
_diffrn_reflns_limit_l_max       15
_diffrn_reflns_limit_l_min       -15
_diffrn_reflns_number            70947
_diffrn_reflns_point_group_measured_fraction_full 0.999
_diffrn_reflns_point_group_measured_fraction_max 0.999
_diffrn_reflns_theta_full        25.242
_diffrn_reflns_theta_max         27.482
_diffrn_reflns_theta_min         1.797
_diffrn_standards_number         0
_exptl_absorpt_coefficient_mu    2.793
_exptl_absorpt_correction_type   none
_exptl_crystal_colour            colourless
_exptl_crystal_colour_primary    colourless
_exptl_crystal_density_diffrn    1.583
_exptl_crystal_description       block
_exptl_crystal_F_000             1676
_exptl_crystal_size_max          0.16
_exptl_crystal_size_mid          0.15
_exptl_crystal_size_min          0.1
_refine_diff_density_max         1.165
_refine_diff_density_min         -1.414
_refine_diff_density_rms         0.142
_refine_ls_extinction_method     none
_refine_ls_goodness_of_fit_ref   1.050
_refine_ls_hydrogen_treatment    constr
_refine_ls_matrix_type           full
_refine_ls_number_parameters     666
_refine_ls_number_reflns         8437
_refine_ls_number_restraints     505
_refine_ls_restrained_S_all      1.029
_refine_ls_R_factor_all          0.0532
_refine_ls_R_factor_gt           0.0429
_refine_ls_shift/su_max          0.001
_refine_ls_shift/su_mean         0.000
_refine_ls_structure_factor_coef Fsqd
_refine_ls_weighting_details
'w=1/[\s^2^(Fo^2^)+(0.0474P)^2^+15.2618P] where P=(Fo^2^+2Fc^2^)/3'
_refine_ls_weighting_scheme      calc
_refine_ls_wR_factor_gt          0.1031
_refine_ls_wR_factor_ref         0.1086
_reflns_Friedel_coverage         0.000
_reflns_number_gt                7061
_reflns_number_total             8437
_reflns_threshold_expression     'I > 2\s(I)'
_cod_data_source_file            d0dt02736g16.cif
_cod_data_source_block           an1gd_sq
_cod_depositor_comments
'Adding full bibliography for 7705434--7705437.cif.'
_cod_original_cell_volume        3616.0(14)
_cod_original_formula_sum        'C65 H40.85 Gd3 N5 O22.50'
_cod_database_code               7705435
_shelx_shelxl_version_number     2018/3
_shelx_space_group_comment
;
The symmetry employed for this shelxl refinement is uniquely defined
by the following loop, which should always be used as a source of
symmetry information in preference to the above space-group names.
They are only intended as comments.
;
_shelx_estimated_absorpt_t_max   0.768
_shelx_estimated_absorpt_t_min   0.663
_olex2_refinement_description
;
1. Fixed Uiso
 At 1.2 times of:
  All C(H) groups, All C(H,H) groups, All N(H) groups
 At 1.5 times of:
  All O(H) groups, All O(H,H) groups
2. Restrained distances
 C18-C17 \\sim C18A-C17
 with sigma of 0.02
 C19A-C18A \\sim C19-C18
 with sigma of 0.02
 C20-C19 \\sim C20A-C19A
 with sigma of 0.02
 C20A-C15A \\sim C20-C15
 with sigma of 0.02
 C16-C15 \\sim C16-C15A
 with sigma of 0.02
 C15-C14 \\sim C15A-C14A
 with sigma of 0.02
 O5-C14A \\sim O5-C14
 with sigma of 0.02
 O4A-C14A \\sim O4-C14
 with sigma of 0.02
 O6-C26 \\sim O6A-C26A
 with sigma of 0.02
 C26-C18 \\sim C26A-C18A
 with sigma of 0.02
 O19-C27 \\sim O9-C27
 with sigma of 0.02
 Gd2-O19 \\sim Gd2-O9
 with sigma of 0.02
3. Restrained planarity
 C14A, C15A, C16, C17, C19A, C20A, C18A, C26A
 with sigma of 0.1
 O6A, O7A, C18A, C26A
 with sigma of 0.1
 O4A, O5, C14A, C15A
 with sigma of 0.1
4. Rigid body (RIGU) restrains
 N1, C2, C3, C4, C5, C6, C7, C8, C9, C10, C11, C12
 with sigma for 1-2 distances of 0.001 and sigma for 1-3 distances of 0.002
 O4, O5, O6, O7, C14, C15, C16, C18, C19, C20, C26, C17
 with sigma for 1-2 distances of 0.001 and sigma for 1-3 distances of 0.002
 O4A, O5, O6A, O7A, C14A, C15A, C16, C17, C18A, C19A, C20A, C26A
 with sigma for 1-2 distances of 0.001 and sigma for 1-3 distances of 0.002
 O8, O9, O10, O11, N3, C00D, C27, C28, C29, C30, C31, C32, C33, C34, C35, C36,
 C37, C38
 with sigma for 1-2 distances of 0.001 and sigma for 1-3 distances of 0.002
 O8, O9, O10, O11, N7, C00D, C27, C28, C29A, C30A, C31, C32A, C33A, C34A, C35A,
  C36A, C37A, C38A
 with sigma for 1-2 distances of 0.001 and sigma for 1-3 distances of 0.002
5. Others
 Sof(N7)=Sof(H7)=Sof(C29A)=Sof(H29A)=Sof(C30A)=Sof(C32A)=Sof(H32A)=Sof(C33A)=
 Sof(H33A)=Sof(C34A)=Sof(C35A)=Sof(H35A)=Sof(C36A)=Sof(H36A)=Sof(C37A)=
 Sof(H37A)=Sof(C38A)=Sof(H38A)=Sof(O19)=1-FVAR(1)
 Sof(O9)=Sof(N3)=Sof(C29)=Sof(H29)=Sof(C30)=Sof(C32)=Sof(H32)=Sof(C33)=
 Sof(H33)=Sof(C34)=Sof(C35)=Sof(H35)=Sof(C36)=Sof(H36)=Sof(C37)=Sof(H37)=
 Sof(C38)=Sof(H38)=FVAR(1)
 Sof(O4A)=Sof(O6A)=Sof(O7A)=Sof(C14A)=Sof(C15A)=Sof(H16A)=Sof(C18A)=Sof(C19A)=
 Sof(H19A)=Sof(C20A)=Sof(H20A)=Sof(C26A)=1-FVAR(2)
 Sof(O4)=Sof(O6)=Sof(O7)=Sof(C14)=Sof(C15)=Sof(H16)=Sof(C18)=Sof(C19)=Sof(H19)=
 Sof(C20)=Sof(H20)=Sof(C26)=FVAR(2)
 Fixed Sof: C3(0.5) H3(0.5) C4(0.5) C6(0.5) H6(0.5) C7(0.5) H7A(0.5) C8(0.5)
 C9(0.5) H9(0.5) C10(0.5) H10(0.5) N1(0.5) C11(0.5) H11(0.5) C12(0.5) H12A(0.5)
 O13(0.5) H13A(0.5) H13B(0.5) O14(0.25) H14A(0.25) H14B(0.25)
6.a Riding coordinates:
 O12(H12), O13(H13A,H13B), O14(H14A,H14B)
6.b Aromatic/amide H refined with riding coordinates:
 N7(H7), C3(H3), C6(H6), C7(H7A), C9(H9), C10(H10), C11(H11), C12(H12A),
 C16(H16), C16(H16A), C19(H19), C19A(H19A), C20(H20), C20A(H20A), C22(H22),
 C23(H23), C24(H24), C25(H25), C29(H29), C29A(H29A), C32(H32), C32A(H32A),
 C33(H33), C33A(H33A), C35(H35), C35A(H35A), C36(H36), C36A(H36A), C37(H37),
 C37A(H37A), C38(H38), C38A(H38A)
6.c Fitted hexagon refined as free rotating group:
 C8(C9,C10,N1,C11,C12)
;
_shelx_res_file
;
TITL an1gd_a.res in P2(1)/m
    an1gd_sq.res
    created by SHELXL-2018/3 at 21:27:29 on 17-Jun-2020
REM Old TITL An1Gd in P2(1)/m
REM SHELXT solution in P2(1)/m: R1 0.119, Rweak 0.008, Alpha 0.074
REM <I/s> 1.064 for 16 systematic absences, Orientation as input
REM Formula found by SHELXT: C58 N13 O21 Gd3
CELL 0.71073 11.5129 27.7167 11.592 90 102.164 90
ZERR 2 0.0025 0.0061 0.0025 0 0.007 0
LATT 1
SYMM -X,0.5+Y,-Z
SFAC C H Gd N O
UNIT 130 81.71 6 10 45
EQIV $1 +X,1.5-Y,+Z
EQIV $2 -1+X,+Y,+Z
EQIV $3 -1+X,1.5-Y,+Z
EQIV $4 +X,+Y,1+Z
SADI C18 C17 C18A C17
SADI C19A C18A C19 C18
SADI C20 C19 C20A C19A
SADI C20A C15A C20 C15
SADI C16 C15 C16 C15A
SADI C15 C14 C15A C14A
SADI O5 C14A O5 C14
SADI O4A C14A O4 C14
SADI O6 C26 O6A C26A
SADI C26 C18 C26A C18A
SADI O19 C27 O9 C27
SADI Gd2 O19 Gd2 O9
FLAT C14A C15A C16 C17 C19A C20A C18A C26A
FLAT O6A O7A C18A C26A
FLAT O4A O5 C14A C15A
RIGU 0.001 0.002 N1 C2 > C10 C11 C12
RIGU 0.001 0.002 O4 O5 O6 O7 C14 C15 C16 C18 C19 C20 C26 C17
RIGU 0.001 0.002 O4A O5 O6A O7A C14A C15A C16 C17 C18A C19A C20A C26A
RIGU 0.001 0.002 O8 > O11 N3 C00D C27 C28 C29 C30 C31 C32 C33 C34 C35 C36 =
 C37 C38
RIGU 0.001 0.002 O8 > O11 N7 C00D C27 C28 C29A C30A C31 C32A C33A C34A C35A =
 C36A C37A C38A

L.S. 5 0 30
PLAN  2
SIZE 0.1 0.15 0.16
TEMP 24.85
FREE C00D Gd2_$2
FREE Gd1 C1
FREE Gd1 C1_$1
FREE Gd1 C13_$3
FREE Gd1 C13_$2
FREE Gd2 C27
FREE Gd2 C26_$4
BOND $H
conf
more -1
list 4
ABIN
fmap 2 53
acta
OMIT 0 2 0
OMIT 0 2 1
OMIT -1 0 1
OMIT 1 2 1
REM <olex2.extras>
REM <HklSrc "%.\\An1Gd_sq.hkl">
REM </olex2.extras>

WGHT    0.047400   15.261801
FVAR       0.18726   0.52842   0.56296
GD1   3    0.771501    0.750000    0.823547    10.50000    0.01762    0.03317 =
         0.01873    0.00000    0.00532    0.00000
GD2   3    0.590977    0.626027    0.873516    11.00000    0.02172    0.03260 =
         0.01955   -0.00215    0.00703   -0.00252
O1    5    0.979310    0.750000    0.925491    10.50000    0.02017    0.08748 =
         0.04239    0.00000    0.00963    0.00000
O2    5    0.941130    0.750000    0.735297    10.50000    0.02175    0.14647 =
         0.04210    0.00000    0.01368    0.00000
O3    5    1.569055    0.789127    0.833438    11.00000    0.02100    0.03398 =
         0.03700   -0.00095    0.00750   -0.00316
PART 1
O4    5    0.700547    0.701917    0.656108    31.00000    0.03823    0.04718 =
         0.02013   -0.00682    0.00425   -0.01484
PART 0
PART 2
O4A   5    0.729848    0.696007    0.663399   -31.00000    0.03530    0.04236 =
         0.02302   -0.00646    0.00953   -0.00889
PART 0
O5    5    0.612091    0.631768    0.676841    11.00000    0.04596    0.04582 =
         0.02230   -0.00311    0.01246   -0.01182
O12   5    0.756667    0.750000    1.030771    10.50000    0.03945    0.03808 =
         0.02712    0.00000    0.00833    0.00000
AFIX   3
H12   2    0.723247    0.724120    1.046002    11.00000   -1.50000
AFIX   0
PART 1
O6    5    0.620286    0.670256    0.059483    31.00000    0.06540    0.03318 =
         0.02740   -0.00057    0.01596   -0.00426
PART 0
PART 2
O6A   5    0.663732    0.659667    0.066939   -31.00000    0.05957    0.03192 =
         0.02137   -0.00279    0.00625   -0.01290
PART 0
PART 1
O7    5    0.654455    0.592229    0.073838    31.00000    0.03648    0.03413 =
         0.02015    0.00146    0.00629   -0.00189
PART 0
PART 2
O7A   5    0.637928    0.581212    0.073377   -31.00000    0.05104    0.03258 =
         0.03097   -0.00354    0.01656   -0.01043
PART 0
O8    5    0.375531    0.630116    0.770339    11.00000    0.02897    0.08162 =
         0.05542   -0.01439    0.01600   -0.00937
PART -1
O9    5    0.420328    0.632300    0.963730    21.00000    0.02480    0.08330 =
         0.05405    0.02520    0.01756    0.00207
PART 0
O10   5   -0.203315    0.666137    0.891260    11.00000    0.02641    0.03928 =
         0.03955    0.00703    0.00808    0.00514
O11   5   -0.213235    0.587193    0.882951    11.00000    0.02585    0.04230 =
         0.05616   -0.00258    0.01326   -0.00124
N2    4    0.460568    0.458821    0.199660    11.00000    0.04480    0.03533 =
         0.03028   -0.00367    0.00269   -0.00664
PART -1
N3    4   -0.000738    0.530764    1.285021    21.00000    0.09874    0.11771 =
         0.06226    0.02420    0.02921    0.02697
PART 0
PART -2
N7    4   -0.005318    0.676371    1.336332   -21.00000    0.10218    0.17895 =
         0.09526   -0.03336    0.06619   -0.03478
AFIX  43
H7    2   -0.008229    0.681320    1.408908   -21.00000   -1.20000
AFIX   0
PART 0
C00D  1   -0.154650    0.625322    0.887816    11.00000    0.02109    0.04016 =
         0.03012    0.00457    0.00826    0.00288
C1    1    1.014237    0.750000    0.832160    10.50000    0.01998    0.03344 =
         0.04077    0.00000    0.00913    0.00000
C2    1    1.145252    0.750000    0.831856    10.50000    0.02171    0.04423 =
         0.04338    0.00000    0.00839    0.00000
PART -1
C3    1    1.181763    0.766208    0.729176    10.50000    0.02241    0.05751 =
         0.03731    0.00027    0.00382   -0.00136
AFIX  43
H3    2    1.126067    0.777109    0.664293    10.50000   -1.20000
AFIX   0
C4    1    1.300477    0.765616    0.726683    10.50000    0.02224    0.05715 =
         0.03964    0.00271    0.00418   -0.00066
PART 0
C5    1    1.383506    0.750000    0.827153    10.50000    0.01745    0.03378 =
         0.03793    0.00000    0.00824    0.00000
PART -1
C6    1    1.346141    0.737818    0.927845    10.50000    0.02061    0.05316 =
         0.03907    0.00625    0.00865    0.00339
AFIX  43
H6    2    1.401345    0.728780    0.995047    10.50000   -1.20000
AFIX   0
C7    1    1.225020    0.738928    0.929946    10.50000    0.02190    0.04923 =
         0.04235    0.00294    0.01143    0.00190
AFIX  43
H7A   2    1.200059    0.731983    0.999378    10.50000   -1.20000
AFIX  66
C8    1    1.336778    0.777933    0.610759    10.50000    0.02165    0.12120 =
         0.03598    0.00684   -0.00018   -0.01220
C9    1    1.404025    0.745557    0.560619    10.50000    0.05648    0.14971 =
         0.05785    0.00692    0.02305    0.00931
AFIX  43
H9    2    1.431225    0.717186    0.600035    10.50000   -1.20000
AFIX  65
C10   1    1.430618    0.755586    0.451569    10.50000    0.09200    0.22775 =
         0.06980    0.03053    0.04218    0.03023
AFIX  43
H10   2    1.475611    0.733924    0.418022    10.50000   -1.20000
AFIX  65
N1    4    1.389964    0.797990    0.392657    10.50000    0.07285    0.21053 =
         0.05645    0.01627    0.01154    0.00313
C11   1    1.322717    0.830367    0.442796    10.50000    0.09732    0.18386 =
         0.05833    0.03190    0.02961   -0.00028
AFIX  43
H11   2    1.295517    0.858738    0.403379    10.50000   -1.20000
AFIX  65
C12   1    1.296123    0.820338    0.551846    10.50000    0.06416    0.13059 =
         0.04421    0.01815    0.00871   -0.00071
AFIX  43
H12A  2    1.251131    0.842000    0.585392    10.50000   -1.20000
AFIX   0
PART 0
C13   1    1.514695    0.750000    0.830102    10.50000    0.01748    0.03503 =
         0.01828    0.00000    0.00271    0.00000
PART 1
C14   1    0.652686    0.662778    0.616625    31.00000    0.02205    0.04125 =
         0.01908   -0.00200    0.00121   -0.00594
PART 0
PART 2
C14A  1    0.670891    0.659290    0.625125   -31.00000    0.02744    0.03641 =
         0.01957   -0.00036    0.00396   -0.00194
PART 0
PART 1
C15   1    0.647478    0.652317    0.486883    31.00000    0.05324    0.04528 =
         0.02117   -0.00454    0.00909   -0.01537
PART 0
PART 2
C15A  1    0.665526    0.647537    0.496300   -31.00000    0.04031    0.04111 =
         0.02090   -0.00175    0.00917   -0.01049
PART 0
C16   1    0.606031    0.607785    0.439795    11.00000    0.04207    0.04135 =
         0.02201   -0.00235    0.00917   -0.01037
PART 1
AFIX  43
H16   2    0.581566    0.584727    0.487899    31.00000   -1.20000
AFIX  43
PART 0
PART 2
H16A  2    0.567879    0.587088    0.482951   -31.00000   -1.20000
AFIX   0
PART 0
C17   1    0.600915    0.597473    0.320793    11.00000    0.04062    0.04026 =
         0.02190   -0.00336    0.00835   -0.01165
PART 1
C18   1    0.631117    0.636444    0.250219    31.00000    0.02577    0.03836 =
         0.02538   -0.00111    0.00864   -0.00467
PART 0
PART 2
C18A  1    0.662397    0.626880    0.253488   -31.00000    0.01812    0.02932 =
         0.02452    0.00205    0.00460    0.00475
PART 0
PART 1
C19   1    0.672248    0.681179    0.301145    31.00000    0.06709    0.04496 =
         0.02816   -0.00313    0.01371   -0.02157
AFIX  43
H19   2    0.694623    0.705246    0.254319    31.00000   -1.20000
AFIX   0
PART 0
PART 2
C19A  1    0.719773    0.667268    0.311182   -31.00000    0.03881    0.03436 =
         0.02286    0.00135    0.00898   -0.00606
AFIX  43
H19A  2    0.756176    0.688880    0.268629   -31.00000   -1.20000
AFIX   0
PART 0
PART 1
C20   1    0.679524    0.689486    0.419520    31.00000    0.08270    0.04938 =
         0.02868   -0.00548    0.01559   -0.02774
AFIX  43
H20   2    0.705116    0.719083    0.453355    31.00000   -1.20000
AFIX   0
PART 0
PART 2
C20A  1    0.724311    0.676220    0.429283   -31.00000    0.03760    0.03787 =
         0.02346   -0.00223    0.00871   -0.01019
AFIX  43
H20A  2    0.768315    0.702380    0.464924   -31.00000   -1.20000
AFIX   0
PART 0
C21   1    0.549451    0.550170    0.275803    11.00000    0.04223    0.03903 =
         0.02330   -0.00085    0.01011   -0.00658
C22   1    0.585048    0.509157    0.342185    11.00000    0.05923    0.04593 =
         0.02929   -0.00222   -0.00291   -0.00910
AFIX  43
H22   2    0.639478    0.511511    0.413678    11.00000   -1.20000
AFIX   0
C23   1    0.539044    0.464487    0.301450    11.00000    0.06170    0.03798 =
         0.03261    0.00002   -0.00050   -0.00310
AFIX  43
H23   2    0.564005    0.437331    0.347089    11.00000   -1.20000
AFIX   0
C24   1    0.424200    0.498644    0.138123    11.00000    0.04263    0.04046 =
         0.02957   -0.00366    0.00017    0.00007
AFIX  43
H24   2    0.368216    0.495431    0.067899    11.00000   -1.20000
AFIX   0
C25   1    0.464616    0.544201    0.172400    11.00000    0.04020    0.04088 =
         0.03144   -0.00188    0.00021   -0.00413
AFIX  43
H25   2    0.435288    0.570823    0.126589    11.00000   -1.20000
AFIX   0
PART 1
C26   1    0.635835    0.631548    0.121821    31.00000    0.03496    0.03338 =
         0.02714   -0.00062    0.01248   -0.00640
PART 0
PART 2
C26A  1    0.653245    0.620811    0.122998   -31.00000    0.02309    0.03090 =
         0.02510    0.00003    0.00494   -0.00327
PART 0
C27   1    0.342724    0.624614    0.864533    11.00000    0.02466    0.04053 =
         0.06239    0.00910    0.01737    0.00505
C28   1    0.212689    0.621835    0.867449    11.00000    0.02460    0.04587 =
         0.05387    0.01626    0.01437    0.00621
PART -1
C29   1    0.177956    0.599557    0.954495    21.00000    0.02225    0.05109 =
         0.04587    0.01297    0.00890    0.00131
AFIX  43
H29   2    0.234947    0.583512    1.010046    21.00000   -1.20000
AFIX   0
PART 0
PART -2
C29A  1    0.182706    0.638949    0.985418   -21.00000    0.02231    0.06084 =
         0.05250    0.00972    0.01131    0.00517
AFIX  43
H29A  2    0.242563    0.648720    1.048079   -21.00000   -1.20000
AFIX   0
PART 0
PART -1
C30   1    0.060117    0.598622    0.968282    21.00000    0.02309    0.04709 =
         0.03962    0.00684    0.00938    0.00199
PART 0
PART -2
C30A  1    0.063918    0.639342    0.995319   -21.00000    0.02215    0.05510 =
         0.04318    0.01039    0.00944    0.00395
PART 0
C31   1   -0.024351    0.622880    0.884615    11.00000    0.02205    0.04363 =
         0.04473    0.00873    0.01156    0.00296
PART -1
C32   1    0.004627    0.637758    0.775584    21.00000    0.02478    0.04699 =
         0.04173    0.00960    0.01004    0.00588
AFIX  43
H32   2   -0.054890    0.648021    0.713176    21.00000   -1.20000
AFIX   0
PART 0
PART -2
C32A  1    0.011888    0.613578    0.792453   -21.00000    0.02291    0.08331 =
         0.04696   -0.00355    0.01155    0.00069
AFIX  43
H32A  2   -0.044326    0.607003    0.724026   -21.00000   -1.20000
AFIX   0
PART 0
PART -1
C33   1    0.122087    0.636735    0.763839    21.00000    0.02683    0.04177 =
         0.04407    0.00677    0.01371    0.00694
AFIX  43
H33   2    0.142887    0.645142    0.693193    21.00000   -1.20000
AFIX   0
PART 0
PART -2
C33A  1    0.132783    0.612494    0.786401   -21.00000    0.02504    0.07023 =
         0.05536    0.00208    0.01708    0.00483
AFIX  43
H33A  2    0.151676    0.603986    0.714948   -21.00000   -1.20000
AFIX   0
PART 0
PART -1
C34   1    0.034139    0.575486    1.075639    21.00000    0.02765    0.07330 =
         0.03990    0.01599    0.00881    0.00199
PART 0
PART -2
C34A  1    0.030621    0.652862    1.108237   -21.00000    0.03153    0.10132 =
         0.04589   -0.00237    0.01226    0.00194
PART 0
PART -1
C35   1   -0.038975    0.597170    1.143024    21.00000    0.04868    0.10677 =
         0.04368    0.01660    0.01684    0.02146
AFIX  43
H35   2   -0.079186    0.625682    1.118342    21.00000   -1.20000
AFIX   0
PART 0
PART -2
C35A  1   -0.040813    0.627792    1.162139   -21.00000    0.05587    0.12641 =
         0.06411   -0.00092    0.02886   -0.01298
AFIX  43
H35A  2   -0.080265    0.601346    1.122723   -21.00000   -1.20000
AFIX   0
PART 0
PART -1
C36   1   -0.050236    0.574647    1.249669    21.00000    0.12855    0.13497 =
         0.06736    0.03901    0.05933    0.05274
AFIX  43
H36   2   -0.093228    0.590376    1.297941    21.00000   -1.20000
AFIX   0
PART 0
PART -2
C36A  1   -0.059782    0.638216    1.270235   -21.00000    0.06654    0.14898 =
         0.06714   -0.00075    0.03655   -0.00793
AFIX  43
H36A  2   -0.111661    0.618892    1.301386   -21.00000   -1.20000
AFIX   0
PART 0
PART -1
C37   1    0.070747    0.510822    1.217489    21.00000    0.10160    0.07863 =
         0.07136    0.03405    0.03972    0.01637
AFIX  43
H37   2    0.112285    0.483093    1.246542    21.00000   -1.20000
AFIX   0
PART 0
PART -2
C37A  1    0.050131    0.703578    1.276872   -21.00000    0.12758    0.18872 =
         0.07613   -0.05377    0.05990   -0.06890
AFIX  43
H37A  2    0.075782    0.733051    1.311397   -21.00000   -1.20000
AFIX   0
PART 0
PART -1
C38   1    0.086930    0.527708    1.111647    21.00000    0.04529    0.07846 =
         0.06036    0.02891    0.01545    0.00773
AFIX  43
H38   2    0.128549    0.510303    1.064932    21.00000   -1.20000
AFIX   0
PART 0
PART -2
C38A  1    0.077581    0.694614    1.165035   -21.00000    0.07018    0.11356 =
         0.05276   -0.01441    0.02443   -0.01539
AFIX  43
H38A  2    0.124440    0.715598    1.131837   -21.00000   -1.20000
AFIX   0

PART 0
O13   5    0.403047    0.702229    1.175962    10.50000    0.32268    0.28589 =
         0.06179   -0.00331    0.02029    0.21065
AFIX   3
H13A  2    0.431497    0.676160    1.154892    10.50000   -1.50000
H13B  2    0.412647    0.699870    1.250432    10.50000   -1.50000
AFIX   0

O14   5    0.951668    0.750000    0.492985    10.25000    0.06368    0.15213 =
         0.03768    0.00000    0.00249    0.00000
AFIX   3
H14A  2    0.974398    0.760170    0.563295    10.25000   -1.50000
H14B  2    0.946978    0.719570    0.499995    10.25000   -1.50000
AFIX   0

PART -2
O19   5    0.415502    0.610467    0.950433   -21.00000    0.01975    0.06517 =
         0.05694    0.03669    0.00974    0.00011
HKLF 4




REM  an1gd_a.res in P2(1)/m
REM wR2 = 0.1086, GooF = S = 1.050, Restrained GooF = 1.029 for all data
REM R1 = 0.0429 for 7061 Fo > 4sig(Fo) and 0.0532 for all 8437 data
REM 666 parameters refined using 505 restraints

END

WGHT      0.0474     15.2530

REM Highest difference peak  1.165,  deepest hole -1.414,  1-sigma level  0.142
Q1    1   0.2307  0.4994  1.1829  11.00000  0.05    1.17
Q2    1   0.9539  0.6747  0.5410  11.00000  0.05    0.99
;
_shelx_res_checksum              62423
_shelx_fab_file
;
    1    0    0     40.69      0.00
    2    0    0    -24.25      0.00
    3    0    0     -8.78      0.00
    4    0    0      4.35      0.00
    5    0    0      1.39      0.00
    6    0    0     -5.69      0.00
    7    0    0     -4.19      0.00
    8    0    0     -1.36      0.00
    9    0    0      2.59      0.00
   10    0    0      5.00      0.00
   11    0    0     -0.28      0.00
   12    0    0      1.01      0.00
   13    0    0      2.09      0.00
   14    0    0     -2.74      0.00
    1    1    0      7.10      0.00
    2    1    0     -0.84      0.00
    3    1    0     -3.81      0.00
    4    1    0     -1.26      0.00
    5    1    0      0.31      0.00
    6    1    0      0.08      0.00
    7    1    0      0.07      0.00
    8    1    0      0.96      0.00
    9    1    0      0.46      0.00
   10    1    0      0.49      0.00
   11    1    0      0.47      0.00
   12    1    0     -1.55      0.00
   13    1    0     -2.70      0.00
   14    1    0     -1.81      0.00
    0    2    0     85.91      0.00
    1    2    0     28.85      0.00
    2    2    0    -22.16      0.00
    3    2    0     -7.09      0.00
    4    2    0      3.52      0.00
    5    2    0      1.13      0.00
    6    2    0     -4.13      0.00
    7    2    0     -2.95      0.00
    8    2    0     -0.88      0.00
    9    2    0      2.24      0.00
   10    2    0      3.68      0.00
   11    2    0     -0.98      0.00
   12    2    0      0.93      0.00
   13    2    0      2.02      0.00
   14    2    0     -2.69      0.00
    1    3    0     14.88      0.00
    2    3    0     -2.28      0.00
    3    3    0     -6.61      0.00
    4    3    0     -0.94      0.00
    5    3    0      0.99      0.00
    6    3    0     -0.01      0.00
    7    3    0      0.20      0.00
    8    3    0      1.87      0.00
    9    3    0      0.27      0.00
   10    3    0      0.92      0.00
   11    3    0      2.17      0.00
   12    3    0     -1.68      0.00
   13    3    0     -4.17      0.00
   14    3    0     -2.41      0.00
    0    4    0     39.21      0.00
    1    4    0      8.72      0.00
    2    4    0    -15.24      0.00
    3    4    0     -3.57      0.00
    4    4    0      1.55      0.00
    5    4    0      0.57      0.00
    6    4    0     -1.23      0.00
    7    4    0     -1.02      0.00
    8    4    0     -0.15      0.00
    9    4    0      1.73      0.00
   10    4    0      1.50      0.00
   11    4    0     -1.41      0.00
   12    4    0      1.82      0.00
   13    4    0      2.52      0.00
   14    4    0     -2.06      0.00
    1    5    0     10.58      0.00
    2    5    0     -2.93      0.00
    3    5    0     -1.67      0.00
    4    5    0      2.45      0.00
    5    5    0      0.47      0.00
    6    5    0     -0.81      0.00
    7    5    0      0.37      0.00
    8    5    0      1.24      0.00
    9    5    0     -1.12      0.00
   10    5    0      0.44      0.00
   11    5    0      3.88      0.00
   12    5    0      1.35      0.00
   13    5    0     -0.92      0.00
   14    5    0      0.37      0.00
    0    6    0     11.05      0.00
    1    6    0      0.57      0.00
    2    6    0     -6.84      0.00
    3    6    0     -1.70      0.00
    4    6    0     -0.06      0.00
    5    6    0      0.58      0.00
    6    6    0      0.39      0.00
    7    6    0     -0.53      0.00
    8    6    0      0.09      0.00
    9    6    0      1.61      0.00
   10    6    0      0.70      0.00
   11    6    0     -0.06      0.00
   12    6    0      3.95      0.00
   13    6    0      3.37      0.00
   14    6    0     -1.13      0.00
    1    7    0      1.06      0.00
    2    7    0     -1.94      0.00
    3    7    0      4.85      0.00
    4    7    0      3.94      0.00
    5    7    0     -1.79      0.00
    6    7    0     -1.69      0.00
    7    7    0      0.63      0.00
    8    7    0      0.24      0.00
    9    7    0     -1.80      0.00
   10    7    0     -0.10      0.00
   11    7    0      3.43      0.00
   12    7    0      2.25      0.00
   13    7    0      0.62      0.00
   14    7    0      1.41      0.00
    0    8    0      6.26      0.00
    1    8    0      1.52      0.00
    2    8    0     -4.06      0.00
    3    8    0     -2.72      0.00
    4    8    0     -0.01      0.00
    5    8    0      1.50      0.00
    6    8    0      0.41      0.00
    7    8    0     -0.82      0.00
    8    8    0      0.16      0.00
    9    8    0      1.37      0.00
   10    8    0      0.51      0.00
   11    8    0      1.10      0.00
   12    8    0      4.78      0.00
   13    8    0      2.66      0.00
   14    8    0     -1.33      0.00
    1    9    0     -3.87      0.00
    2    9    0      0.70      0.00
    3    9    0      7.48      0.00
    4    9    0      2.81      0.00
    5    9    0     -2.64      0.00
    6    9    0     -1.19      0.00
    7    9    0      0.49      0.00
    8    9    0     -0.55      0.00
    9    9    0     -1.13      0.00
   10    9    0      0.00      0.00
   11    9    0      1.43      0.00
   12    9    0      0.51      0.00
   13    9    0     -0.55      0.00
   14    9    0      0.29      0.00
    0   10    0      7.41      0.00
    1   10    0      1.25      0.00
    2   10    0     -5.95      0.00
    3   10    0     -3.47      0.00
    4   10    0      0.99      0.00
    5   10    0      1.73      0.00
    6   10    0     -0.40      0.00
    7   10    0     -0.57      0.00
    8   10    0      0.36      0.00
    9   10    0      0.42      0.00
   10   10    0     -0.46      0.00
   11   10    0      0.35      0.00
   12   10    0      3.20      0.00
   13   10    0      0.65      0.00
   14   10    0     -2.18      0.00
    1   11    0     -2.68      0.00
    2   11    0      2.49      0.00
    3   11    0      6.17      0.00
    4   11    0      2.12      0.00
    5   11    0     -0.58      0.00
    6   11    0     -0.06      0.00
    7   11    0     -0.56      0.00
    8   11    0     -1.03      0.00
    9   11    0     -0.29      0.00
   10   11    0      0.30      0.00
   11   11    0      0.16      0.00
   12   11    0     -0.06      0.00
   13   11    0     -0.41      0.00
    0   12    0      6.70      0.00
    1   12    0      0.44      0.00
    2   12    0     -5.14      0.00
    3   12    0     -1.86      0.00
    4   12    0      0.70      0.00
    5   12    0      0.13      0.00
    6   12    0     -1.09      0.00
    7   12    0      0.09      0.00
    8   12    0      0.48      0.00
    9   12    0     -0.38      0.00
   10   12    0     -1.28      0.00
   11   12    0     -0.93      0.00
   12   12    0      1.30      0.00
   13   12    0     -0.12      0.00
    1   13    0     -0.57      0.00
    2   13    0      1.23      0.00
    3   13    0      3.43      0.00
    4   13    0      2.40      0.00
    5   13    0      1.04      0.00
    6   13    0     -0.50      0.00
    7   13    0     -1.60      0.00
    8   13    0     -0.41      0.00
    9   13    0      0.19      0.00
   10   13    0      0.19      0.00
   11   13    0     -0.09      0.00
   12   13    0      0.65      0.00
   13   13    0      0.65      0.00
    0   14    0      4.75      0.00
    1   14    0      1.40      0.00
    2   14    0     -1.28      0.00
    3   14    0     -0.57      0.00
    4   14    0     -0.98      0.00
    5   14    0     -1.01      0.00
    6   14    0     -0.38      0.00
    7   14    0      0.43      0.00
    8   14    0      0.36      0.00
    9   14    0      0.02      0.00
   10   14    0     -0.79      0.00
   11   14    0     -1.21      0.00
   12   14    0      0.40      0.00
   13   14    0      0.61      0.00
    1   15    0     -0.60      0.00
    2   15    0     -1.21      0.00
    3   15    0      1.83      0.00
    4   15    0      2.41      0.00
    5   15    0      0.14      0.00
    6   15    0     -1.91      0.00
    7   15    0     -1.11      0.00
    8   15    0      1.22      0.00
    9   15    0      0.55      0.00
   10   15    0      0.13      0.00
   11   15    0      0.06      0.00
   12   15    0      0.40      0.00
   13   15    0     -0.20      0.00
    0   16    0      1.52      0.00
    1   16    0      1.53      0.00
    2   16    0      0.48      0.00
    3   16    0     -1.40      0.00
    4   16    0     -1.55      0.00
    5   16    0      0.47      0.00
    6   16    0      1.44      0.00
    7   16    0      0.14      0.00
    8   16    0      0.13      0.00
    9   16    0      1.00      0.00
   10   16    0      0.05      0.00
   11   16    0     -1.03      0.00
   12   16    0     -0.13      0.00
   13   16    0      0.92      0.00
    1   17    0     -1.39      0.00
    2   17    0     -1.84      0.00
    3   17    0      1.79      0.00
    4   17    0      1.97      0.00
    5   17    0     -1.11      0.00
    6   17    0     -2.15      0.00
    7   17    0      0.06      0.00
    8   17    0      1.70      0.00
    9   17    0      0.52      0.00
   10   17    0      0.87      0.00
   11   17    0      1.01      0.00
   12   17    0     -0.07      0.00
    0   18    0     -1.12      0.00
    1   18    0      0.53      0.00
    2   18    0      0.04      0.00
    3   18    0     -2.02      0.00
    4   18    0     -0.32      0.00
    5   18    0      2.28      0.00
    6   18    0      2.02      0.00
    7   18    0     -0.50      0.00
    8   18    0      0.05      0.00
    9   18    0      1.21      0.00
   10   18    0     -0.01      0.00
   11   18    0     -1.00      0.00
   12   18    0     -0.37      0.00
    1   19    0     -1.19      0.00
    2   19    0     -0.99      0.00
    3   19    0      1.47      0.00
    4   19    0      1.29      0.00
    5   19    0     -0.94      0.00
    6   19    0     -1.44      0.00
    7   19    0     -0.17      0.00
    8   19    0      0.14      0.00
    9   19    0      0.08      0.00
   10   19    0      1.77      0.00
   11   19    0      2.21      0.00
   12   19    0      0.46      0.00
    0   20    0     -1.31      0.00
    1   20    0      0.30      0.00
    2   20    0      0.28      0.00
    3   20    0     -1.01      0.00
    4   20    0      0.29      0.00
    5   20    0      1.38      0.00
    6   20    0      0.44      0.00
    7   20    0     -0.87      0.00
    8   20    0      0.14      0.00
    9   20    0      0.44      0.00
   10   20    0     -0.61      0.00
   11   20    0     -0.88      0.00
   12   20    0     -0.06      0.00
    1   21    0     -0.07      0.00
    2   21    0     -0.44      0.00
    3   21    0      0.27      0.00
    4   21    0      0.82      0.00
    5   21    0      0.08      0.00
    6   21    0     -1.08      0.00
    7   21    0     -1.41      0.00
    8   21    0     -1.05      0.00
    9   21    0     -0.06      0.00
   10   21    0      1.54      0.00
   11   21    0      1.94      0.00
    0   22    0     -0.96      0.00
    1   22    0      0.26      0.00
    2   22    0      1.18      0.00
    3   22    0      0.18      0.00
    4   22    0     -0.56      0.00
    5   22    0     -0.67      0.00
    6   22    0     -1.16      0.00
    7   22    0     -0.88      0.00
    8   22    0     -0.12      0.00
    9   22    0     -0.56      0.00
   10   22    0     -0.82      0.00
   11   22    0     -0.71      0.00
    1   23    0      0.93      0.00
    2   23    0     -0.56      0.00
    3   23    0     -0.35      0.00
    4   23    0      1.09      0.00
    5   23    0      1.13      0.00
    6   23    0     -0.83      0.00
    7   23    0     -1.77      0.00
    8   23    0     -0.29      0.00
    9   23    0      0.16      0.00
   10   23    0      0.23      0.00
   11   23    0      0.47      0.00
    0   24    0     -1.36      0.00
    1   24    0     -0.13      0.00
    2   24    0      1.66      0.00
    3   24    0      0.72      0.00
    4   24    0     -0.83      0.00
    5   24    0     -0.74      0.00
    6   24    0     -1.10      0.00
    7   24    0     -1.00      0.00
    8   24    0     -0.85      0.00
    9   24    0     -1.02      0.00
   10   24    0     -0.44      0.00
    1   25    0      0.94      0.00
    2   25    0     -0.95      0.00
    3   25    0     -0.01      0.00
    4   25    0      1.29      0.00
    5   25    0      1.52      0.00
    6   25    0     -0.37      0.00
    7   25    0     -1.42      0.00
    8   25    0      0.67      0.00
    9   25    0     -0.06      0.00
   10   25    0     -0.77      0.00
    0   26    0     -1.19      0.00
    1   26    0      0.00      0.00
    2   26    0      1.57      0.00
    3   26    0      0.82      0.00
    4   26    0     -0.02      0.00
    5   26    0      0.37      0.00
    6   26    0     -0.38      0.00
    7   26    0     -1.13      0.00
    8   26    0     -1.08      0.00
    9   26    0     -0.67      0.00
   10   26    0      0.11      0.00
    1   27    0      0.37      0.00
    2   27    0     -0.95      0.00
    3   27    0      0.41      0.00
    4   27    0      0.40      0.00
    5   27    0      0.84      0.00
    6   27    0     -0.21      0.00
    7   27    0     -1.53      0.00
    8   27    0      0.43      0.00
    9   27    0     -0.55      0.00
    0   28    0     -0.37      0.00
    1   28    0      0.22      0.00
    2   28    0      0.66      0.00
    3   28    0      0.45      0.00
    4   28    0      0.28      0.00
    5   28    0      0.01      0.00
    6   28    0     -0.43      0.00
    7   28    0     -0.80      0.00
    8   28    0     -0.46      0.00
    9   28    0     -0.16      0.00
    1   29    0      0.39      0.00
    2   29    0      0.09      0.00
    3   29    0      0.84      0.00
    4   29    0     -0.69      0.00
    5   29    0     -0.21      0.00
    6   29    0     -0.49      0.00
    7   29    0     -1.75      0.00
    8   29    0      0.14      0.00
    0   30    0      0.32      0.00
    1   30    0     -0.12      0.00
    2   30    0     -0.57      0.00
    3   30    0      0.33      0.00
    4   30    0      0.19      0.00
    5   30    0     -1.28      0.00
    6   30    0     -0.90      0.00
    7   30    0     -0.26      0.00
    8   30    0     -0.01      0.00
    1   31    0      1.05      0.00
    2   31    0      1.25      0.00
    3   31    0      1.20      0.00
    4   31    0     -0.83      0.00
    5   31    0     -0.75      0.00
    6   31    0     -0.86      0.00
    7   31    0     -1.38      0.00
    0   32    0      1.08      0.00
    1   32    0     -0.27      0.00
    2   32    0     -0.99      0.00
    3   32    0      1.01      0.00
    4   32    0      0.90      0.00
    5   32    0     -1.18      0.00
    6   32    0     -0.73      0.00
    1   33    0      1.35      0.00
    2   33    0      1.07      0.00
    3   33    0      0.88      0.00
    4   33    0     -0.34      0.00
    5   33    0     -0.70      0.00
    0   34    0      1.59      0.00
    1   34    0     -0.10      0.00
    2   34    0     -0.93      0.00
    3   34    0      1.19      0.00
    4   34    0      1.62      0.00
    1   35    0      1.12      0.00
    2   35    0      0.11      0.00
    3   35    0      0.28      0.00
  -14    0    1      1.28      0.00
  -13    0    1     -4.16      0.00
  -12    0    1     -3.17      0.00
  -11    0    1      1.09      0.00
  -10    0    1     -2.09      0.00
   -9    0    1     -2.15      0.00
   -8    0    1      0.61      0.00
   -7    0    1     -0.12      0.00
   -6    0    1      4.76      0.00
   -5    0    1      5.84      0.00
   -4    0    1      7.29      0.00
   -3    0    1      2.12      0.00
   -2    0    1    -11.92      0.00
   -1    0    1    -38.62      0.00
    0    0    1    -67.44      0.00
    1    0    1    -32.38      0.00
    2    0    1      8.70      0.00
    3    0    1      4.04      0.00
    4    0    1     -2.11      0.00
    5    0    1      0.60      0.00
    6    0    1      6.93      0.00
    7    0    1      3.88      0.00
    8    0    1     -1.51      0.00
    9    0    1     -2.62      0.00
   10    0    1     -4.08      0.00
   11    0    1      0.19      0.00
   12    0    1      1.64      0.00
   13    0    1     -1.48      0.00
   14    0    1     -0.58      0.00
  -14    1    1     -1.34      0.00
  -13    1    1     -2.04      0.00
  -12    1    1     -1.53      0.00
  -11    1    1      0.15      0.00
  -10    1    1      0.71      0.00
   -9    1    1      0.53      0.00
   -8    1    1      0.88      0.00
   -7    1    1      0.19      0.00
   -6    1    1      0.12      0.00
   -5    1    1      0.17      0.00
   -4    1    1     -1.95      0.00
   -3    1    1     -3.18      0.00
   -2    1    1     -1.62      0.00
   -1    1    1      3.98      0.00
    0    1    1      0.63      0.00
    1    1    1     -6.59      0.00
    2    1    1     -1.54      0.00
    3    1    1      3.28      0.00
    4    1    1      2.17      0.00
    5    1    1     -0.34      0.00
    6    1    1     -0.76      0.00
    7    1    1     -0.19      0.00
    8    1    1     -1.04      0.00
    9    1    1     -0.66      0.00
   10    1    1      0.01      0.00
   11    1    1     -0.17      0.00
   12    1    1      1.01      0.00
   13    1    1      2.77      0.00
   14    1    1      2.60      0.00
  -14    2    1      1.03      0.00
  -13    2    1     -4.23      0.00
  -12    2    1     -2.97      0.00
  -11    2    1      1.59      0.00
  -10    2    1     -1.04      0.00
   -9    2    1     -1.64      0.00
   -8    2    1      0.17      0.00
   -7    2    1     -1.28      0.00
   -6    2    1      3.20      0.00
   -5    2    1      5.56      0.00
   -4    2    1      6.92      0.00
   -3    2    1      0.81      0.00
   -2    2    1    -11.90      0.00
   -1    2    1    -29.11      0.00
    0    2    1    -46.64      0.00
    1    2    1    -19.54      0.00
    2    2    1      7.86      0.00
    3    2    1      1.90      0.00
    4    2    1     -1.28      0.00
    5    2    1      1.40      0.00
    6    2    1      5.60      0.00
    7    2    1      2.79      0.00
    8    2    1     -1.59      0.00
    9    2    1     -2.48      0.00
   10    2    1     -3.04      0.00
   11    2    1      1.35      0.00
   12    2    1      2.07      0.00
   13    2    1     -1.43      0.00
   14    2    1     -0.44      0.00
  -14    3    1     -1.29      0.00
  -13    3    1     -2.66      0.00
  -12    3    1     -1.94      0.00
  -11    3    1      1.04      0.00
  -10    3    1      1.34      0.00
   -9    3    1      0.64      0.00
   -8    3    1      1.88      0.00
   -7    3    1      0.53      0.00
   -6    3    1      0.22      0.00
   -5    3    1      1.10      0.00
   -4    3    1     -2.65      0.00
   -3    3    1     -5.23      0.00
   -2    3    1     -3.40      0.00
   -1    3    1      7.67      0.00
    0    3    1      1.07      0.00
    1    3    1    -13.86      0.00
    2    3    1     -3.34      0.00
    3    3    1      5.67      0.00
    4    3    1      3.59      0.00
    5    3    1     -0.74      0.00
    6    3    1     -1.51      0.00
    7    3    1     -0.42      0.00
    8    3    1     -1.88      0.00
    9    3    1     -0.61      0.00
   10    3    1      0.32      0.00
   11    3    1     -1.55      0.00
   12    3    1      0.27      0.00
   13    3    1      4.34      0.00
   14    3    1      4.46      0.00
  -14    4    1      0.03      0.00
  -13    4    1     -4.81      0.00
  -12    4    1     -3.26      0.00
  -11    4    1      1.68      0.00
  -10    4    1      0.41      0.00
   -9    4    1     -0.85      0.00
   -8    4    1     -0.36      0.00
   -7    4    1     -2.81      0.00
   -6    4    1      0.46      0.00
   -5    4    1      5.09      0.00
   -4    4    1      6.53      0.00
   -3    4    1     -1.33      0.00
   -2    4    1    -13.07      0.00
   -1    4    1    -13.63      0.00
    0    4    1     -8.59      0.00
    1    4    1      2.80      0.00
    2    4    1      3.82      0.00
    3    4    1     -3.01      0.00
    4    4    1      0.11      0.00
    5    4    1      2.78      0.00
    6    4    1      3.01      0.00
    7    4    1      0.93      0.00
    8    4    1     -1.52      0.00
    9    4    1     -2.35      0.00
   10    4    1     -1.46      0.00
   11    4    1      2.70      0.00
   12    4    1      1.74      0.00
   13    4    1     -2.15      0.00
   14    4    1     -0.72      0.00
  -14    5    1      1.55      0.00
  -13    5    1      0.42      0.00
  -12    5    1      0.53      0.00
  -11    5    1      2.18      0.00
  -10    5    1      0.66      0.00
   -9    5    1     -0.59      0.00
   -8    5    1      1.55      0.00
   -7    5    1      0.72      0.00
   -6    5    1     -0.25      0.00
   -5    5    1      1.74      0.00
   -4    5    1      0.23      0.00
   -3    5    1     -1.08      0.00
   -2    5    1     -2.42      0.00
   -1    5    1      3.67      0.00
    0    5    1     -0.40      0.00
    1    5    1    -10.28      0.00
    2    5    1     -2.81      0.00
    3    5    1      1.33      0.00
    4    5    1      1.19      0.00
    5    5    1      0.29      0.00
    6    5    1     -0.63      0.00
    7    5    1     -0.62      0.00
    8    5    1     -1.03      0.00
    9    5    1      1.16      0.00
   10    5    1      0.95      0.00
   11    5    1     -3.38      0.00
   12    5    1     -3.14      0.00
   13    5    1      0.99      0.00
   14    5    1      2.00      0.00
  -14    6    1     -1.08      0.00
  -13    6    1     -5.32      0.00
  -12    6    1     -4.15      0.00
  -11    6    1      0.32      0.00
  -10    6    1      0.25      0.00
   -9    6    1     -0.77      0.00
   -8    6    1     -0.10      0.00
   -7    6    1     -2.37      0.00
   -6    6    1     -0.98      0.00
   -5    6    1      4.08      0.00
   -4    6    1      6.37      0.00
   -3    6    1     -1.09      0.00
   -2    6    1    -14.17      0.00
   -1    6    1     -8.45      0.00
    0    6    1     10.74      0.00
    1    6    1     12.48      0.00
    2    6    1     -1.57      0.00
    3    6    1     -6.55      0.00
    4    6    1      0.31      0.00
    5    6    1      2.97      0.00
    6    6    1      1.42      0.00
    7    6    1      0.23      0.00
    8    6    1     -1.21      0.00
    9    6    1     -2.48      0.00
   10    6    1     -1.15      0.00
   11    6    1      1.92      0.00
   12    6    1     -0.40      0.00
   13    6    1     -3.58      0.00
   14    6    1     -1.48      0.00
  -14    7    1      2.23      0.00
  -13    7    1      1.17      0.00
  -12    7    1      1.24      0.00
  -11    7    1      2.11      0.00
  -10    7    1     -0.07      0.00
   -9    7    1     -1.64      0.00
   -8    7    1      0.37      0.00
   -7    7    1      0.70      0.00
   -6    7    1     -0.79      0.00
   -5    7    1      0.77      0.00
   -4    7    1      1.16      0.00
   -3    7    1      3.04      0.00
   -2    7    1      0.87      0.00
   -1    7    1     -2.38      0.00
    0    7    1     -3.03      0.00
    1    7    1     -2.44      0.00
    2    7    1     -1.82      0.00
    3    7    1     -4.41      0.00
    4    7    1     -0.70      0.00
    5    7    1      2.65      0.00
    6    7    1      0.82      0.00
    7    7    1     -1.19      0.00
    8    7    1     -0.39      0.00
    9    7    1      2.11      0.00
   10    7    1      1.25      0.00
   11    7    1     -3.06      0.00
   12    7    1     -3.71      0.00
   13    7    1     -0.81      0.00
   14    7    1      0.36      0.00
  -14    8    1     -0.76      0.00
  -13    8    1     -3.97      0.00
  -12    8    1     -3.69      0.00
  -11    8    1     -0.59      0.00
  -10    8    1     -0.46      0.00
   -9    8    1     -0.94      0.00
   -8    8    1      0.43      0.00
   -7    8    1     -0.96      0.00
   -6    8    1     -1.24      0.00
   -5    8    1      1.96      0.00
   -4    8    1      5.27      0.00
   -3    8    1      1.30      0.00
   -2    8    1    -10.99      0.00
   -1    8    1     -9.02      0.00
    0    8    1      9.31      0.00
    1    8    1     10.72      0.00
    2    8    1     -1.99      0.00
    3    8    1     -5.85      0.00
    4    8    1     -0.96      0.00
    5    8    1      1.73      0.00
    6    8    1      1.43      0.00
    7    8    1      0.45      0.00
    8    8    1     -1.09      0.00
    9    8    1     -2.19      0.00
   10    8    1     -1.12      0.00
   11    8    1      0.55      0.00
   12    8    1     -2.00      0.00
   13    8    1     -3.46      0.00
   14    8    1     -1.29      0.00
  -14    9    1      0.76      0.00
  -13    9    1     -0.81      0.00
  -12    9    1     -0.15      0.00
  -11    9    1      1.32      0.00
  -10    9    1      0.18      0.00
   -9    9    1     -1.78      0.00
   -8    9    1     -1.16      0.00
   -7    9    1      0.43      0.00
   -6    9    1      0.14      0.00
   -5    9    1      0.42      0.00
   -4    9    1     -0.69      0.00
   -3    9    1      3.22      0.00
   -2    9    1      4.99      0.00
   -1    9    1     -3.24      0.00
    0    9    1     -4.40      0.00
    1    9    1      1.25      0.00
    2    9    1     -2.33      0.00
    3    9    1     -6.57      0.00
    4    9    1     -0.68      0.00
    5    9    1      3.19      0.00
    6    9    1      0.89      0.00
    7    9    1     -1.50      0.00
    8    9    1     -0.56      0.00
    9    9    1      1.28      0.00
   10    9    1      0.91      0.00
   11    9    1     -0.91      0.00
   12    9    1     -1.19      0.00
   13    9    1      0.14      0.00
  -14   10    1      0.50      0.00
  -13   10    1     -1.37      0.00
  -12   10    1     -1.52      0.00
  -11   10    1      0.25      0.00
  -10   10    1     -0.15      0.00
   -9   10    1     -0.56      0.00
   -8   10    1      0.50      0.00
   -7   10    1     -0.36      0.00
   -6   10    1     -0.85      0.00
   -5   10    1      0.46      0.00
   -4   10    1      3.35      0.00
   -3   10    1      2.08      0.00
   -2   10    1     -5.43      0.00
   -1   10    1     -6.10      0.00
    0   10    1      4.32      0.00
    1   10    1      7.82      0.00
    2   10    1      1.46      0.00
    3   10    1     -3.59      0.00
    4   10    1     -2.19      0.00
    5   10    1      0.94      0.00
    6   10    1      2.23      0.00
    7   10    1      0.51      0.00
    8   10    1     -1.10      0.00
    9   10    1     -0.91      0.00
   10   10    1      0.05      0.00
   11   10    1      0.62      0.00
   12   10    1     -1.44      0.00
   13   10    1     -1.57      0.00
  -14   11    1      0.56      0.00
  -13   11    1     -1.23      0.00
  -12   11    1     -0.49      0.00
  -11   11    1      1.00      0.00
  -10   11    1      0.78      0.00
   -9   11    1     -1.57      0.00
   -8   11    1     -2.23      0.00
   -7   11    1     -0.13      0.00
   -6   11    1      1.83      0.00
   -5   11    1      2.17      0.00
   -4   11    1     -1.67      0.00
   -3   11    1      1.04      0.00
   -2   11    1      6.76      0.00
   -1   11    1      0.47      0.00
    0   11    1     -3.23      0.00
    1   11    1     -0.11      0.00
    2   11    1     -3.43      0.00
    3   11    1     -4.97      0.00
    4   11    1     -0.44      0.00
    5   11    1      1.03      0.00
    6   11    1      0.15      0.00
    7   11    1     -0.49      0.00
    8   11    1     -0.63      0.00
    9   11    1      0.21      0.00
   10   11    1      0.54      0.00
   11   11    1      0.50      0.00
   12   11    1     -0.09      0.00
   13   11    1     -0.19      0.00
  -13   12    1     -0.21      0.00
  -12   12    1      0.19      0.00
  -11   12    1      1.22      0.00
  -10   12    1      0.33      0.00
   -9   12    1     -0.12      0.00
   -8   12    1      0.20      0.00
   -7   12    1     -0.38      0.00
   -6   12    1      0.04      0.00
   -5   12    1      1.25      0.00
   -4   12    1      2.62      0.00
   -3   12    1      0.10      0.00
   -2   12    1     -3.46      0.00
   -1   12    1     -2.37      0.00
    0   12    1      2.21      0.00
    1   12    1      4.94      0.00
    2   12    1      1.66      0.00
    3   12    1     -3.05      0.00
    4   12    1     -1.63      0.00
    5   12    1      1.68      0.00
    6   12    1      2.40      0.00
    7   12    1      0.14      0.00
    8   12    1     -0.76      0.00
    9   12    1      0.36      0.00
   10   12    1      1.27      0.00
   11   12    1      1.22      0.00
   12   12    1     -0.37      0.00
   13   12    1     -0.41      0.00
  -13   13    1     -0.38      0.00
  -12   13    1     -0.04      0.00
  -11   13    1      0.65      0.00
  -10   13    1      0.69      0.00
   -9   13    1     -1.16      0.00
   -8   13    1     -1.59      0.00
   -7   13    1     -0.42      0.00
   -6   13    1      1.86      0.00
   -5   13    1      3.17      0.00
   -4   13    1     -0.89      0.00
   -3   13    1     -0.88      0.00
   -2   13    1      4.11      0.00
   -1   13    1      2.81      0.00
    0   13    1     -0.74      0.00
    1   13    1     -2.02      0.00
    2   13    1     -3.30      0.00
    3   13    1     -2.17      0.00
    4   13    1     -0.12      0.00
    5   13    1     -0.23      0.00
    6   13    1      0.60      0.00
    7   13    1      0.80      0.00
    8   13    1     -0.84      0.00
    9   13    1     -0.14      0.00
   10   13    1      0.56      0.00
   11   13    1      0.54      0.00
   12   13    1     -0.89      0.00
   13   13    1     -1.43      0.00
  -13   14    1     -0.70      0.00
  -12   14    1      0.58      0.00
  -11   14    1      1.13      0.00
  -10   14    1     -0.03      0.00
   -9   14    1     -0.42      0.00
   -8   14    1     -0.01      0.00
   -7   14    1     -0.09      0.00
   -6   14    1      0.15      0.00
   -5   14    1      1.91      0.00
   -4   14    1      2.98      0.00
   -3   14    1     -1.16      0.00
   -2   14    1     -4.35      0.00
   -1   14    1     -1.72      0.00
    0   14    1      1.47      0.00
    1   14    1      1.78      0.00
    2   14    1     -1.22      0.00
    3   14    1     -2.73      0.00
    4   14    1      0.44      0.00
    5   14    1      2.14      0.00
    6   14    1      0.84      0.00
    7   14    1     -0.37      0.00
    8   14    1     -0.14      0.00
    9   14    1      0.37      0.00
   10   14    1      1.02      0.00
   11   14    1      0.90      0.00
   12   14    1     -0.08      0.00
   13   14    1     -0.60      0.00
  -13   15    1     -0.87      0.00
  -12   15    1     -0.51      0.00
  -11   15    1      0.10      0.00
  -10   15    1      0.34      0.00
   -9   15    1     -0.44      0.00
   -8   15    1      0.32      0.00
   -7   15    1      0.21      0.00
   -6   15    1      0.48      0.00
   -5   15    1      1.75      0.00
   -4   15    1     -0.01      0.00
   -3   15    1     -1.11      0.00
   -2   15    1     -0.02      0.00
   -1   15    1      1.82      0.00
    0   15    1      1.31      0.00
    1   15    1     -1.89      0.00
    2   15    1     -2.45      0.00
    3   15    1     -0.77      0.00
    4   15    1      0.63      0.00
    5   15    1      1.16      0.00
    6   15    1      1.62      0.00
    7   15    1      0.26      0.00
    8   15    1     -1.70      0.00
    9   15    1     -0.18      0.00
   10   15    1      0.40      0.00
   11   15    1      0.12      0.00
   12   15    1     -0.96      0.00
   13   15    1     -0.65      0.00
  -13   16    1     -0.86      0.00
  -12   16    1      0.78      0.00
  -11   16    1      0.87      0.00
  -10   16    1     -0.35      0.00
   -9   16    1     -0.98      0.00
   -8   16    1      0.05      0.00
   -7   16    1      0.75      0.00
   -6   16    1     -1.05      0.00
   -5   16    1     -0.26      0.00
   -4   16    1      1.99      0.00
   -3   16    1      0.02      0.00
   -2   16    1     -3.29      0.00
   -1   16    1     -1.83      0.00
    0   16    1      2.05      0.00
    1   16    1      1.20      0.00
    2   16    1     -1.83      0.00
    3   16    1     -0.93      0.00
    4   16    1      1.49      0.00
    5   16    1      0.67      0.00
    6   16    1     -1.54      0.00
    7   16    1     -0.66      0.00
    8   16    1      0.37      0.00
    9   16    1     -0.29      0.00
   10   16    1      0.09      0.00
   11   16    1      0.14      0.00
   12   16    1     -0.02      0.00
  -13   17    1     -1.54      0.00
  -12   17    1     -0.72      0.00
  -11   17    1      0.62      0.00
  -10   17    1      0.80      0.00
   -9   17    1      0.08      0.00
   -8   17    1      0.95      0.00
   -7   17    1      0.85      0.00
   -6   17    1      0.01      0.00
   -5   17    1      0.08      0.00
   -4   17    1      0.10      0.00
   -3   17    1     -0.18      0.00
   -2   17    1     -1.60      0.00
   -1   17    1      0.32      0.00
    0   17    1      2.13      0.00
    1   17    1     -0.85      0.00
    2   17    1     -2.23      0.00
    3   17    1     -1.09      0.00
    4   17    1      1.10      0.00
    5   17    1      2.71      0.00
    6   17    1      1.54      0.00
    7   17    1     -1.34      0.00
    8   17    1     -1.81      0.00
    9   17    1     -0.01      0.00
   10   17    1     -0.50      0.00
   11   17    1     -0.72      0.00
   12   17    1     -0.42      0.00
  -12   18    1      0.96      0.00
  -11   18    1      0.98      0.00
  -10   18    1      0.18      0.00
   -9   18    1     -1.05      0.00
   -8   18    1      0.08      0.00
   -7   18    1      1.63      0.00
   -6   18    1     -1.68      0.00
   -5   18    1     -2.80      0.00
   -4   18    1     -0.34      0.00
   -3   18    1      1.11      0.00
   -2   18    1     -0.80      0.00
   -1   18    1     -1.32      0.00
    0   18    1      2.57      0.00
    1   18    1      2.12      0.00
    2   18    1     -0.42      0.00
    3   18    1      0.39      0.00
    4   18    1      0.58      0.00
    5   18    1     -0.96      0.00
    6   18    1     -2.26      0.00
    7   18    1     -0.53      0.00
    8   18    1      0.56      0.00
    9   18    1     -0.10      0.00
   10   18    1      0.03      0.00
   11   18    1     -0.33      0.00
   12   18    1     -0.07      0.00
  -12   19    1      0.25      0.00
  -11   19    1      1.78      0.00
  -10   19    1      1.63      0.00
   -9   19    1      0.13      0.00
   -8   19    1     -0.67      0.00
   -7   19    1      0.00      0.00
   -6   19    1      0.59      0.00
   -5   19    1     -0.26      0.00
   -4   19    1     -0.62      0.00
   -3   19    1      0.00      0.00
   -2   19    1     -0.87      0.00
   -1   19    1      0.13      0.00
    0   19    1      1.74      0.00
    1   19    1     -0.64      0.00
    2   19    1     -2.28      0.00
    3   19    1     -1.25      0.00
    4   19    1      0.99      0.00
    5   19    1      2.65      0.00
    6   19    1      0.99      0.00
    7   19    1     -1.41      0.00
    8   19    1     -0.42      0.00
    9   19    1      0.26      0.00
   10   19    1     -1.46      0.00
   11   19    1     -1.57      0.00
   12   19    1     -0.58      0.00
  -12   20    1      0.55      0.00
  -11   20    1      0.91      0.00
  -10   20    1      0.85      0.00
   -9   20    1     -0.56      0.00
   -8   20    1      0.07      0.00
   -7   20    1      1.87      0.00
   -6   20    1     -0.56      0.00
   -5   20    1     -2.08      0.00
   -4   20    1     -1.12      0.00
   -3   20    1      0.55      0.00
   -2   20    1      0.02      0.00
   -1   20    1     -1.05      0.00
    0   20    1      1.56      0.00
    1   20    1      1.52      0.00
    2   20    1     -0.20      0.00
    3   20    1      0.10      0.00
    4   20    1     -0.12      0.00
    5   20    1     -0.45      0.00
    6   20    1     -0.84      0.00
    7   20    1     -0.33      0.00
    8   20    1      0.50      0.00
    9   20    1      1.04      0.00
   10   20    1      0.68      0.00
   11   20    1     -0.57      0.00
  -12   21    1      0.84      0.00
  -11   21    1      1.55      0.00
  -10   21    1      1.42      0.00
   -9   21    1      0.15      0.00
   -8   21    1     -2.14      0.00
   -7   21    1     -1.50      0.00
   -6   21    1      0.80      0.00
   -5   21    1     -0.01      0.00
   -4   21    1     -1.38      0.00
   -3   21    1     -0.67      0.00
   -2   21    1     -0.14      0.00
   -1   21    1      0.69      0.00
    0   21    1      0.99      0.00
    1   21    1     -1.26      0.00
    2   21    1     -1.77      0.00
    3   21    1     -0.52      0.00
    4   21    1      0.48      0.00
    5   21    1      1.59      0.00
    6   21    1      0.92      0.00
    7   21    1     -0.13      0.00
    8   21    1      0.44      0.00
    9   21    1     -0.10      0.00
   10   21    1     -1.34      0.00
   11   21    1     -1.12      0.00
  -11   22    1      0.67      0.00
  -10   22    1      0.97      0.00
   -9   22    1      0.36      0.00
   -8   22    1      0.81      0.00
   -7   22    1      1.60      0.00
   -6   22    1      0.69      0.00
   -5   22    1      0.46      0.00
   -4   22    1      0.15      0.00
   -3   22    1     -0.33      0.00
   -2   22    1     -0.55      0.00
   -1   22    1     -0.55      0.00
    0   22    1      0.78      0.00
    1   22    1      0.32      0.00
    2   22    1     -0.96      0.00
    3   22    1     -0.40      0.00
    4   22    1      0.36      0.00
    5   22    1      0.80      0.00
    6   22    1      0.39      0.00
    7   22    1     -0.33      0.00
    8   22    1      0.54      0.00
    9   22    1      1.86      0.00
   10   22    1      0.90      0.00
   11   22    1     -0.57      0.00
  -11   23    1      0.12      0.00
  -10   23    1      0.10      0.00
   -9   23    1      0.15      0.00
   -8   23    1     -1.61      0.00
   -7   23    1     -1.74      0.00
   -6   23    1      0.54      0.00
   -5   23    1      0.13      0.00
   -4   23    1     -1.16      0.00
   -3   23    1     -0.44      0.00
   -2   23    1     -0.03      0.00
   -1   23    1      1.04      0.00
    0   23    1      0.85      0.00
    1   23    1     -1.53      0.00
    2   23    1     -0.83      0.00
    3   23    1     -0.13      0.00
    4   23    1     -0.53      0.00
    5   23    1      0.31      0.00
    6   23    1      0.57      0.00
    7   23    1      0.43      0.00
    8   23    1     -0.39      0.00
    9   23    1     -0.90      0.00
   10   23    1     -0.31      0.00
  -11   24    1      0.60      0.00
  -10   24    1      0.67      0.00
   -9   24    1      1.28      0.00
   -8   24    1      2.31      0.00
   -7   24    1      1.51      0.00
   -6   24    1      0.54      0.00
   -5   24    1      1.18      0.00
   -4   24    1      0.89      0.00
   -3   24    1     -0.56      0.00
   -2   24    1     -0.95      0.00
   -1   24    1      0.06      0.00
    0   24    1      1.10      0.00
    1   24    1     -0.03      0.00
    2   24    1     -1.42      0.00
    3   24    1     -0.63      0.00
    4   24    1      0.30      0.00
    5   24    1      0.37      0.00
    6   24    1     -0.06      0.00
    7   24    1     -0.33      0.00
    8   24    1      0.83      0.00
    9   24    1      1.56      0.00
   10   24    1      0.43      0.00
  -10   25    1     -0.92      0.00
   -9   25    1     -0.34      0.00
   -8   25    1     -0.36      0.00
   -7   25    1     -0.87      0.00
   -6   25    1      0.27      0.00
   -5   25    1     -0.07      0.00
   -4   25    1     -0.63      0.00
   -3   25    1      0.70      0.00
   -2   25    1     -0.19      0.00
   -1   25    1      0.52      0.00
    0   25    1      0.98      0.00
    1   25    1     -0.89      0.00
    2   25    1      0.19      0.00
    3   25    1     -0.45      0.00
    4   25    1     -1.34      0.00
    5   25    1     -0.43      0.00
    6   25    1     -0.28      0.00
    7   25    1      0.29      0.00
    8   25    1     -0.91      0.00
    9   25    1     -0.94      0.00
   10   25    1      0.37      0.00
  -10   26    1      0.12      0.00
   -9   26    1      1.24      0.00
   -8   26    1      2.84      0.00
   -7   26    1      1.39      0.00
   -6   26    1     -0.30      0.00
   -5   26    1      0.17      0.00
   -4   26    1      0.19      0.00
   -3   26    1     -0.38      0.00
   -2   26    1     -0.84      0.00
   -1   26    1     -0.31      0.00
    0   26    1      1.01      0.00
    1   26    1     -0.10      0.00
    2   26    1     -1.42      0.00
    3   26    1     -0.77      0.00
    4   26    1     -0.56      0.00
    5   26    1     -0.53      0.00
    6   26    1     -0.79      0.00
    7   26    1     -0.28      0.00
    8   26    1      0.94      0.00
    9   26    1      0.68      0.00
   -9   27    1     -0.95      0.00
   -8   27    1      0.07      0.00
   -7   27    1     -0.36      0.00
   -6   27    1     -0.12      0.00
   -5   27    1     -0.63      0.00
   -4   27    1     -0.88      0.00
   -3   27    1      1.49      0.00
   -2   27    1     -0.01      0.00
   -1   27    1     -0.56      0.00
    0   27    1      0.45      0.00
    1   27    1     -0.24      0.00
    2   27    1      0.81      0.00
    3   27    1     -0.64      0.00
    4   27    1     -0.99      0.00
    5   27    1      0.07      0.00
    6   27    1     -0.54      0.00
    7   27    1      0.55      0.00
    8   27    1      0.03      0.00
    9   27    1     -0.30      0.00
   -9   28    1      0.35      0.00
   -8   28    1      1.67      0.00
   -7   28    1      0.80      0.00
   -6   28    1     -0.52      0.00
   -5   28    1     -0.04      0.00
   -4   28    1     -0.37      0.00
   -3   28    1     -0.07      0.00
   -2   28    1     -0.13      0.00
   -1   28    1     -0.80      0.00
    0   28    1      0.47      0.00
    1   28    1     -0.05      0.00
    2   28    1     -0.73      0.00
    3   28    1     -0.26      0.00
    4   28    1     -0.49      0.00
    5   28    1      0.42      0.00
    6   28    1     -0.30      0.00
    7   28    1     -0.45      0.00
    8   28    1      0.68      0.00
   -8   29    1      0.15      0.00
   -7   29    1     -0.43      0.00
   -6   29    1     -0.57      0.00
   -5   29    1     -0.93      0.00
   -4   29    1     -1.17      0.00
   -3   29    1      1.95      0.00
   -2   29    1      1.17      0.00
   -1   29    1     -0.82      0.00
    0   29    1     -0.52      0.00
    1   29    1     -0.47      0.00
    2   29    1      0.52      0.00
    3   29    1     -0.51      0.00
    4   29    1     -0.02      0.00
    5   29    1      1.30      0.00
    6   29    1      0.13      0.00
    7   29    1      0.72      0.00
    8   29    1      0.68      0.00
   -8   30    1      0.51      0.00
   -7   30    1      0.29      0.00
   -6   30    1     -0.16      0.00
   -5   30    1      0.68      0.00
   -4   30    1     -0.47      0.00
   -3   30    1     -0.30      0.00
   -2   30    1      0.65      0.00
   -1   30    1     -0.31      0.00
    0   30    1      0.27      0.00
    1   30    1      0.12      0.00
    2   30    1      0.07      0.00
    3   30    1      0.37      0.00
    4   30    1      0.17      0.00
    5   30    1      1.98      0.00
    6   30    1      0.65      0.00
    7   30    1     -0.71      0.00
   -7   31    1     -0.48      0.00
   -6   31    1     -0.85      0.00
   -5   31    1     -0.71      0.00
   -4   31    1     -0.69      0.00
   -3   31    1      2.15      0.00
   -2   31    1      2.26      0.00
   -1   31    1     -0.15      0.00
    0   31    1     -0.91      0.00
    1   31    1     -1.07      0.00
    2   31    1     -0.23      0.00
    3   31    1     -0.36      0.00
    4   31    1      0.44      0.00
    5   31    1      2.05      0.00
    6   31    1      1.00      0.00
    7   31    1      0.20      0.00
   -6   32    1     -0.05      0.00
   -5   32    1      0.62      0.00
   -4   32    1     -0.98      0.00
   -3   32    1     -1.22      0.00
   -2   32    1      0.71      0.00
   -1   32    1      0.32      0.00
    0   32    1     -0.01      0.00
    1   32    1     -0.23      0.00
    2   32    1     -0.08      0.00
    3   32    1      0.12      0.00
    4   32    1     -0.16      0.00
    5   32    1      1.58      0.00
    6   32    1      0.69      0.00
   -5   33    1     -0.43      0.00
   -4   33    1     -0.08      0.00
   -3   33    1      1.43      0.00
   -2   33    1      1.55      0.00
   -1   33    1      0.19      0.00
    0   33    1     -0.53      0.00
    1   33    1     -1.14      0.00
    2   33    1     -0.53      0.00
    3   33    1     -0.17      0.00
    4   33    1      0.26      0.00
    5   33    1      1.81      0.00
   -4   34    1     -1.47      0.00
   -3   34    1     -1.41      0.00
   -2   34    1      0.58      0.00
   -1   34    1      0.42      0.00
    0   34    1     -0.36      0.00
    1   34    1     -0.63      0.00
    2   34    1     -0.51      0.00
    3   34    1     -0.12      0.00
    4   34    1     -0.75      0.00
   -3   35    1      0.38      0.00
   -2   35    1     -0.01      0.00
   -1   35    1      0.03      0.00
    0   35    1      0.04      0.00
    1   35    1     -0.77      0.00
    2   35    1     -0.43      0.00
    3   35    1     -0.12      0.00
  -14    0    2     -1.43      0.00
  -13    0    2     -0.03      0.00
  -12    0    2      3.49      0.00
  -11    0    2      1.45      0.00
  -10    0    2      1.00      0.00
   -9    0    2      2.54      0.00
   -8    0    2     -0.34      0.00
   -7    0    2     -1.97      0.00
   -6    0    2     -5.69      0.00
   -5    0    2     -6.26      0.00
   -4    0    2     -2.24      0.00
   -3    0    2     12.82      0.00
   -2    0    2     16.67      0.00
   -1    0    2      5.13      0.00
    0    0    2     40.16      0.00
    1    0    2     49.15      0.00
    2    0    2      1.20      0.00
    3    0    2    -14.46      0.00
    4    0    2     -4.31      0.00
    5    0    2      0.71      0.00
    6    0    2     -0.75      0.00
    7    0    2     -1.32      0.00
    8    0    2      0.03      0.00
    9    0    2     -0.69      0.00
   10    0    2      3.17      0.00
   11    0    2      3.38      0.00
   12    0    2     -0.19      0.00
   13    0    2      0.34      0.00
   14    0    2     -0.52      0.00
  -14    1    2      1.08      0.00
  -13    1    2      1.49      0.00
  -12    1    2      1.36      0.00
  -11    1    2      0.18      0.00
  -10    1    2     -0.79      0.00
   -9    1    2     -0.76      0.00
   -8    1    2     -0.71      0.00
   -7    1    2     -0.56      0.00
   -6    1    2     -0.30      0.00
   -5    1    2      0.65      0.00
   -4    1    2      2.41      0.00
   -3    1    2      1.58      0.00
   -2    1    2      1.68      0.00
   -1    1    2     -0.16      0.00
    0    1    2     -0.12      0.00
    1    1    2      4.67      0.00
    2    1    2      1.63      0.00
    3    1    2     -2.66      0.00
    4    1    2     -1.54      0.00
    5    1    2      0.37      0.00
    6    1    2      0.75      0.00
    7    1    2      0.40      0.00
    8    1    2      1.10      0.00
    9    1    2      1.07      0.00
   10    1    2     -0.05      0.00
   11    1    2     -0.22      0.00
   12    1    2     -0.79      0.00
   13    1    2     -2.40      0.00
   14    1    2     -2.81      0.00
  -14    2    2     -1.22      0.00
  -13    2    2      0.18      0.00
  -12    2    2      3.31      0.00
  -11    2    2      0.96      0.00
  -10    2    2      0.06      0.00
   -9    2    2      1.82      0.00
   -8    2    2      0.04      0.00
   -7    2    2     -0.73      0.00
   -6    2    2     -4.32      0.00
   -5    2    2     -5.76      0.00
   -4    2    2     -1.00      0.00
   -3    2    2     13.91      0.00
   -2    2    2     14.91      0.00
   -1    2    2     -1.59      0.00
    0    2    2     25.51      0.00
    1    2    2     37.39      0.00
    2    2    2      0.32      0.00
    3    2    2    -12.50      0.00
    4    2    2     -4.69      0.00
    5    2    2     -0.22      0.00
    6    2    2     -0.08      0.00
    7    2    2     -0.62      0.00
    8    2    2     -0.14      0.00
    9    2    2     -0.67      0.00
   10    2    2      2.49      0.00
   11    2    2      1.83      0.00
   12    2    2     -1.19      0.00
   13    2    2      0.20      0.00
   14    2    2     -0.69      0.00
  -14    3    2      0.81      0.00
  -13    3    2      1.48      0.00
  -12    3    2      1.90      0.00
  -11    3    2      0.18      0.00
  -10    3    2     -1.35      0.00
   -9    3    2     -1.35      0.00
   -8    3    2     -1.68      0.00
   -7    3    2     -1.45      0.00
   -6    3    2     -0.58      0.00
   -5    3    2      0.93      0.00
   -4    3    2      3.56      0.00
   -3    3    2      1.33      0.00
   -2    3    2      3.51      0.00
   -1    3    2      1.00      0.00
    0    3    2      0.18      0.00
    1    3    2      9.91      0.00
    2    3    2      3.23      0.00
    3    3    2     -5.07      0.00
    4    3    2     -2.16      0.00
    5    3    2      1.00      0.00
    6    3    2      1.31      0.00
    7    3    2      0.69      0.00
    8    3    2      1.76      0.00
    9    3    2      1.30      0.00
   10    3    2     -0.46      0.00
   11    3    2      0.59      0.00
   12    3    2      0.16      0.00
   13    3    2     -3.62      0.00
   14    3    2     -5.10      0.00
  -14    4    2     -0.33      0.00
  -13    4    2      1.00      0.00
  -12    4    2      3.37      0.00
  -11    4    2      0.75      0.00
  -10    4    2     -1.04      0.00
   -9    4    2      0.65      0.00
   -8    4    2      0.43      0.00
   -7    4    2      0.91      0.00
   -6    4    2     -2.10      0.00
   -5    4    2     -4.87      0.00
   -4    4    2      0.89      0.00
   -3    4    2     14.65      0.00
   -2    4    2     11.52      0.00
   -1    4    2    -11.01      0.00
    0    4    2      0.51      0.00
    1    4    2     16.34      0.00
    2    4    2      0.38      0.00
    3    4    2     -7.47      0.00
    4    4    2     -4.71      0.00
    5    4    2     -1.59      0.00
    6    4    2      1.23      0.00
    7    4    2      0.50      0.00
    8    4    2     -0.56      0.00
    9    4    2     -0.35      0.00
   10    4    2      1.65      0.00
   11    4    2     -0.49      0.00
   12    4    2     -2.10      0.00
   13    4    2      0.85      0.00
  -14    5    2     -1.74      0.00
  -13    5    2     -1.46      0.00
  -12    5    2      0.11      0.00
  -11    5    2      0.02      0.00
  -10    5    2     -0.35      0.00
   -9    5    2     -0.61      0.00
   -8    5    2     -1.73      0.00
   -7    5    2     -1.63      0.00
   -6    5    2      0.22      0.00
   -5    5    2      0.53      0.00
   -4    5    2      0.21      0.00
   -3    5    2     -3.01      0.00
   -2    5    2      2.54      0.00
   -1    5    2      4.29      0.00
    0    5    2      2.11      0.00
    1    5    2      8.24      0.00
    2    5    2      1.98      0.00
    3    5    2     -2.87      0.00
    4    5    2      0.61      0.00
    5    5    2      0.73      0.00
    6    5    2      0.01      0.00
    7    5    2      0.43      0.00
    8    5    2      0.36      0.00
    9    5    2     -0.97      0.00
   10    5    2     -1.14      0.00
   11    5    2      2.53      0.00
   12    5    2      3.46      0.00
   13    5    2     -0.66      0.00
  -14    6    2      0.76      0.00
  -13    6    2      1.64      0.00
  -12    6    2      3.58      0.00
  -11    6    2      1.67      0.00
  -10    6    2     -0.41      0.00
   -9    6    2      0.37      0.00
   -8    6    2      0.01      0.00
   -7    6    2      0.53      0.00
   -6    6    2     -1.11      0.00
   -5    6    2     -3.41      0.00
   -4    6    2      1.56      0.00
   -3    6    2     11.40      0.00
   -2    6    2      7.85      0.00
   -1    6    2    -10.49      0.00
    0    6    2     -8.65      0.00
    1    6    2      5.43      0.00
    2    6    2      2.15      0.00
    3    6    2     -2.78      0.00
    4    6    2     -3.23      0.00
    5    6    2     -1.34      0.00
    6    6    2      1.84      0.00
    7    6    2      0.62      0.00
    8    6    2     -0.75      0.00
    9    6    2      0.49      0.00
   10    6    2      1.90      0.00
   11    6    2     -0.71      0.00
   12    6    2     -0.75      0.00
   13    6    2      2.59      0.00
  -14    7    2     -2.03      0.00
  -13    7    2     -1.79      0.00
  -12    7    2     -0.28      0.00
  -11    7    2      0.22      0.00
  -10    7    2      0.51      0.00
   -9    7    2      0.19      0.00
   -8    7    2     -0.87      0.00
   -7    7    2     -1.05      0.00
   -6    7    2      1.38      0.00
   -5    7    2      1.06      0.00
   -4    7    2     -1.55      0.00
   -3    7    2     -5.54      0.00
   -2    7    2     -0.43      0.00
   -1    7    2      6.19      0.00
    0    7    2      5.27      0.00
    1    7    2      4.68      0.00
    2    7    2     -0.14      0.00
    3    7    2      0.07      0.00
    4    7    2      3.05      0.00
    5    7    2     -0.34      0.00
    6    7    2     -1.56      0.00
    7    7    2      0.67      0.00
    8    7    2     -0.47      0.00
    9    7    2     -2.46      0.00
   10    7    2     -1.32      0.00
   11    7    2      2.83      0.00
   12    7    2      3.81      0.00
   13    7    2      0.54      0.00
  -14    8    2      0.57      0.00
  -13    8    2      0.49      0.00
  -12    8    2      2.44      0.00
  -11    8    2      2.07      0.00
  -10    8    2      0.74      0.00
   -9    8    2      0.55      0.00
   -8    8    2     -0.69      0.00
   -7    8    2     -0.69      0.00
   -6    8    2     -0.69      0.00
   -5    8    2     -0.57      0.00
   -4    8    2      1.98      0.00
   -3    8    2      5.46      0.00
   -2    8    2      2.90      0.00
   -1    8    2     -5.30      0.00
    0    8    2     -4.15      0.00
    1    8    2      3.63      0.00
    2    8    2      1.48      0.00
    3    8    2     -1.55      0.00
    4    8    2     -1.20      0.00
    5    8    2      0.12      0.00
    6    8    2      1.06      0.00
    7    8    2     -0.20      0.00
    8    8    2     -0.29      0.00
    9    8    2      1.06      0.00
   10    8    2      2.03      0.00
   11    8    2      0.06      0.00
   12    8    2      1.09      0.00
   13    8    2      3.09      0.00
  -14    9    2     -0.32      0.00
  -13    9    2      0.54      0.00
  -12    9    2      0.74      0.00
  -11    9    2      0.09      0.00
  -10    9    2     -0.01      0.00
   -9    9    2      0.41      0.00
   -8    9    2      0.62      0.00
   -7    9    2     -0.22      0.00
   -6    9    2      0.92      0.00
   -5    9    2      1.02      0.00
   -4    9    2      0.02      0.00
   -3    9    2     -4.02      0.00
   -2    9    2     -4.36      0.00
   -1    9    2      3.32      0.00
    0    9    2      7.06      0.00
    1    9    2      3.87      0.00
    2    9    2     -1.05      0.00
    3    9    2      0.58      0.00
    4    9    2      3.58      0.00
    5    9    2      0.04      0.00
    6    9    2     -1.29      0.00
    7    9    2      1.08      0.00
    8    9    2     -0.01      0.00
    9    9    2     -1.62      0.00
   10    9    2     -0.72      0.00
   11    9    2      1.23      0.00
   12    9    2      1.08      0.00
   13    9    2     -0.73      0.00
  -14   10    2     -0.65      0.00
  -13   10    2     -1.74      0.00
  -12   10    2      0.20      0.00
  -11   10    2      1.07      0.00
  -10   10    2      0.81      0.00
   -9   10    2      0.24      0.00
   -8   10    2     -0.85      0.00
   -7   10    2     -0.86      0.00
   -6   10    2     -0.45      0.00
   -5   10    2      1.59      0.00
   -4   10    2      2.49      0.00
   -3   10    2      1.70      0.00
   -2   10    2     -1.09      0.00
   -1   10    2     -3.93      0.00
    0   10    2     -0.76      0.00
    1   10    2      2.73      0.00
    2   10    2     -0.69      0.00
    3   10    2     -1.77      0.00
    4   10    2     -0.14      0.00
    5   10    2      0.63      0.00
    6   10    2     -0.58      0.00
    7   10    2     -0.98      0.00
    8   10    2      0.30      0.00
    9   10    2      0.56      0.00
   10   10    2      0.70      0.00
   11   10    2     -0.21      0.00
   12   10    2      1.47      0.00
   13   10    2      1.75      0.00
  -14   11    2      0.05      0.00
  -13   11    2      1.39      0.00
  -12   11    2      0.70      0.00
  -11   11    2     -0.54      0.00
  -10   11    2     -0.89      0.00
   -9   11    2      0.44      0.00
   -8   11    2      1.64      0.00
   -7   11    2      0.30      0.00
   -6   11    2     -0.79      0.00
   -5   11    2     -0.75      0.00
   -4   11    2      1.45      0.00
   -3   11    2     -1.44      0.00
   -2   11    2     -6.71      0.00
   -1   11    2     -1.45      0.00
    0   11    2      6.13      0.00
    1   11    2      4.92      0.00
    2   11    2     -0.96      0.00
    3   11    2     -0.82      0.00
    4   11    2      3.16      0.00
    5   11    2      1.93      0.00
    6   11    2      0.00      0.00
    7   11    2      0.18      0.00
    8   11    2      0.03      0.00
    9   11    2     -0.33      0.00
   10   11    2     -0.13      0.00
   11   11    2     -0.01      0.00
   12   11    2     -0.14      0.00
   13   11    2     -0.30      0.00
  -14   12    2     -1.03      0.00
  -13   12    2     -2.45      0.00
  -12   12    2     -0.93      0.00
  -11   12    2      0.25      0.00
  -10   12    2      0.52      0.00
   -9   12    2     -0.24      0.00
   -8   12    2     -0.48      0.00
   -7   12    2     -0.28      0.00
   -6   12    2     -0.93      0.00
   -5   12    2      0.72      0.00
   -4   12    2      1.56      0.00
   -3   12    2      1.48      0.00
   -2   12    2     -0.82      0.00
   -1   12    2     -4.06      0.00
    0   12    2     -0.96      0.00
    1   12    2      2.42      0.00
    2   12    2      0.61      0.00
    3   12    2     -0.40      0.00
    4   12    2     -0.59      0.00
    5   12    2     -0.50      0.00
    6   12    2     -1.62      0.00
    7   12    2     -1.04      0.00
    8   12    2      0.31      0.00
    9   12    2     -0.36      0.00
   10   12    2     -0.78      0.00
   11   12    2     -0.85      0.00
   12   12    2      1.27      0.00
   13   12    2      0.81      0.00
  -13   13    2      0.93      0.00
  -12   13    2      0.27      0.00
  -11   13    2     -0.39      0.00
  -10   13    2     -0.69      0.00
   -9   13    2      0.39      0.00
   -8   13    2      0.83      0.00
   -7   13    2      0.11      0.00
   -6   13    2     -1.09      0.00
   -5   13    2     -1.70      0.00
   -4   13    2      1.28      0.00
   -3   13    2     -0.25      0.00
   -2   13    2     -5.21      0.00
   -1   13    2     -2.54      0.00
    0   13    2      4.01      0.00
    1   13    2      4.84      0.00
    2   13    2     -0.89      0.00
    3   13    2     -2.10      0.00
    4   13    2      1.94      0.00
    5   13    2      2.27      0.00
    6   13    2      0.22      0.00
    7   13    2     -1.24      0.00
    8   13    2     -0.46      0.00
    9   13    2     -0.05      0.00
   10   13    2     -0.07      0.00
   11   13    2     -0.18      0.00
   12   13    2      0.81      0.00
   13   13    2      1.50      0.00
  -13   14    2     -1.37      0.00
  -12   14    2     -0.54      0.00
  -11   14    2      0.35      0.00
  -10   14    2      0.65      0.00
   -9   14    2     -0.27      0.00
   -8   14    2     -0.13      0.00
   -7   14    2     -0.13      0.00
   -6   14    2     -1.11      0.00
   -5   14    2     -0.65      0.00
   -4   14    2     -0.12      0.00
   -3   14    2      1.51      0.00
   -2   14    2      1.07      0.00
   -1   14    2     -2.28      0.00
    0   14    2     -1.13      0.00
    1   14    2      2.69      0.00
    2   14    2      3.39      0.00
    3   14    2      0.90      0.00
    4   14    2     -1.71      0.00
    5   14    2     -1.46      0.00
    6   14    2     -1.07      0.00
    7   14    2     -0.41      0.00
    8   14    2     -0.07      0.00
    9   14    2     -0.41      0.00
   10   14    2     -0.65      0.00
   11   14    2     -0.48      0.00
   12   14    2      1.31      0.00
  -13   15    2      1.29      0.00
  -12   15    2      0.79      0.00
  -11   15    2      0.39      0.00
  -10   15    2     -0.02      0.00
   -9   15    2      0.12      0.00
   -8   15    2     -1.14      0.00
   -7   15    2     -0.84      0.00
   -6   15    2      0.23      0.00
   -5   15    2     -0.44      0.00
   -4   15    2      0.54      0.00
   -3   15    2     -0.71      0.00
   -2   15    2     -2.01      0.00
   -1   15    2     -0.11      0.00
    0   15    2      2.32      0.00
    1   15    2      3.04      0.00
    2   15    2     -0.76      0.00
    3   15    2     -2.02      0.00
    4   15    2      0.16      0.00
    5   15    2      0.44      0.00
    6   15    2     -0.12      0.00
    7   15    2     -0.91      0.00
    8   15    2     -0.26      0.00
    9   15    2     -0.27      0.00
   10   15    2      0.03      0.00
   11   15    2      0.01      0.00
   12   15    2      1.17      0.00
  -13   16    2     -0.43      0.00
  -12   16    2     -0.19      0.00
  -11   16    2      0.15      0.00
  -10   16    2      0.28      0.00
   -9   16    2     -0.19      0.00
   -8   16    2      0.03      0.00
   -7   16    2     -0.72      0.00
   -6   16    2     -0.10      0.00
   -5   16    2      0.93      0.00
   -4   16    2      0.17      0.00
   -3   16    2      0.09      0.00
   -2   16    2      0.25      0.00
   -1   16    2     -0.60      0.00
    0   16    2     -1.23      0.00
    1   16    2      0.78      0.00
    2   16    2      2.56      0.00
    3   16    2      0.22      0.00
    4   16    2     -1.64      0.00
    5   16    2     -0.68      0.00
    6   16    2      0.25      0.00
    7   16    2      0.25      0.00
    8   16    2     -0.29      0.00
    9   16    2      0.04      0.00
   10   16    2      0.40      0.00
   11   16    2      0.46      0.00
   12   16    2      1.04      0.00
  -13   17    2      1.40      0.00
  -12   17    2      0.84      0.00
  -11   17    2     -0.05      0.00
  -10   17    2     -0.42      0.00
   -9   17    2     -0.08      0.00
   -8   17    2     -1.72      0.00
   -7   17    2     -1.44      0.00
   -6   17    2      0.96      0.00
   -5   17    2      0.99      0.00
   -4   17    2      0.12      0.00
   -3   17    2     -1.58      0.00
   -2   17    2     -0.68      0.00
   -1   17    2      1.54      0.00
    0   17    2      1.36      0.00
    1   17    2      1.30      0.00
    2   17    2     -0.22      0.00
    3   17    2     -1.15      0.00
    4   17    2     -1.02      0.00
    5   17    2     -0.86      0.00
    6   17    2      0.25      0.00
    7   17    2      0.51      0.00
    8   17    2     -0.01      0.00
    9   17    2     -0.49      0.00
   10   17    2      0.68      0.00
   11   17    2      0.55      0.00
   12   17    2      0.75      0.00
  -12   18    2     -0.32      0.00
  -11   18    2     -0.70      0.00
  -10   18    2     -0.94      0.00
   -9   18    2     -0.21      0.00
   -8   18    2      0.52      0.00
   -7   18    2     -1.44      0.00
   -6   18    2      0.49      0.00
   -5   18    2      3.36      0.00
   -4   18    2      2.00      0.00
   -3   18    2     -0.97      0.00
   -2   18    2     -1.80      0.00
   -1   18    2     -0.05      0.00
    0   18    2     -1.04      0.00
    1   18    2     -1.57      0.00
    2   18    2     -0.11      0.00
    3   18    2     -0.59      0.00
    4   18    2     -0.07      0.00
    5   18    2      0.72      0.00
    6   18    2      0.48      0.00
    7   18    2      0.26      0.00
    8   18    2     -0.26      0.00
    9   18    2     -0.32      0.00
   10   18    2      0.62      0.00
   11   18    2      1.12      0.00
   12   18    2      0.56      0.00
  -12   19    2     -0.08      0.00
  -11   19    2     -1.33      0.00
  -10   19    2     -1.59      0.00
   -9   19    2     -0.10      0.00
   -8   19    2     -0.02      0.00
   -7   19    2     -0.48      0.00
   -6   19    2      0.70      0.00
   -5   19    2      1.26      0.00
   -4   19    2      0.47      0.00
   -3   19    2     -1.17      0.00
   -2   19    2     -0.93      0.00
   -1   19    2      1.05      0.00
    0   19    2      1.23      0.00
    1   19    2      1.17      0.00
    2   19    2      0.41      0.00
    3   19    2     -1.01      0.00
    4   19    2     -1.41      0.00
    5   19    2     -0.51      0.00
    6   19    2      0.56      0.00
    7   19    2      0.38      0.00
    8   19    2     -0.62      0.00
    9   19    2     -0.48      0.00
   10   19    2      1.21      0.00
   11   19    2      1.15      0.00
  -12   20    2     -0.16      0.00
  -11   20    2     -1.16      0.00
  -10   20    2     -1.85      0.00
   -9   20    2     -0.19      0.00
   -8   20    2      1.34      0.00
   -7   20    2     -1.50      0.00
   -6   20    2     -0.61      0.00
   -5   20    2      2.77      0.00
   -4   20    2      2.19      0.00
   -3   20    2     -0.69      0.00
   -2   20    2     -1.76      0.00
   -1   20    2      0.28      0.00
    0   20    2     -0.05      0.00
    1   20    2     -1.25      0.00
    2   20    2     -0.63      0.00
    3   20    2     -0.35      0.00
    4   20    2      0.83      0.00
    5   20    2      0.94      0.00
    6   20    2     -0.47      0.00
    7   20    2     -0.28      0.00
    8   20    2     -0.20      0.00
    9   20    2     -1.40      0.00
   10   20    2      0.08      0.00
   11   20    2      1.44      0.00
  -12   21    2     -0.30      0.00
  -11   21    2     -1.24      0.00
  -10   21    2     -1.86      0.00
   -9   21    2     -0.19      0.00
   -8   21    2      1.75      0.00
   -7   21    2      1.24      0.00
   -6   21    2      0.69      0.00
   -5   21    2      1.17      0.00
   -4   21    2      1.10      0.00
   -3   21    2      0.04      0.00
   -2   21    2     -0.88      0.00
   -1   21    2      0.06      0.00
    0   21    2      1.23      0.00
    1   21    2      2.00      0.00
    2   21    2      0.81      0.00
    3   21    2     -1.55      0.00
    4   21    2     -1.50      0.00
    5   21    2      0.28      0.00
    6   21    2      0.38      0.00
    7   21    2     -0.95      0.00
    8   21    2     -0.69      0.00
    9   21    2      0.34      0.00
   10   21    2      0.74      0.00
   11   21    2      0.75      0.00
  -11   22    2     -1.02      0.00
  -10   22    2     -1.91      0.00
   -9   22    2     -0.65      0.00
   -8   22    2      1.12      0.00
   -7   22    2     -1.16      0.00
   -6   22    2     -2.00      0.00
   -5   22    2      0.23      0.00
   -4   22    2      0.40      0.00
   -3   22    2     -0.30      0.00
   -2   22    2     -0.28      0.00
   -1   22    2      0.12      0.00
    0   22    2      0.20      0.00
    1   22    2      0.22      0.00
    2   22    2      0.34      0.00
    3   22    2     -0.18      0.00
    4   22    2      0.35      0.00
    5   22    2      0.82      0.00
    6   22    2     -0.81      0.00
    7   22    2     -0.81      0.00
    8   22    2     -0.27      0.00
    9   22    2     -1.73      0.00
   10   22    2      0.03      0.00
  -11   23    2      0.01      0.00
  -10   23    2     -0.92      0.00
   -9   23    2     -0.23      0.00
   -8   23    2      1.70      0.00
   -7   23    2      1.75      0.00
   -6   23    2      1.05      0.00
   -5   23    2      1.18      0.00
   -4   23    2      0.95      0.00
   -3   23    2      0.04      0.00
   -2   23    2     -0.50      0.00
   -1   23    2     -0.41      0.00
    0   23    2      0.23      0.00
    1   23    2      1.94      0.00
    2   23    2      0.99      0.00
    3   23    2     -1.38      0.00
    4   23    2     -1.16      0.00
    5   23    2      0.93      0.00
    6   23    2      0.99      0.00
    7   23    2     -1.21      0.00
    8   23    2      0.47      0.00
    9   23    2      1.58      0.00
   10   23    2     -0.40      0.00
  -11   24    2     -0.88      0.00
  -10   24    2     -1.56      0.00
   -9   24    2     -1.66      0.00
   -8   24    2     -0.53      0.00
   -7   24    2     -1.10      0.00
   -6   24    2     -2.11      0.00
   -5   24    2     -0.72      0.00
   -4   24    2     -0.65      0.00
   -3   24    2     -0.48      0.00
   -2   24    2      0.61      0.00
   -1   24    2     -0.21      0.00
    0   24    2     -0.50      0.00
    1   24    2      0.65      0.00
    2   24    2      0.82      0.00
    3   24    2     -0.11      0.00
    4   24    2      0.55      0.00
    5   24    2      1.86      0.00
    6   24    2      0.18      0.00
    7   24    2     -1.05      0.00
    8   24    2     -0.46      0.00
    9   24    2     -0.74      0.00
   10   24    2      0.66      0.00
  -10   25    2     -0.04      0.00
   -9   25    2      0.17      0.00
   -8   25    2      0.60      0.00
   -7   25    2      0.87      0.00
   -6   25    2      1.22      0.00
   -5   25    2      1.12      0.00
   -4   25    2      0.47      0.00
   -3   25    2     -0.88      0.00
   -2   25    2     -0.26      0.00
   -1   25    2     -0.07      0.00
    0   25    2     -1.07      0.00
    1   25    2      0.84      0.00
    2   25    2      0.96      0.00
    3   25    2     -0.43      0.00
    4   25    2     -0.64      0.00
    5   25    2      1.26      0.00
    6   25    2      2.45      0.00
    7   25    2     -0.59      0.00
    8   25    2      0.85      0.00
    9   25    2      1.83      0.00
  -10   26    2     -0.94      0.00
   -9   26    2     -1.90      0.00
   -8   26    2     -1.44      0.00
   -7   26    2     -0.87      0.00
   -6   26    2     -1.25      0.00
   -5   26    2      0.19      0.00
   -4   26    2     -0.03      0.00
   -3   26    2     -0.81      0.00
   -2   26    2      0.55      0.00
   -1   26    2      0.30      0.00
    0   26    2     -0.46      0.00
    1   26    2      0.43      0.00
    2   26    2      0.55      0.00
    3   26    2      0.17      0.00
    4   26    2      1.68      0.00
    5   26    2      2.63      0.00
    6   26    2      0.86      0.00
    7   26    2     -0.98      0.00
    8   26    2     -0.59      0.00
    9   26    2      0.35      0.00
   -9   27    2      0.68      0.00
   -8   27    2     -0.16      0.00
   -7   27    2      0.09      0.00
   -6   27    2      1.28      0.00
   -5   27    2      0.88      0.00
   -4   27    2      0.55      0.00
   -3   27    2     -1.23      0.00
   -2   27    2     -0.44      0.00
   -1   27    2      0.72      0.00
    0   27    2     -0.93      0.00
    1   27    2      0.29      0.00
    2   27    2      0.82      0.00
    3   27    2      0.00      0.00
    4   27    2     -0.80      0.00
    5   27    2      0.74      0.00
    6   27    2      2.98      0.00
    7   27    2     -0.53      0.00
    8   27    2     -0.31      0.00
    9   27    2      1.14      0.00
   -9   28    2     -0.83      0.00
   -8   28    2     -0.40      0.00
   -7   28    2     -0.01      0.00
   -6   28    2     -0.57      0.00
   -5   28    2      0.74      0.00
   -4   28    2      0.66      0.00
   -3   28    2     -0.81      0.00
   -2   28    2      0.03      0.00
   -1   28    2      0.73      0.00
    0   28    2      0.02      0.00
    1   28    2      0.08      0.00
    2   28    2     -0.31      0.00
    3   28    2     -0.22      0.00
    4   28    2      1.66      0.00
    5   28    2      1.20      0.00
    6   28    2      0.00      0.00
    7   28    2     -0.66      0.00
    8   28    2     -0.60      0.00
   -8   29    2     -0.55      0.00
   -7   29    2      0.14      0.00
   -6   29    2      1.43      0.00
   -5   29    2      0.25      0.00
   -4   29    2      0.59      0.00
   -3   29    2     -1.19      0.00
   -2   29    2     -1.53      0.00
   -1   29    2      0.71      0.00
    0   29    2      0.24      0.00
    1   29    2      0.86      0.00
    2   29    2      0.82      0.00
    3   29    2     -0.51      0.00
    4   29    2     -1.63      0.00
    5   29    2     -0.57      0.00
    6   29    2      1.88      0.00
    7   29    2     -0.68      0.00
    8   29    2     -0.97      0.00
   -8   30    2      0.65      0.00
   -7   30    2      0.45      0.00
   -6   30    2     -0.48      0.00
   -5   30    2      0.32      0.00
   -4   30    2      0.65      0.00
   -3   30    2     -0.05      0.00
   -2   30    2     -0.19      0.00
   -1   30    2     -0.06      0.00
    0   30    2     -0.12      0.00
    1   30    2     -0.04      0.00
    2   30    2     -0.91      0.00
    3   30    2     -0.96      0.00
    4   30    2      0.60      0.00
    5   30    2     -0.76      0.00
    6   30    2     -1.18      0.00
    7   30    2     -0.31      0.00
   -7   31    2      0.56      0.00
   -6   31    2      1.53      0.00
   -5   31    2     -0.49      0.00
   -4   31    2      0.16      0.00
   -3   31    2     -1.11      0.00
   -2   31    2     -2.43      0.00
   -1   31    2     -0.06      0.00
    0   31    2      0.73      0.00
    1   31    2      1.40      0.00
    2   31    2      0.92      0.00
    3   31    2     -1.09      0.00
    4   31    2     -2.16      0.00
    5   31    2     -1.63      0.00
    6   31    2      0.30      0.00
   -6   32    2     -0.42      0.00
   -5   32    2      0.14      0.00
   -4   32    2      0.54      0.00
   -3   32    2      1.19      0.00
   -2   32    2      0.33      0.00
   -1   32    2     -1.09      0.00
    0   32    2     -0.31      0.00
    1   32    2      0.61      0.00
    2   32    2     -0.32      0.00
    3   32    2     -0.83      0.00
    4   32    2      0.33      0.00
    5   32    2     -0.63      0.00
   -5   33    2     -0.67      0.00
   -4   33    2      0.00      0.00
   -3   33    2     -0.46      0.00
   -2   33    2     -1.51      0.00
   -1   33    2     -0.13      0.00
    0   33    2      0.23      0.00
    1   33    2      1.12      0.00
    2   33    2      1.00      0.00
    3   33    2     -0.88      0.00
    4   33    2     -1.76      0.00
    5   33    2     -1.64      0.00
   -4   34    2      0.46      0.00
   -3   34    2      1.52      0.00
   -2   34    2      0.64      0.00
   -1   34    2     -1.39      0.00
    0   34    2     -0.11      0.00
    1   34    2      1.21      0.00
    2   34    2      0.41      0.00
    3   34    2     -0.42      0.00
   -3   35    2      0.16      0.00
   -2   35    2      0.13      0.00
   -1   35    2      0.43      0.00
    0   35    2     -0.46      0.00
    1   35    2      0.49      0.00
    2   35    2      1.00      0.00
  -14    0    3      3.25      0.00
  -13    0    3     -1.23      0.00
  -12    0    3     -3.62      0.00
  -11    0    3     -1.39      0.00
  -10    0    3     -0.46      0.00
   -9    0    3     -2.56      0.00
   -8    0    3      1.83      0.00
   -7    0    3      3.10      0.00
   -6    0    3      0.28      0.00
   -5    0    3      0.70      0.00
   -4    0    3      0.50      0.00
   -3    0    3      0.05      0.00
   -2    0    3    -10.30      0.00
   -1    0    3    -18.94      0.00
    0    0    3    -25.83      0.00
    1    0    3    -19.33      0.00
    2    0    3      0.44      0.00
    3    0    3      4.33      0.00
    4    0    3      1.15      0.00
    5    0    3     -0.37      0.00
    6    0    3      0.09      0.00
    7    0    3      1.95      0.00
    8    0    3      0.77      0.00
    9    0    3     -1.71      0.00
   10    0    3     -3.85      0.00
   11    0    3     -1.16      0.00
   12    0    3      1.53      0.00
   13    0    3     -0.96      0.00
  -14    1    3     -0.84      0.00
  -13    1    3     -1.33      0.00
  -12    1    3     -1.26      0.00
  -11    1    3      0.12      0.00
  -10    1    3      0.92      0.00
   -9    1    3      0.51      0.00
   -8    1    3      0.23      0.00
   -7    1    3      0.63      0.00
   -6    1    3      0.60      0.00
   -5    1    3     -0.13      0.00
   -4    1    3     -2.35      0.00
   -3    1    3     -2.15      0.00
   -2    1    3     -0.77      0.00
   -1    1    3     -0.95      0.00
    0    1    3     -1.62      0.00
    1    1    3     -2.30      0.00
    2    1    3     -0.10      0.00
    3    1    3      1.11      0.00
    4    1    3      0.73      0.00
    5    1    3      0.16      0.00
    6    1    3     -0.63      0.00
    7    1    3     -0.69      0.00
    8    1    3     -1.09      0.00
    9    1    3     -1.45      0.00
   10    1    3     -0.76      0.00
   11    1    3      0.49      0.00
   12    1    3      1.44      0.00
   13    1    3      1.66      0.00
  -14    2    3      3.22      0.00
  -13    2    3     -1.31      0.00
  -12    2    3     -3.62      0.00
  -11    2    3     -0.98      0.00
  -10    2    3      0.54      0.00
   -9    2    3     -1.79      0.00
   -8    2    3      1.45      0.00
   -7    2    3      1.99      0.00
   -6    2    3     -0.84      0.00
   -5    2    3      0.28      0.00
   -4    2    3     -0.76      0.00
   -3    2    3     -1.97      0.00
   -2    2    3     -8.50      0.00
   -1    2    3    -12.64      0.00
    0    2    3    -16.66      0.00
    1    2    3    -12.33      0.00
    2    2    3      2.11      0.00
    3    2    3      4.09      0.00
    4    2    3      1.37      0.00
    5    2    3      0.29      0.00
    6    2    3     -0.09      0.00
    7    2    3      1.44      0.00
    8    2    3      1.01      0.00
    9    2    3     -1.36      0.00
   10    2    3     -3.27      0.00
   11    2    3      0.05      0.00
   12    2    3      2.87      0.00
   13    2    3     -0.25      0.00
  -14    3    3     -0.43      0.00
  -13    3    3     -1.38      0.00
  -12    3    3     -2.01      0.00
  -11    3    3      0.20      0.00
  -10    3    3      1.51      0.00
   -9    3    3      0.86      0.00
   -8    3    3      0.59      0.00
   -7    3    3      1.63      0.00
   -6    3    3      1.10      0.00
   -5    3    3      0.29      0.00
   -4    3    3     -3.24      0.00
   -3    3    3     -3.26      0.00
   -2    3    3     -1.56      0.00
   -1    3    3     -2.82      0.00
    0    3    3     -3.87      0.00
    1    3    3     -4.42      0.00
    2    3    3      0.18      0.00
    3    3    3      1.53      0.00
    4    3    3      0.50      0.00
    5    3    3      0.23      0.00
    6    3    3     -0.97      0.00
    7    3    3     -1.05      0.00
    8    3    3     -1.39      0.00
    9    3    3     -2.07      0.00
   10    3    3     -1.51      0.00
   11    3    3      0.18      0.00
   12    3    3      1.70      0.00
   13    3    3      2.14      0.00
  -14    4    3      2.64      0.00
  -13    4    3     -1.80      0.00
  -12    4    3     -3.91      0.00
  -11    4    3     -0.72      0.00
  -10    4    3      1.79      0.00
   -9    4    3     -0.64      0.00
   -8    4    3      0.94      0.00
   -7    4    3      0.58      0.00
   -6    4    3     -2.35      0.00
   -5    4    3     -0.23      0.00
   -4    4    3     -2.38      0.00
   -3    4    3     -4.62      0.00
   -2    4    3     -4.76      0.00
   -1    4    3     -2.86      0.00
    0    4    3     -2.48      0.00
    1    4    3     -1.17      0.00
    2    4    3      4.19      0.00
    3    4    3      2.92      0.00
    4    4    3      0.93      0.00
    5    4    3      0.90      0.00
    6    4    3     -0.61      0.00
    7    4    3      0.47      0.00
    8    4    3      1.43      0.00
    9    4    3     -0.81      0.00
   10    4    3     -2.55      0.00
   11    4    3      1.62      0.00
   12    4    3      4.56      0.00
   13    4    3      0.38      0.00
  -14    5    3      1.77      0.00
  -13    5    3      1.29      0.00
  -12    5    3     -0.80      0.00
  -11    5    3     -0.29      0.00
  -10    5    3      0.27      0.00
   -9    5    3      0.35      0.00
   -8    5    3      0.63      0.00
   -7    5    3      1.66      0.00
   -6    5    3     -0.10      0.00
   -5    5    3      0.86      0.00
   -4    5    3      0.93      0.00
   -3    5    3     -0.34      0.00
   -2    5    3     -1.59      0.00
   -1    5    3     -4.41      0.00
    0    5    3     -4.87      0.00
    1    5    3     -3.16      0.00
    2    5    3      0.86      0.00
    3    5    3     -0.57      0.00
    4    5    3     -1.71      0.00
    5    5    3      0.31      0.00
    6    5    3      0.30      0.00
    7    5    3     -0.17      0.00
    8    5    3      0.52      0.00
    9    5    3      0.41      0.00
   10    5    3     -1.02      0.00
   11    5    3     -1.60      0.00
   12    5    3     -0.88      0.00
   13    5    3     -0.33      0.00
  -14    6    3      1.56      0.00
  -13    6    3     -2.20      0.00
  -12    6    3     -4.07      0.00
  -11    6    3     -1.26      0.00
  -10    6    3      1.30      0.00
   -9    6    3     -0.61      0.00
   -8    6    3      0.97      0.00
   -7    6    3      0.97      0.00
   -6    6    3     -2.43      0.00
   -5    6    3     -0.95      0.00
   -4    6    3     -2.27      0.00
   -3    6    3     -3.15      0.00
   -2    6    3     -0.93      0.00
   -1    6    3     -0.80      0.00
    0    6    3     -0.04      0.00
    1    6    3      2.14      0.00
    2    6    3      4.56      0.00
    3    6    3      1.65      0.00
    4    6    3     -0.77      0.00
    5    6    3     -0.06      0.00
    6    6    3     -1.08      0.00
    7    6    3      0.02      0.00
    8    6    3      1.35      0.00
    9    6    3     -0.80      0.00
   10    6    3     -2.74      0.00
   11    6    3      1.13      0.00
   12    6    3      3.81      0.00
   13    6    3     -0.19      0.00
  -14    7    3      1.74      0.00
  -13    7    3      1.78      0.00
  -12    7    3     -0.52      0.00
  -11    7    3     -0.95      0.00
  -10    7    3     -0.67      0.00
   -9    7    3      0.05      0.00
   -8    7    3      0.05      0.00
   -7    7    3      0.68      0.00
   -6    7    3     -2.07      0.00
   -5    7    3      0.16      0.00
   -4    7    3      4.07      0.00
   -3    7    3      1.42      0.00
   -2    7    3     -1.41      0.00
   -1    7    3     -4.19      0.00
    0    7    3     -5.34      0.00
    1    7    3     -2.03      0.00
    2    7    3      0.90      0.00
    3    7    3     -2.39      0.00
    4    7    3     -3.19      0.00
    5    7    3      0.46      0.00
    6    7    3      1.58      0.00
    7    7    3      0.22      0.00
    8    7    3      1.32      0.00
    9    7    3      2.11      0.00
   10    7    3     -0.38      0.00
   11    7    3     -2.24      0.00
   12    7    3     -1.53      0.00
   13    7    3     -0.70      0.00
  -14    8    3      1.20      0.00
  -13    8    3     -1.21      0.00
  -12    8    3     -2.78      0.00
  -11    8    3     -1.25      0.00
  -10    8    3      0.12      0.00
   -9    8    3     -1.11      0.00
   -8    8    3      1.19      0.00
   -7    8    3      1.91      0.00
   -6    8    3     -2.04      0.00
   -5    8    3     -2.99      0.00
   -4    8    3     -1.88      0.00
   -3    8    3      1.32      0.00
   -2    8    3      2.59      0.00
   -1    8    3     -3.10      0.00
    0    8    3     -4.60      0.00
    1    8    3      0.91      0.00
    2    8    3      5.51      0.00
    3    8    3      1.85      0.00
    4    8    3     -2.08      0.00
    5    8    3     -1.37      0.00
    6    8    3     -0.73      0.00
    7    8    3      0.34      0.00
    8    8    3      0.54      0.00
    9    8    3     -1.05      0.00
   10    8    3     -2.77      0.00
   11    8    3     -0.15      0.00
   12    8    3      1.82      0.00
   13    8    3     -0.33      0.00
  -14    9    3     -0.02      0.00
  -13    9    3     -0.01      0.00
  -12    9    3     -1.04      0.00
  -11    9    3     -0.61      0.00
  -10    9    3      0.12      0.00
   -9    9    3      0.32      0.00
   -8    9    3     -1.13      0.00
   -7    9    3     -0.55      0.00
   -6    9    3     -2.36      0.00
   -5    9    3     -0.21      0.00
   -4    9    3      3.72      0.00
   -3    9    3      0.33      0.00
   -2    9    3     -0.24      0.00
   -1    9    3     -0.95      0.00
    0    9    3     -4.63      0.00
    1    9    3     -2.55      0.00
    2    9    3      0.35      0.00
    3    9    3     -2.13      0.00
    4    9    3     -3.23      0.00
    5    9    3     -0.40      0.00
    6    9    3      1.22      0.00
    7    9    3     -0.06      0.00
    8    9    3      0.15      0.00
    9    9    3      1.03      0.00
   10    9    3     -0.36      0.00
   11    9    3     -1.21      0.00
   12    9    3      0.27      0.00
   13    9    3      1.10      0.00
  -14   10    3      1.73      0.00
  -13   10    3      0.69      0.00
  -12   10    3     -0.51      0.00
  -11   10    3     -0.26      0.00
  -10   10    3     -0.25      0.00
   -9   10    3     -0.96      0.00
   -8   10    3      0.99      0.00
   -7   10    3      1.63      0.00
   -6   10    3     -1.54      0.00
   -5   10    3     -4.36      0.00
   -4   10    3     -1.90      0.00
   -3   10    3      3.93      0.00
   -2   10    3      3.99      0.00
   -1   10    3     -3.12      0.00
    0   10    3     -5.13      0.00
    1   10    3      1.06      0.00
    2   10    3      5.86      0.00
    3   10    3      1.81      0.00
    4   10    3     -1.84      0.00
    5   10    3     -1.08      0.00
    6   10    3      0.45      0.00
    7   10    3      0.86      0.00
    8   10    3     -0.22      0.00
    9   10    3     -0.72      0.00
   10   10    3     -1.48      0.00
   11   10    3     -0.14      0.00
   12   10    3      0.61      0.00
   13   10    3      0.64      0.00
  -14   11    3     -0.38      0.00
  -13   11    3     -0.66      0.00
  -12   11    3     -0.68      0.00
  -11   11    3      0.35      0.00
  -10   11    3      1.28      0.00
   -9   11    3      0.58      0.00
   -8   11    3     -1.89      0.00
   -7   11    3     -1.20      0.00
   -6   11    3     -0.98      0.00
   -5   11    3      1.09      0.00
   -4   11    3      2.49      0.00
   -3   11    3     -0.96      0.00
   -2   11    3      1.19      0.00
   -1   11    3      2.29      0.00
    0   11    3     -2.77      0.00
    1   11    3     -2.78      0.00
    2   11    3      0.16      0.00
    3   11    3     -0.96      0.00
    4   11    3     -2.91      0.00
    5   11    3     -1.78      0.00
    6   11    3      0.33      0.00
    7   11    3      0.68      0.00
    8   11    3     -0.55      0.00
    9   11    3     -0.56      0.00
   10   11    3     -0.44      0.00
   11   11    3     -0.28      0.00
   12   11    3      0.80      0.00
  -14   12    3      1.68      0.00
  -13   12    3      1.40      0.00
  -12   12    3      0.59      0.00
  -11   12    3      0.10      0.00
  -10   12    3     -0.49      0.00
   -9   12    3     -0.42      0.00
   -8   12    3      0.46      0.00
   -7   12    3      0.64      0.00
   -6   12    3     -0.23      0.00
   -5   12    3     -2.51      0.00
   -4   12    3     -0.75      0.00
   -3   12    3      3.32      0.00
   -2   12    3      2.00      0.00
   -1   12    3     -2.15      0.00
    0   12    3     -2.48      0.00
    1   12    3      0.87      0.00
    2   12    3      2.49      0.00
    3   12    3     -0.26      0.00
    4   12    3     -0.65      0.00
    5   12    3      0.60      0.00
    6   12    3      1.38      0.00
    7   12    3      0.90      0.00
    8   12    3     -0.23      0.00
    9   12    3     -0.09      0.00
   10   12    3      0.00      0.00
   11   12    3      0.55      0.00
   12   12    3     -0.16      0.00
  -13   13    3     -0.40      0.00
  -12   13    3     -0.36      0.00
  -11   13    3      0.21      0.00
  -10   13    3      0.95      0.00
   -9   13    3      0.54      0.00
   -8   13    3     -1.00      0.00
   -7   13    3     -1.03      0.00
   -6   13    3     -0.45      0.00
   -5   13    3      2.02      0.00
   -4   13    3      1.96      0.00
   -3   13    3     -0.95      0.00
   -2   13    3      0.69      0.00
   -1   13    3      1.39      0.00
    0   13    3     -1.40      0.00
    1   13    3     -1.32      0.00
    2   13    3      0.49      0.00
    3   13    3     -0.59      0.00
    4   13    3     -2.30      0.00
    5   13    3     -1.50      0.00
    6   13    3      0.59      0.00
    7   13    3      2.08      0.00
    8   13    3     -0.06      0.00
    9   13    3     -0.78      0.00
   10   13    3     -0.19      0.00
   11   13    3     -0.14      0.00
   12   13    3     -0.32      0.00
  -13   14    3      0.58      0.00
  -12   14    3      0.17      0.00
  -11   14    3     -0.56      0.00
  -10   14    3     -1.08      0.00
   -9   14    3     -0.03      0.00
   -8   14    3      0.19      0.00
   -7   14    3      0.25      0.00
   -6   14    3      0.79      0.00
   -5   14    3     -0.07      0.00
   -4   14    3      0.89      0.00
   -3   14    3      2.15      0.00
   -2   14    3     -0.15      0.00
   -1   14    3     -2.20      0.00
    0   14    3     -1.09      0.00
    1   14    3     -0.01      0.00
    2   14    3     -1.08      0.00
    3   14    3     -1.77      0.00
    4   14    3      0.42      0.00
    5   14    3      1.78      0.00
    6   14    3      1.24      0.00
    7   14    3      0.29      0.00
    8   14    3      0.09      0.00
    9   14    3     -0.15      0.00
   10   14    3      0.08      0.00
   11   14    3      0.48      0.00
   12   14    3     -0.92      0.00
  -13   15    3     -0.83      0.00
  -12   15    3     -0.83      0.00
  -11   15    3     -0.63      0.00
  -10   15    3     -0.20      0.00
   -9   15    3      0.38      0.00
   -8   15    3      0.86      0.00
   -7   15    3     -0.30      0.00
   -6   15    3     -1.34      0.00
   -5   15    3      1.31      0.00
   -4   15    3      1.82      0.00
   -3   15    3     -0.06      0.00
   -2   15    3     -0.85      0.00
   -1   15    3     -1.98      0.00
    0   15    3     -0.89      0.00
    1   15    3      1.06      0.00
    2   15    3      0.76      0.00
    3   15    3     -1.08      0.00
    4   15    3     -1.26      0.00
    5   15    3      0.07      0.00
    6   15    3      1.12      0.00
    7   15    3      2.00      0.00
    8   15    3      0.11      0.00
    9   15    3     -0.24      0.00
   10   15    3     -0.22      0.00
   11   15    3     -0.32      0.00
   12   15    3     -0.65      0.00
  -13   16    3     -0.16      0.00
  -12   16    3     -0.11      0.00
  -11   16    3     -0.65      0.00
  -10   16    3     -0.90      0.00
   -9   16    3      0.37      0.00
   -8   16    3      0.35      0.00
   -7   16    3      0.84      0.00
   -6   16    3      0.37      0.00
   -5   16    3     -0.81      0.00
   -4   16    3      0.43      0.00
   -3   16    3      1.88      0.00
   -2   16    3      0.69      0.00
   -1   16    3     -1.74      0.00
    0   16    3     -0.61      0.00
    1   16    3      1.07      0.00
    2   16    3     -0.29      0.00
    3   16    3     -0.85      0.00
    4   16    3      0.32      0.00
    5   16    3      1.30      0.00
    6   16    3      0.57      0.00
    7   16    3     -0.40      0.00
    8   16    3      0.03      0.00
    9   16    3     -0.66      0.00
   10   16    3     -0.57      0.00
   11   16    3     -0.10      0.00
   12   16    3     -1.00      0.00
  -13   17    3     -0.79      0.00
  -12   17    3     -0.56      0.00
  -11   17    3     -0.08      0.00
  -10   17    3     -0.26      0.00
   -9   17    3      0.17      0.00
   -8   17    3      1.53      0.00
   -7   17    3      0.06      0.00
   -6   17    3     -1.79      0.00
   -5   17    3      0.55      0.00
   -4   17    3      1.65      0.00
   -3   17    3      0.68      0.00
   -2   17    3     -1.00      0.00
   -1   17    3     -3.26      0.00
    0   17    3     -0.51      0.00
    1   17    3      2.51      0.00
    2   17    3      0.74      0.00
    3   17    3     -1.23      0.00
    4   17    3     -0.52      0.00
    5   17    3      0.50      0.00
    6   17    3      0.84      0.00
    7   17    3      0.92      0.00
    8   17    3      0.04      0.00
    9   17    3      0.22      0.00
   10   17    3     -0.94      0.00
   11   17    3     -0.84      0.00
  -12   18    3      0.35      0.00
  -11   18    3      0.33      0.00
  -10   18    3      0.26      0.00
   -9   18    3      0.45      0.00
   -8   18    3      0.04      0.00
   -7   18    3      1.70      0.00
   -6   18    3     -0.09      0.00
   -5   18    3     -2.87      0.00
   -4   18    3     -1.41      0.00
   -3   18    3      1.45      0.00
   -2   18    3      2.36      0.00
   -1   18    3     -0.67      0.00
    0   18    3     -0.47      0.00
    1   18    3      2.48      0.00
    2   18    3      1.90      0.00
    3   18    3      0.23      0.00
    4   18    3     -0.80      0.00
    5   18    3      0.10      0.00
    6   18    3      0.39      0.00
    7   18    3     -0.56      0.00
    8   18    3     -0.34      0.00
    9   18    3     -0.43      0.00
   10   18    3     -0.38      0.00
   11   18    3     -0.45      0.00
  -12   19    3      0.44      0.00
  -11   19    3      1.39      0.00
  -10   19    3      0.74      0.00
   -9   19    3      0.05      0.00
   -8   19    3      0.28      0.00
   -7   19    3     -0.85      0.00
   -6   19    3     -1.43      0.00
   -5   19    3      0.47      0.00
   -4   19    3      0.92      0.00
   -3   19    3      0.14      0.00
   -2   19    3     -0.26      0.00
   -1   19    3     -2.19      0.00
    0   19    3     -0.63      0.00
    1   19    3      1.85      0.00
    2   19    3      0.50      0.00
    3   19    3     -0.29      0.00
    4   19    3     -0.17      0.00
    5   19    3     -0.31      0.00
    6   19    3      0.76      0.00
    7   19    3      1.12      0.00
    8   19    3      0.55      0.00
    9   19    3      0.32      0.00
   10   19    3     -1.55      0.00
   11   19    3     -1.44      0.00
  -12   20    3      0.67      0.00
  -11   20    3      1.08      0.00
  -10   20    3      1.04      0.00
   -9   20    3     -0.25      0.00
   -8   20    3     -1.08      0.00
   -7   20    3      1.96      0.00
   -6   20    3      0.78      0.00
   -5   20    3     -2.39      0.00
   -4   20    3     -1.56      0.00
   -3   20    3      0.46      0.00
   -2   20    3      1.84      0.00
   -1   20    3     -0.20      0.00
    0   20    3     -0.78      0.00
    1   20    3      1.49      0.00
    2   20    3      1.45      0.00
    3   20    3      0.14      0.00
    4   20    3     -1.06      0.00
    5   20    3     -0.33      0.00
    6   20    3      0.69      0.00
    7   20    3     -0.16      0.00
    8   20    3     -0.57      0.00
    9   20    3      0.44      0.00
   10   20    3      0.40      0.00
   11   20    3     -0.58      0.00
  -12   21    3      0.31      0.00
  -11   21    3      1.52      0.00
  -10   21    3      1.22      0.00
   -9   21    3      0.14      0.00
   -8   21    3     -1.21      0.00
   -7   21    3     -2.36      0.00
   -6   21    3     -1.41      0.00
   -5   21    3      0.21      0.00
   -4   21    3     -0.16      0.00
   -3   21    3     -0.92      0.00
   -2   21    3     -0.03      0.00
   -1   21    3     -1.17      0.00
    0   21    3     -1.11      0.00
    1   21    3      0.18      0.00
    2   21    3      0.07      0.00
    3   21    3      0.84      0.00
    4   21    3      0.17      0.00
    5   21    3     -0.70      0.00
    6   21    3      1.16      0.00
    7   21    3      1.94      0.00
    8   21    3      0.55      0.00
    9   21    3     -0.36      0.00
   10   21    3     -1.18      0.00
  -11   22    3      0.99      0.00
  -10   22    3      1.04      0.00
   -9   22    3     -0.73      0.00
   -8   22    3     -1.36      0.00
   -7   22    3      1.91      0.00
   -6   22    3      1.90      0.00
   -5   22    3     -0.15      0.00
   -4   22    3      0.08      0.00
   -3   22    3     -0.15      0.00
   -2   22    3      0.16      0.00
   -1   22    3      0.13      0.00
    0   22    3     -0.39      0.00
    1   22    3     -0.22      0.00
    2   22    3     -0.27      0.00
    3   22    3      0.08      0.00
    4   22    3     -0.25      0.00
    5   22    3     -0.51      0.00
    6   22    3      0.56      0.00
    7   22    3      0.35      0.00
    8   22    3     -0.54      0.00
    9   22    3      0.52      0.00
   10   22    3      0.37      0.00
  -11   23    3      0.58      0.00
  -10   23    3      0.81      0.00
   -9   23    3      0.19      0.00
   -8   23    3     -1.48      0.00
   -7   23    3     -2.68      0.00
   -6   23    3     -1.66      0.00
   -5   23    3     -0.40      0.00
   -4   23    3     -0.61      0.00
   -3   23    3     -0.71      0.00
   -2   23    3      0.11      0.00
   -1   23    3     -0.79      0.00
    0   23    3     -0.54      0.00
    1   23    3     -0.24      0.00
    2   23    3     -0.38      0.00
    3   23    3      0.87      0.00
    4   23    3      0.19      0.00
    5   23    3     -0.65      0.00
    6   23    3      0.44      0.00
    7   23    3      1.25      0.00
    8   23    3     -0.54      0.00
    9   23    3     -1.35      0.00
   10   23    3     -0.19      0.00
  -11   24    3      0.69      0.00
  -10   24    3      1.03      0.00
   -9   24    3     -0.08      0.00
   -8   24    3      0.07      0.00
   -7   24    3      2.16      0.00
   -6   24    3      1.87      0.00
   -5   24    3      0.74      0.00
   -4   24    3      0.99      0.00
   -3   24    3     -0.02      0.00
   -2   24    3     -0.47      0.00
   -1   24    3      0.44      0.00
    0   24    3      0.42      0.00
    1   24    3     -0.52      0.00
    2   24    3     -0.89      0.00
    3   24    3      0.01      0.00
    4   24    3     -0.65      0.00
    5   24    3     -1.54      0.00
    6   24    3     -0.09      0.00
    7   24    3      0.55      0.00
    8   24    3     -0.44      0.00
    9   24    3     -0.59      0.00
  -10   25    3      0.48      0.00
   -9   25    3     -0.11      0.00
   -8   25    3     -0.95      0.00
   -7   25    3     -1.40      0.00
   -6   25    3     -1.33      0.00
   -5   25    3     -0.79      0.00
   -4   25    3     -0.57      0.00
   -3   25    3      0.24      0.00
   -2   25    3      0.49      0.00
   -1   25    3     -0.74      0.00
    0   25    3      0.62      0.00
    1   25    3      0.51      0.00
    2   25    3     -0.69      0.00
    3   25    3      0.14      0.00
    4   25    3     -0.20      0.00
    5   25    3     -1.00      0.00
    6   25    3     -1.45      0.00
    7   25    3     -0.27      0.00
    8   25    3     -0.91      0.00
    9   25    3     -1.30      0.00
  -10   26    3      1.04      0.00
   -9   26    3      0.48      0.00
   -8   26    3      1.02      0.00
   -7   26    3      1.93      0.00
   -6   26    3      0.87      0.00
   -5   26    3     -0.07      0.00
   -4   26    3      0.32      0.00
   -3   26    3      0.27      0.00
   -2   26    3      0.08      0.00
   -1   26    3      0.00      0.00
    0   26    3      0.20      0.00
    1   26    3      0.10      0.00
    2   26    3     -0.40      0.00
    3   26    3     -0.59      0.00
    4   26    3     -2.35      0.00
    5   26    3     -2.16      0.00
    6   26    3     -0.01      0.00
    7   26    3      0.35      0.00
    8   26    3     -0.36      0.00
    9   26    3     -1.52      0.00
   -9   27    3     -0.45      0.00
   -8   27    3     -0.59      0.00
   -7   27    3      0.05      0.00
   -6   27    3     -0.72      0.00
   -5   27    3     -0.77      0.00
   -4   27    3     -0.68      0.00
   -3   27    3      0.46      0.00
   -2   27    3      0.99      0.00
   -1   27    3     -0.79      0.00
    0   27    3      0.41      0.00
    1   27    3      0.34      0.00
    2   27    3     -0.85      0.00
    3   27    3      0.26      0.00
    4   27    3     -0.12      0.00
    5   27    3     -1.37      0.00
    6   27    3     -2.39      0.00
    7   27    3     -0.71      0.00
    8   27    3      0.07      0.00
   -9   28    3     -0.10      0.00
   -8   28    3     -0.06      0.00
   -7   28    3      0.63      0.00
   -6   28    3      0.00      0.00
   -5   28    3     -0.67      0.00
   -4   28    3     -0.56      0.00
   -3   28    3      0.12      0.00
   -2   28    3      0.74      0.00
   -1   28    3     -0.46      0.00
    0   28    3     -0.38      0.00
    1   28    3      0.98      0.00
    2   28    3      0.56      0.00
    3   28    3     -0.74      0.00
    4   28    3     -2.71      0.00
    5   28    3     -0.71      0.00
    6   28    3      1.26      0.00
    7   28    3      0.05      0.00
    8   28    3     -0.13      0.00
   -8   29    3     -0.46      0.00
   -7   29    3      0.43      0.00
   -6   29    3     -0.53      0.00
   -5   29    3     -0.36      0.00
   -4   29    3     -0.52      0.00
   -3   29    3      0.26      0.00
   -2   29    3      1.90      0.00
   -1   29    3     -0.16      0.00
    0   29    3     -0.88      0.00
    1   29    3     -0.95      0.00
    2   29    3     -0.74      0.00
    3   29    3      1.70      0.00
    4   29    3      0.94      0.00
    5   29    3     -0.94      0.00
    6   29    3     -1.37      0.00
    7   29    3     -0.36      0.00
   -8   30    3     -1.17      0.00
   -7   30    3     -0.34      0.00
   -6   30    3     -0.04      0.00
   -5   30    3     -0.27      0.00
   -4   30    3     -0.67      0.00
   -3   30    3     -0.65      0.00
   -2   30    3      0.59      0.00
   -1   30    3     -0.04      0.00
    0   30    3     -0.07      0.00
    1   30    3      1.62      0.00
    2   30    3      1.00      0.00
    3   30    3     -0.48      0.00
    4   30    3     -1.43      0.00
    5   30    3      1.21      0.00
    6   30    3      2.23      0.00
   -7   31    3     -0.01      0.00
   -6   31    3     -0.77      0.00
   -5   31    3      0.08      0.00
   -4   31    3      0.00      0.00
   -3   31    3      0.09      0.00
   -2   31    3      2.49      0.00
   -1   31    3      0.82      0.00
    0   31    3     -1.43      0.00
    1   31    3     -1.66      0.00
    2   31    3     -0.36      0.00
    3   31    3      3.02      0.00
    4   31    3      2.03      0.00
    5   31    3     -0.04      0.00
    6   31    3      0.31      0.00
   -6   32    3      0.29      0.00
   -5   32    3      0.22      0.00
   -4   32    3     -0.30      0.00
   -3   32    3     -1.52      0.00
   -2   32    3     -0.42      0.00
   -1   32    3      0.49      0.00
    0   32    3      0.41      0.00
    1   32    3      1.34      0.00
    2   32    3      0.27      0.00
    3   32    3     -0.84      0.00
    4   32    3     -0.52      0.00
    5   32    3      1.21      0.00
   -5   33    3      0.06      0.00
   -4   33    3      0.04      0.00
   -3   33    3     -0.41      0.00
   -2   33    3      1.52      0.00
   -1   33    3      0.74      0.00
    0   33    3     -1.04      0.00
    1   33    3     -1.26      0.00
    2   33    3     -0.22      0.00
    3   33    3      2.60      0.00
    4   33    3      1.87      0.00
   -4   34    3      0.09      0.00
   -3   34    3     -1.55      0.00
   -2   34    3     -1.06      0.00
   -1   34    3      0.48      0.00
    0   34    3      0.30      0.00
    1   34    3      0.78      0.00
    2   34    3     -0.41      0.00
    3   34    3     -1.24      0.00
   -2   35    3      0.15      0.00
   -1   35    3     -0.09      0.00
    0   35    3     -0.50      0.00
  -14    0    4     -0.99      0.00
  -13    0    4      1.28      0.00
  -12    0    4      0.41      0.00
  -11    0    4      0.02      0.00
  -10    0    4      1.68      0.00
   -9    0    4      1.92      0.00
   -8    0    4     -1.43      0.00
   -7    0    4     -2.16      0.00
   -6    0    4      1.09      0.00
   -5    0    4     -0.58      0.00
   -4    0    4     -3.02      0.00
   -3    0    4     -0.19      0.00
   -2    0    4     15.68      0.00
   -1    0    4     15.35      0.00
    0    0    4      0.33      0.00
    1    0    4      2.90      0.00
    2    0    4      7.20      0.00
    3    0    4      3.76      0.00
    4    0    4     -0.54      0.00
    5    0    4     -1.85      0.00
    6    0    4     -0.75      0.00
    7    0    4     -0.34      0.00
    8    0    4      0.89      0.00
    9    0    4      0.28      0.00
   10    0    4     -0.26      0.00
   11    0    4      0.24      0.00
   12    0    4      1.16      0.00
   13    0    4      4.18      0.00
  -14    1    4      0.72      0.00
  -13    1    4      1.09      0.00
  -12    1    4      1.20      0.00
  -11    1    4     -0.33      0.00
  -10    1    4     -1.04      0.00
   -9    1    4     -0.25      0.00
   -8    1    4      0.32      0.00
   -7    1    4     -0.54      0.00
   -6    1    4     -1.17      0.00
   -5    1    4     -0.28      0.00
   -4    1    4      2.25      0.00
   -3    1    4      2.31      0.00
   -2    1    4      0.00      0.00
   -1    1    4      0.49      0.00
    0    1    4      1.90      0.00
    1    1    4      1.68      0.00
    2    1    4     -0.38      0.00
    3    1    4     -1.31      0.00
    4    1    4     -0.72      0.00
    5    1    4      0.17      0.00
    6    1    4      0.70      0.00
    7    1    4      0.60      0.00
    8    1    4      1.13      0.00
    9    1    4      1.80      0.00
   10    1    4      1.20      0.00
   11    1    4     -0.38      0.00
   12    1    4     -1.70      0.00
   13    1    4     -1.29      0.00
  -14    2    4     -1.01      0.00
  -13    2    4      1.16      0.00
  -12    2    4      0.43      0.00
  -11    2    4     -0.08      0.00
  -10    2    4      0.83      0.00
   -9    2    4      1.04      0.00
   -8    2    4     -1.26      0.00
   -7    2    4     -1.19      0.00
   -6    2    4      1.94      0.00
   -5    2    4     -0.18      0.00
   -4    2    4     -1.69      0.00
   -3    2    4      2.06      0.00
   -2    2    4     14.15      0.00
   -1    2    4     10.06      0.00
    0    2    4     -4.70      0.00
    1    2    4     -0.08      0.00
    2    2    4      5.82      0.00
    3    2    4      2.89      0.00
    4    2    4     -1.07      0.00
    5    2    4     -2.31      0.00
    6    2    4     -0.61      0.00
    7    2    4     -0.02      0.00
    8    2    4      0.48      0.00
    9    2    4     -0.21      0.00
   10    2    4     -0.77      0.00
   11    2    4     -0.70      0.00
   12    2    4     -0.09      0.00
   13    2    4      3.14      0.00
  -14    3    4      0.33      0.00
  -13    3    4      1.06      0.00
  -12    3    4      2.08      0.00
  -11    3    4     -0.56      0.00
  -10    3    4     -1.66      0.00
   -9    3    4     -0.20      0.00
   -8    3    4      0.63      0.00
   -7    3    4     -1.38      0.00
   -6    3    4     -2.48      0.00
   -5    3    4     -1.09      0.00
   -4    3    4      3.44      0.00
   -3    3    4      4.01      0.00
   -2    3    4     -0.15      0.00
   -1    3    4      1.13      0.00
    0    3    4      3.81      0.00
    1    3    4      3.34      0.00
    2    3    4     -0.62      0.00
    3    3    4     -2.34      0.00
    4    3    4     -1.12      0.00
    5    3    4      0.64      0.00
    6    3    4      1.36      0.00
    7    3    4      0.71      0.00
    8    3    4      1.38      0.00
    9    3    4      2.89      0.00
   10    3    4      2.53      0.00
   11    3    4     -0.11      0.00
   12    3    4     -2.71      0.00
   13    3    4     -1.62      0.00
  -14    4    4     -0.57      0.00
  -13    4    4      1.21      0.00
  -12    4    4      0.72      0.00
  -11    4    4      0.17      0.00
  -10    4    4     -0.20      0.00
   -9    4    4     -0.23      0.00
   -8    4    4     -1.07      0.00
   -7    4    4      0.08      0.00
   -6    4    4      2.90      0.00
   -5    4    4      0.11      0.00
   -4    4    4      0.04      0.00
   -3    4    4      5.27      0.00
   -2    4    4     10.55      0.00
   -1    4    4      1.44      0.00
    0    4    4    -11.00      0.00
    1    4    4     -3.56      0.00
    2    4    4      3.66      0.00
    3    4    4      1.57      0.00
    4    4    4     -1.31      0.00
    5    4    4     -2.48      0.00
    6    4    4      0.11      0.00
    7    4    4      0.76      0.00
    8    4    4     -0.30      0.00
    9    4    4     -1.13      0.00
   10    4    4     -1.37      0.00
   11    4    4     -1.79      0.00
   12    4    4     -1.80      0.00
   13    4    4      1.63      0.00
  -14    5    4     -1.68      0.00
  -13    5    4     -1.19      0.00
  -12    5    4      1.17      0.00
  -11    5    4      0.12      0.00
  -10    5    4      0.03      0.00
   -9    5    4      0.46      0.00
   -8    5    4      0.36      0.00
   -7    5    4     -1.45      0.00
   -6    5    4     -1.49      0.00
   -5    5    4     -1.32      0.00
   -4    5    4      0.16      0.00
   -3    5    4      1.88      0.00
   -2    5    4      0.26      0.00
   -1    5    4      1.42      0.00
    0    5    4      3.02      0.00
    1    5    4      2.90      0.00
    2    5    4      0.52      0.00
    3    5    4     -0.97      0.00
    4    5    4     -0.38      0.00
    5    5    4      0.94      0.00
    6    5    4      0.75      0.00
    7    5    4     -0.33      0.00
    8    5    4     -0.78      0.00
    9    5    4      0.37      0.00
   10    5    4      2.00      0.00
   11    5    4      1.25      0.00
   12    5    4     -0.76      0.00
   13    5    4      0.31      0.00
  -14    6    4      0.49      0.00
  -13    6    4      1.41      0.00
  -12    6    4      1.03      0.00
  -11    6    4      0.91      0.00
  -10    6    4      0.22      0.00
   -9    6    4     -0.22      0.00
   -8    6    4     -1.19      0.00
   -7    6    4     -0.10      0.00
   -6    6    4      2.54      0.00
   -5    6    4      0.17      0.00
   -4    6    4      0.12      0.00
   -3    6    4      4.61      0.00
   -2    6    4      6.28      0.00
   -1    6    4     -1.20      0.00
    0    6    4     -8.53      0.00
    1    6    4     -2.34      0.00
    2    6    4      1.86      0.00
    3    6    4      0.69      0.00
    4    6    4     -0.26      0.00
    5    6    4     -1.35      0.00
    6    6    4      1.23      0.00
    7    6    4      1.43      0.00
    8    6    4     -0.59      0.00
    9    6    4     -1.50      0.00
   10    6    4     -0.92      0.00
   11    6    4     -1.04      0.00
   12    6    4     -1.57      0.00
   13    6    4      1.28      0.00
  -14    7    4     -1.74      0.00
  -13    7    4     -1.50      0.00
  -12    7    4      0.68      0.00
  -11    7    4      0.73      0.00
  -10    7    4      1.52      0.00
   -9    7    4      0.79      0.00
   -8    7    4      0.13      0.00
   -7    7    4     -0.70      0.00
   -6    7    4      0.82      0.00
   -5    7    4     -0.02      0.00
   -4    7    4     -2.59      0.00
   -3    7    4      0.22      0.00
   -2    7    4      1.51      0.00
   -1    7    4      0.91      0.00
    0    7    4      1.42      0.00
    1    7    4      3.02      0.00
    2    7    4      2.78      0.00
    3    7    4      0.40      0.00
    4    7    4     -0.11      0.00
    5    7    4      0.81      0.00
    6    7    4      0.03      0.00
    7    7    4     -0.43      0.00
    8    7    4     -1.61      0.00
    9    7    4     -1.60      0.00
   10    7    4      0.93      0.00
   11    7    4      1.63      0.00
   12    7    4      0.13      0.00
  -14    8    4      0.93      0.00
  -13    8    4      0.84      0.00
  -12    8    4      0.45      0.00
  -11    8    4      0.85      0.00
  -10    8    4      0.98      0.00
   -9    8    4      0.45      0.00
   -8    8    4     -1.39      0.00
   -7    8    4     -0.66      0.00
   -6    8    4      1.99      0.00
   -5    8    4      1.33      0.00
   -4    8    4      0.17      0.00
   -3    8    4      1.16      0.00
   -2    8    4      2.24      0.00
   -1    8    4      0.31      0.00
    0    8    4     -2.43      0.00
    1    8    4     -0.76      0.00
    2    8    4     -1.01      0.00
    3    8    4     -0.20      0.00
    4    8    4      0.62      0.00
    5    8    4     -0.37      0.00
    6    8    4      1.61      0.00
    7    8    4      1.44      0.00
    8    8    4     -0.19      0.00
    9    8    4     -1.32      0.00
   10    8    4     -0.12      0.00
   11    8    4      0.39      0.00
   12    8    4     -0.48      0.00
  -14    9    4     -0.31      0.00
  -13    9    4      0.12      0.00
  -12    9    4      0.62      0.00
  -11    9    4     -0.02      0.00
  -10    9    4      0.95      0.00
   -9    9    4      0.53      0.00
   -8    9    4      0.53      0.00
   -7    9    4      0.17      0.00
   -6    9    4      1.87      0.00
   -5    9    4      0.99      0.00
   -4    9    4     -2.62      0.00
   -3    9    4      0.55      0.00
   -2    9    4      1.66      0.00
   -1    9    4     -1.40      0.00
    0    9    4     -0.21      0.00
    1    9    4      4.04      0.00
    2    9    4      4.12      0.00
    3    9    4      0.08      0.00
    4    9    4     -0.23      0.00
    5    9    4      0.94      0.00
    6    9    4      0.10      0.00
    7    9    4      0.63      0.00
    8    9    4      0.06      0.00
    9    9    4     -0.74      0.00
   10    9    4      0.44      0.00
   11    9    4      0.68      0.00
   12    9    4     -0.84      0.00
  -14   10    4      0.16      0.00
  -13   10    4     -0.45      0.00
  -12   10    4     -0.61      0.00
  -11   10    4     -0.10      0.00
  -10   10    4      0.84      0.00
   -9   10    4      0.49      0.00
   -8   10    4     -1.27      0.00
   -7   10    4     -0.27      0.00
   -6   10    4      1.48      0.00
   -5   10    4      2.07      0.00
   -4   10    4      0.78      0.00
   -3   10    4     -0.92      0.00
   -2   10    4      0.08      0.00
   -1   10    4      0.82      0.00
    0   10    4     -0.43      0.00
    1   10    4     -1.57      0.00
    2   10    4     -2.79      0.00
    3   10    4      0.00      0.00
    4   10    4      0.45      0.00
    5   10    4     -0.72      0.00
    6   10    4      0.89      0.00
    7   10    4      0.83      0.00
    8   10    4      0.12      0.00
    9   10    4     -1.36      0.00
   10   10    4     -0.07      0.00
   11   10    4      0.66      0.00
   12   10    4     -0.17      0.00
  -14   11    4     -0.08      0.00
  -13   11    4      0.80      0.00
  -12   11    4      0.13      0.00
  -11   11    4     -1.20      0.00
  -10   11    4     -0.35      0.00
   -9   11    4      0.25      0.00
   -8   11    4      0.98      0.00
   -7   11    4      0.45      0.00
   -6   11    4      1.17      0.00
   -5   11    4      0.26      0.00
   -4   11    4     -1.86      0.00
   -3   11    4      1.13      0.00
   -2   11    4      0.55      0.00
   -1   11    4     -3.64      0.00
    0   11    4     -1.44      0.00
    1   11    4      4.18      0.00
    2   11    4      3.42      0.00
    3   11    4     -0.79      0.00
    4   11    4      0.33      0.00
    5   11    4      1.06      0.00
    6   11    4     -0.06      0.00
    7   11    4      0.77      0.00
    8   11    4      1.46      0.00
    9   11    4      0.67      0.00
   10   11    4      0.11      0.00
   11   11    4     -0.07      0.00
   12   11    4     -0.99      0.00
  -14   12    4     -0.56      0.00
  -13   12    4     -1.05      0.00
  -12   12    4     -0.60      0.00
  -11   12    4     -0.20      0.00
  -10   12    4      0.76      0.00
   -9   12    4      0.07      0.00
   -8   12    4     -0.88      0.00
   -7   12    4      0.53      0.00
   -6   12    4      0.18      0.00
   -5   12    4      0.18      0.00
   -4   12    4      0.15      0.00
   -3   12    4     -0.72      0.00
   -2   12    4      0.45      0.00
   -1   12    4      0.55      0.00
    0   12    4     -0.83      0.00
    1   12    4     -1.35      0.00
    2   12    4     -0.71      0.00
    3   12    4      1.75      0.00
    4   12    4     -0.08      0.00
    5   12    4     -1.38      0.00
    6   12    4      0.10      0.00
    7   12    4      0.15      0.00
    8   12    4     -0.25      0.00
    9   12    4     -1.59      0.00
   10   12    4     -0.29      0.00
   11   12    4      0.24      0.00
   12   12    4     -0.11      0.00
  -13   13    4      0.77      0.00
  -12   13    4      0.20      0.00
  -11   13    4     -0.79      0.00
  -10   13    4     -0.34      0.00
   -9   13    4      0.23      0.00
   -8   13    4      0.56      0.00
   -7   13    4      0.14      0.00
   -6   13    4      0.70      0.00
   -5   13    4     -0.59      0.00
   -4   13    4     -1.43      0.00
   -3   13    4      1.31      0.00
   -2   13    4      0.51      0.00
   -1   13    4     -2.81      0.00
    0   13    4     -1.40      0.00
    1   13    4      2.99      0.00
    2   13    4      1.94      0.00
    3   13    4     -0.58      0.00
    4   13    4      1.06      0.00
    5   13    4      0.03      0.00
    6   13    4     -1.12      0.00
    7   13    4     -0.15      0.00
    8   13    4      1.34      0.00
    9   13    4      0.65      0.00
   10   13    4     -0.47      0.00
   11   13    4     -0.06      0.00
   12   13    4     -0.11      0.00
  -13   14    4     -0.53      0.00
  -12   14    4      0.60      0.00
  -11   14    4      0.99      0.00
  -10   14    4      1.34      0.00
   -9   14    4     -0.45      0.00
   -8   14    4     -0.90      0.00
   -7   14    4      0.66      0.00
   -6   14    4     -0.87      0.00
   -5   14    4     -1.82      0.00
   -4   14    4     -1.12      0.00
   -3   14    4     -0.28      0.00
   -2   14    4      0.89      0.00
   -1   14    4      0.46      0.00
    0   14    4     -0.49      0.00
    1   14    4      0.01      0.00
    2   14    4      1.56      0.00
    3   14    4      2.17      0.00
    4   14    4     -0.46      0.00
    5   14    4     -1.01      0.00
    6   14    4     -0.02      0.00
    7   14    4     -0.22      0.00
    8   14    4     -0.75      0.00
    9   14    4     -1.23      0.00
   10   14    4      0.16      0.00
   11   14    4      0.28      0.00
   12   14    4      0.22      0.00
  -13   15    4      1.11      0.00
  -12   15    4      0.89      0.00
  -11   15    4      0.50      0.00
  -10   15    4      0.53      0.00
   -9   15    4      0.36      0.00
   -8   15    4     -0.32      0.00
   -7   15    4     -0.34      0.00
   -6   15    4      1.00      0.00
   -5   15    4     -0.41      0.00
   -4   15    4     -1.20      0.00
   -3   15    4      1.23      0.00
   -2   15    4      1.47      0.00
   -1   15    4     -0.46      0.00
    0   15    4     -1.02      0.00
    1   15    4      1.13      0.00
    2   15    4      1.00      0.00
    3   15    4      0.36      0.00
    4   15    4      0.96      0.00
    5   15    4     -1.39      0.00
    6   15    4     -1.65      0.00
    7   15    4     -0.20      0.00
    8   15    4      1.04      0.00
    9   15    4     -0.08      0.00
   10   15    4     -0.58      0.00
   11   15    4      0.29      0.00
  -13   16    4     -0.02      0.00
  -12   16    4      1.33      0.00
  -11   16    4      1.68      0.00
  -10   16    4      1.42      0.00
   -9   16    4     -1.34      0.00
   -8   16    4     -1.59      0.00
   -7   16    4     -0.03      0.00
   -6   16    4     -0.47      0.00
   -5   16    4     -0.64      0.00
   -4   16    4     -0.62      0.00
   -3   16    4     -0.52      0.00
   -2   16    4     -0.49      0.00
   -1   16    4     -0.25      0.00
    0   16    4     -0.26      0.00
    1   16    4     -0.51      0.00
    2   16    4      0.27      0.00
    3   16    4      0.26      0.00
    4   16    4     -0.32      0.00
    5   16    4      0.38      0.00
    6   16    4      0.32      0.00
    7   16    4     -0.28      0.00
    8   16    4     -0.61      0.00
    9   16    4     -0.42      0.00
   10   16    4      0.58      0.00
   11   16    4      0.55      0.00
  -13   17    4      0.66      0.00
  -12   17    4      0.45      0.00
  -11   17    4      0.43      0.00
  -10   17    4      0.54      0.00
   -9   17    4      0.40      0.00
   -8   17    4     -0.33      0.00
   -7   17    4     -0.43      0.00
   -6   17    4      0.74      0.00
   -5   17    4     -0.20      0.00
   -4   17    4     -1.02      0.00
   -3   17    4      0.98      0.00
   -2   17    4      1.50      0.00
   -1   17    4     -0.02      0.00
    0   17    4     -1.45      0.00
    1   17    4     -0.39      0.00
    2   17    4      0.58      0.00
    3   17    4      0.69      0.00
    4   17    4      0.28      0.00
    5   17    4     -1.53      0.00
    6   17    4     -0.96      0.00
    7   17    4      0.38      0.00
    8   17    4      0.75      0.00
    9   17    4     -0.53      0.00
   10   17    4      0.20      0.00
   11   17    4      0.88      0.00
  -12   18    4      0.81      0.00
  -11   18    4      0.99      0.00
  -10   18    4      0.65      0.00
   -9   18    4     -1.92      0.00
   -8   18    4     -1.77      0.00
   -7   18    4     -0.67      0.00
   -6   18    4      0.02      0.00
   -5   18    4      1.62      0.00
   -4   18    4      1.02      0.00
   -3   18    4     -0.65      0.00
   -2   18    4     -1.82      0.00
   -1   18    4     -0.94      0.00
    0   18    4     -0.44      0.00
    1   18    4     -1.68      0.00
    2   18    4     -1.46      0.00
    3   18    4     -1.01      0.00
    4   18    4      0.21      0.00
    5   18    4      1.60      0.00
    6   18    4      0.73      0.00
    7   18    4     -0.19      0.00
    8   18    4      0.03      0.00
    9   18    4     -0.19      0.00
   10   18    4     -0.15      0.00
   11   18    4      0.52      0.00
  -12   19    4     -0.68      0.00
  -11   19    4     -0.54      0.00
  -10   19    4     -0.31      0.00
   -9   19    4      0.15      0.00
   -8   19    4      0.67      0.00
   -7   19    4      0.38      0.00
   -6   19    4      0.01      0.00
   -5   19    4     -0.26      0.00
   -4   19    4     -0.43      0.00
   -3   19    4      1.10      0.00
   -2   19    4      0.93      0.00
   -1   19    4     -0.74      0.00
    0   19    4     -1.41      0.00
    1   19    4     -0.40      0.00
    2   19    4      0.54      0.00
    3   19    4      0.22      0.00
    4   19    4     -0.41      0.00
    5   19    4     -1.06      0.00
    6   19    4     -0.63      0.00
    7   19    4     -0.05      0.00
    8   19    4     -0.11      0.00
    9   19    4     -0.50      0.00
   10   19    4      1.02      0.00
  -12   20    4     -0.10      0.00
  -11   20    4      0.09      0.00
  -10   20    4      0.29      0.00
   -9   20    4     -1.21      0.00
   -8   20    4     -0.61      0.00
   -7   20    4     -0.42      0.00
   -6   20    4     -0.73      0.00
   -5   20    4      1.37      0.00
   -4   20    4      1.33      0.00
   -3   20    4     -0.32      0.00
   -2   20    4     -1.16      0.00
   -1   20    4     -0.59      0.00
    0   20    4     -0.43      0.00
    1   20    4     -1.09      0.00
    2   20    4     -0.42      0.00
    3   20    4     -0.58      0.00
    4   20    4     -0.18      0.00
    5   20    4      1.65      0.00
    6   20    4      1.14      0.00
    7   20    4     -0.19      0.00
    8   20    4      0.50      0.00
    9   20    4     -0.63      0.00
   10   20    4     -1.36      0.00
  -12   21    4     -0.50      0.00
  -11   21    4     -0.39      0.00
  -10   21    4     -0.70      0.00
   -9   21    4     -0.35      0.00
   -8   21    4      1.47      0.00
   -7   21    4      1.71      0.00
   -6   21    4      0.11      0.00
   -5   21    4      0.18      0.00
   -4   21    4      0.47      0.00
   -3   21    4      1.30      0.00
   -2   21    4      0.80      0.00
   -1   21    4     -0.40      0.00
    0   21    4     -0.30      0.00
    1   21    4      0.50      0.00
    2   21    4      0.80      0.00
    3   21    4      0.01      0.00
    4   21    4     -0.90      0.00
    5   21    4     -1.62      0.00
    6   21    4     -1.10      0.00
    7   21    4     -0.61      0.00
    8   21    4     -0.44      0.00
    9   21    4      0.27      0.00
   10   21    4      1.03      0.00
  -11   22    4     -0.08      0.00
  -10   22    4      0.62      0.00
   -9   22    4     -0.27      0.00
   -8   22    4      0.26      0.00
   -7   22    4      0.15      0.00
   -6   22    4     -1.80      0.00
   -5   22    4     -0.60      0.00
   -4   22    4      0.44      0.00
   -3   22    4     -0.08      0.00
   -2   22    4      0.16      0.00
   -1   22    4     -0.12      0.00
    0   22    4     -0.85      0.00
    1   22    4     -0.06      0.00
    2   22    4      1.43      0.00
    3   22    4     -0.24      0.00
    4   22    4     -1.39      0.00
    5   22    4      1.28      0.00
    6   22    4      1.52      0.00
    7   22    4     -0.40      0.00
    8   22    4      0.57      0.00
    9   22    4     -0.54      0.00
   10   22    4     -1.47      0.00
  -11   23    4      0.35      0.00
  -10   23    4     -0.45      0.00
   -9   23    4     -0.72      0.00
   -8   23    4      1.28      0.00
   -7   23    4      2.20      0.00
   -6   23    4      0.77      0.00
   -5   23    4      0.86      0.00
   -4   23    4      0.83      0.00
   -3   23    4      0.68      0.00
   -2   23    4      0.57      0.00
   -1   23    4      0.38      0.00
    0   23    4      0.05      0.00
    1   23    4      0.22      0.00
    2   23    4      0.90      0.00
    3   23    4      0.75      0.00
    4   23    4     -0.79      0.00
    5   23    4     -2.54      0.00
    6   23    4     -0.59      0.00
    7   23    4      0.53      0.00
    8   23    4      0.34      0.00
    9   23    4      1.34      0.00
  -11   24    4      0.06      0.00
  -10   24    4      0.57      0.00
   -9   24    4     -0.55      0.00
   -8   24    4     -0.56      0.00
   -7   24    4      0.11      0.00
   -6   24    4     -1.93      0.00
   -5   24    4     -1.49      0.00
   -4   24    4      0.18      0.00
   -3   24    4     -0.25      0.00
   -2   24    4      0.20      0.00
   -1   24    4     -0.11      0.00
    0   24    4     -1.44      0.00
    1   24    4     -0.06      0.00
    2   24    4      1.93      0.00
    3   24    4     -0.12      0.00
    4   24    4     -1.09      0.00
    5   24    4      1.78      0.00
    6   24    4      1.60      0.00
    7   24    4     -0.58      0.00
    8   24    4      0.60      0.00
    9   24    4      0.46      0.00
  -10   25    4     -0.27      0.00
   -9   25    4     -0.63      0.00
   -8   25    4      0.50      0.00
   -7   25    4      1.22      0.00
   -6   25    4      0.83      0.00
   -5   25    4      1.04      0.00
   -4   25    4      0.67      0.00
   -3   25    4     -0.03      0.00
   -2   25    4      0.03      0.00
   -1   25    4      0.56      0.00
    0   25    4     -0.61      0.00
    1   25    4     -1.01      0.00
    2   25    4      0.76      0.00
    3   25    4      1.80      0.00
    4   25    4      0.01      0.00
    5   25    4     -2.15      0.00
    6   25    4      1.27      0.00
    7   25    4      2.19      0.00
    8   25    4      0.54      0.00
  -10   26    4      0.02      0.00
   -9   26    4     -1.07      0.00
   -8   26    4     -1.32      0.00
   -7   26    4      0.22      0.00
   -6   26    4     -1.07      0.00
   -5   26    4     -0.88      0.00
   -4   26    4      0.91      0.00
   -3   26    4     -0.47      0.00
   -2   26    4     -0.72      0.00
   -1   26    4      0.05      0.00
    0   26    4     -1.18      0.00
    1   26    4     -0.55      0.00
    2   26    4      1.53      0.00
    3   26    4      0.51      0.00
    4   26    4      0.81      0.00
    5   26    4      2.25      0.00
    6   26    4      0.81      0.00
    7   26    4     -0.41      0.00
    8   26    4      0.68      0.00
   -9   27    4     -0.28      0.00
   -8   27    4     -0.11      0.00
   -7   27    4     -0.12      0.00
   -6   27    4      0.49      0.00
   -5   27    4      0.75      0.00
   -4   27    4      0.50      0.00
   -3   27    4      0.16      0.00
   -2   27    4     -0.42      0.00
   -1   27    4      0.27      0.00
    0   27    4     -0.39      0.00
    1   27    4     -1.04      0.00
    2   27    4      0.66      0.00
    3   27    4      1.71      0.00
    4   27    4      0.47      0.00
    5   27    4     -0.78      0.00
    6   27    4      2.52      0.00
    7   27    4      2.30      0.00
    8   27    4     -0.45      0.00
   -9   28    4     -0.48      0.00
   -8   28    4     -0.37      0.00
   -7   28    4      1.17      0.00
   -6   28    4     -0.11      0.00
   -5   28    4     -0.24      0.00
   -4   28    4      1.58      0.00
   -3   28    4     -0.22      0.00
   -2   28    4     -1.17      0.00
   -1   28    4      0.21      0.00
    0   28    4     -0.86      0.00
    1   28    4     -1.15      0.00
    2   28    4      0.87      0.00
    3   28    4      0.87      0.00
    4   28    4      1.55      0.00
    5   28    4      1.10      0.00
    6   28    4     -0.64      0.00
    7   28    4     -0.11      0.00
   -8   29    4     -0.39      0.00
   -7   29    4     -0.52      0.00
   -6   29    4      0.73      0.00
   -5   29    4      0.38      0.00
   -4   29    4      0.04      0.00
   -3   29    4      0.56      0.00
   -2   29    4     -1.01      0.00
   -1   29    4     -0.47      0.00
    0   29    4      0.70      0.00
    1   29    4      0.05      0.00
    2   29    4      0.24      0.00
    3   29    4     -0.04      0.00
    4   29    4     -0.39      0.00
    5   29    4     -0.09      0.00
    6   29    4      1.89      0.00
   -7   30    4      1.64      0.00
   -6   30    4      0.04      0.00
   -5   30    4     -0.36      0.00
   -4   30    4      1.46      0.00
   -3   30    4      0.47      0.00
   -2   30    4     -0.43      0.00
   -1   30    4     -0.03      0.00
    0   30    4     -1.41      0.00
    1   30    4     -1.62      0.00
    2   30    4      0.55      0.00
    3   30    4      0.79      0.00
    4   30    4      0.60      0.00
    5   30    4     -0.56      0.00
    6   30    4     -1.43      0.00
   -7   31    4     -0.20      0.00
   -6   31    4      1.46      0.00
   -5   31    4      0.24      0.00
   -4   31    4     -0.59      0.00
   -3   31    4      0.68      0.00
   -2   31    4     -1.31      0.00
   -1   31    4     -1.14      0.00
    0   31    4      1.14      0.00
    1   31    4      0.48      0.00
    2   31    4     -0.57      0.00
    3   31    4     -1.88      0.00
    4   31    4     -1.65      0.00
    5   31    4     -0.44      0.00
   -6   32    4     -0.40      0.00
   -5   32    4     -0.63      0.00
   -4   32    4      0.73      0.00
   -3   32    4      0.90      0.00
   -2   32    4      1.01      0.00
   -1   32    4     -0.06      0.00
    0   32    4     -1.91      0.00
    1   32    4     -1.43      0.00
    2   32    4      0.89      0.00
    3   32    4      1.07      0.00
    4   32    4     -0.12      0.00
   -5   33    4      0.43      0.00
   -4   33    4     -0.60      0.00
   -3   33    4      0.91      0.00
   -2   33    4     -0.55      0.00
   -1   33    4     -0.66      0.00
    0   33    4      0.89      0.00
    1   33    4      0.07      0.00
    2   33    4     -0.82      0.00
    3   33    4     -1.82      0.00
   -3   34    4      0.57      0.00
   -2   34    4      1.82      0.00
   -1   34    4      0.34      0.00
    0   34    4     -1.60      0.00
    1   34    4     -0.97      0.00
  -14    0    5      2.18      0.00
  -13    0    5      0.32      0.00
  -12    0    5     -0.39      0.00
  -11    0    5      1.21      0.00
  -10    0    5     -0.07      0.00
   -9    0    5     -1.27      0.00
   -8    0    5     -1.35      0.00
   -7    0    5      2.21      0.00
   -6    0    5      0.32      0.00
   -5    0    5     -0.44      0.00
   -4    0    5      0.64      0.00
   -3    0    5     -1.79      0.00
   -2    0    5     -4.28      0.00
   -1    0    5     -5.27      0.00
    0    0    5     -3.58      0.00
    1    0    5     -0.77      0.00
    2    0    5     -0.96      0.00
    3    0    5     -3.14      0.00
    4    0    5     -2.03      0.00
    5    0    5     -0.02      0.00
    6    0    5      0.82      0.00
    7    0    5      1.53      0.00
    8    0    5      2.14      0.00
    9    0    5      1.62      0.00
   10    0    5     -2.79      0.00
   11    0    5     -3.47      0.00
   12    0    5      0.44      0.00
  -14    1    5     -0.92      0.00
  -13    1    5     -0.66      0.00
  -12    1    5     -0.96      0.00
  -11    1    5      0.21      0.00
  -10    1    5      1.23      0.00
   -9    1    5      0.35      0.00
   -8    1    5     -0.67      0.00
   -7    1    5      0.13      0.00
   -6    1    5      1.11      0.00
   -5    1    5      0.34      0.00
   -4    1    5     -1.06      0.00
   -3    1    5     -1.52      0.00
   -2    1    5     -0.42      0.00
   -1    1    5      0.17      0.00
    0    1    5     -1.23      0.00
    1    1    5     -1.82      0.00
    2    1    5      0.65      0.00
    3    1    5      1.61      0.00
    4    1    5      0.57      0.00
    5    1    5     -0.31      0.00
    6    1    5     -0.59      0.00
    7    1    5     -0.45      0.00
    8    1    5     -1.38      0.00
    9    1    5     -1.81      0.00
   10    1    5     -0.88      0.00
   11    1    5     -0.10      0.00
   12    1    5      1.28      0.00
  -14    2    5      2.19      0.00
  -13    2    5      0.37      0.00
  -12    2    5     -0.25      0.00
  -11    2    5      1.11      0.00
  -10    2    5      0.40      0.00
   -9    2    5     -0.46      0.00
   -8    2    5     -1.32      0.00
   -7    2    5      1.47      0.00
   -6    2    5     -0.21      0.00
   -5    2    5     -0.96      0.00
   -4    2    5     -0.68      0.00
   -3    2    5     -3.46      0.00
   -2    2    5     -3.60      0.00
   -1    2    5     -1.78      0.00
    0    2    5     -0.22      0.00
    1    2    5      0.21      0.00
    2    2    5     -0.94      0.00
    3    2    5     -2.26      0.00
    4    2    5     -1.14      0.00
    5    2    5      0.47      0.00
    6    2    5      0.71      0.00
    7    2    5      1.34      0.00
    8    2    5      2.48      0.00
    9    2    5      1.85      0.00
   10    2    5     -2.13      0.00
   11    2    5     -2.39      0.00
   12    2    5      1.07      0.00
  -14    3    5     -0.88      0.00
  -13    3    5     -0.18      0.00
  -12    3    5     -1.73      0.00
  -11    3    5      0.14      0.00
  -10    3    5      2.04      0.00
   -9    3    5      0.50      0.00
   -8    3    5     -1.39      0.00
   -7    3    5      0.36      0.00
   -6    3    5      2.44      0.00
   -5    3    5      1.02      0.00
   -4    3    5     -1.06      0.00
   -3    3    5     -2.49      0.00
   -2    3    5     -1.08      0.00
   -1    3    5      0.67      0.00
    0    3    5     -1.98      0.00
    1    3    5     -3.75      0.00
    2    3    5      1.19      0.00
    3    3    5      3.16      0.00
    4    3    5      1.06      0.00
    5    3    5     -0.92      0.00
    6    3    5     -1.34      0.00
    7    3    5     -0.54      0.00
    8    3    5     -2.04      0.00
    9    3    5     -2.88      0.00
   10    3    5     -1.71      0.00
   11    3    5     -0.88      0.00
   12    3    5      2.05      0.00
  -14    4    5      1.65      0.00
  -13    4    5      0.14      0.00
  -12    4    5     -0.13      0.00
  -11    4    5      0.54      0.00
  -10    4    5      0.76      0.00
   -9    4    5      0.65      0.00
   -8    4    5     -1.22      0.00
   -7    4    5      0.44      0.00
   -6    4    5     -0.59      0.00
   -5    4    5     -1.39      0.00
   -4    4    5     -2.36      0.00
   -3    4    5     -5.48      0.00
   -2    4    5     -1.98      0.00
   -1    4    5      3.63      0.00
    0    4    5      4.13      0.00
    1    4    5      0.62      0.00
    2    4    5     -1.32      0.00
    3    4    5     -0.88      0.00
    4    4    5     -0.07      0.00
    5    4    5      0.84      0.00
    6    4    5      0.05      0.00
    7    4    5      0.75      0.00
    8    4    5      3.01      0.00
    9    4    5      2.14      0.00
   10    4    5     -1.01      0.00
   11    4    5     -0.70      0.00
   12    4    5      1.56      0.00
  -14    5    5      1.01      0.00
  -13    5    5      1.93      0.00
  -12    5    5     -1.17      0.00
  -11    5    5     -0.71      0.00
  -10    5    5      0.36      0.00
   -9    5    5     -0.06      0.00
   -8    5    5     -0.94      0.00
   -7    5    5      0.36      0.00
   -6    5    5      1.69      0.00
   -5    5    5      0.82      0.00
   -4    5    5      1.39      0.00
   -3    5    5     -0.70      0.00
   -2    5    5     -1.98      0.00
   -1    5    5      0.75      0.00
    0    5    5     -0.56      0.00
    1    5    5     -3.40      0.00
    2    5    5     -0.05      0.00
    3    5    5      1.86      0.00
    4    5    5      0.77      0.00
    5    5    5     -1.10      0.00
    6    5    5     -1.34      0.00
    7    5    5      0.11      0.00
    8    5    5      0.00      0.00
    9    5    5     -0.25      0.00
   10    5    5     -1.05      0.00
   11    5    5     -2.07      0.00
   12    5    5      0.68      0.00
  -14    6    5      0.31      0.00
  -13    6    5     -0.47      0.00
  -12    6    5     -0.17      0.00
  -11    6    5     -0.28      0.00
  -10    6    5      0.16      0.00
   -9    6    5      0.58      0.00
   -8    6    5     -1.05      0.00
   -7    6    5      0.29      0.00
   -6    6    5     -0.05      0.00
   -5    6    5     -1.19      0.00
   -4    6    5     -2.26      0.00
   -3    6    5     -4.20      0.00
   -2    6    5     -0.02      0.00
   -1    6    5      4.48      0.00
    0    6    5      3.10      0.00
    1    6    5     -0.88      0.00
    2    6    5     -1.07      0.00
    3    6    5     -0.04      0.00
    4    6    5     -0.39      0.00
    5    6    5      0.30      0.00
    6    6    5     -0.90      0.00
    7    6    5      0.05      0.00
    8    6    5      2.83      0.00
    9    6    5      1.85      0.00
   10    6    5     -0.66      0.00
   11    6    5     -0.45      0.00
   12    6    5      0.62      0.00
  -14    7    5      1.50      0.00
  -13    7    5      2.20      0.00
  -12    7    5     -0.77      0.00
  -11    7    5     -1.05      0.00
  -10    7    5     -1.32      0.00
   -9    7    5     -0.54      0.00
   -8    7    5     -0.15      0.00
   -7    7    5     -0.04      0.00
   -6    7    5     -0.36      0.00
   -5    7    5     -0.84      0.00
   -4    7    5      2.76      0.00
   -3    7    5      0.88      0.00
   -2    7    5     -2.98      0.00
   -1    7    5      0.31      0.00
    0    7    5      0.57      0.00
    1    7    5     -3.10      0.00
    2    7    5     -2.14      0.00
    3    7    5      0.13      0.00
    4    7    5      0.76      0.00
    5    7    5     -0.70      0.00
    6    7    5     -1.22      0.00
    7    7    5     -0.29      0.00
    8    7    5      1.13      0.00
    9    7    5      2.00      0.00
   10    7    5     -0.25      0.00
   11    7    5     -2.10      0.00
   12    7    5      0.23      0.00
  -14    8    5     -0.61      0.00
  -13    8    5     -0.66      0.00
  -12    8    5      0.01      0.00
  -11    8    5     -0.22      0.00
  -10    8    5     -0.14      0.00
   -9    8    5      0.04      0.00
   -8    8    5     -0.87      0.00
   -7    8    5      0.22      0.00
   -6    8    5      0.22      0.00
   -5    8    5     -1.54      0.00
   -4    8    5     -1.91      0.00
   -3    8    5     -1.14      0.00
   -2    8    5      1.68      0.00
   -1    8    5      2.23      0.00
    0    8    5      0.00      0.00
    1    8    5     -1.00      0.00
    2    8    5      1.23      0.00
    3    8    5      0.58      0.00
    4    8    5     -1.04      0.00
    5    8    5      0.14      0.00
    6    8    5     -0.93      0.00
    7    8    5     -0.11      0.00
    8    8    5      1.90      0.00
    9    8    5      1.17      0.00
   10    8    5     -0.98      0.00
   11    8    5     -1.18      0.00
   12    8    5     -0.39      0.00
  -14    9    5      0.57      0.00
  -13    9    5      0.69      0.00
  -12    9    5     -0.47      0.00
  -11    9    5      0.14      0.00
  -10    9    5     -1.07      0.00
   -9    9    5     -0.59      0.00
   -8    9    5      0.03      0.00
   -7    9    5     -0.42      0.00
   -6    9    5     -1.55      0.00
   -5    9    5     -2.24      0.00
   -4    9    5      2.02      0.00
   -3    9    5      1.35      0.00
   -2    9    5     -2.16      0.00
   -1    9    5      0.84      0.00
    0    9    5      0.72      0.00
    1    9    5     -3.21      0.00
    2    9    5     -2.57      0.00
    3    9    5      0.21      0.00
    4    9    5      0.76      0.00
    5    9    5     -0.46      0.00
    6    9    5     -1.30      0.00
    7    9    5     -1.58      0.00
    8    9    5      0.00      0.00
    9    9    5      1.44      0.00
   10    9    5     -0.18      0.00
   11    9    5     -0.93      0.00
   12    9    5      1.16      0.00
  -14   10    5     -0.11      0.00
  -13   10    5     -0.14      0.00
  -12   10    5      0.24      0.00
  -11   10    5      0.72      0.00
  -10   10    5      0.67      0.00
   -9   10    5      0.13      0.00
   -8   10    5     -0.85      0.00
   -7   10    5     -0.53      0.00
   -6   10    5      0.24      0.00
   -5   10    5     -1.38      0.00
   -4   10    5     -1.96      0.00
   -3   10    5      0.34      0.00
   -2   10    5      2.25      0.00
   -1   10    5      0.95      0.00
    0   10    5     -0.74      0.00
    1   10    5      0.28      0.00
    2   10    5      2.78      0.00
    3   10    5      0.29      0.00
    4   10    5     -1.11      0.00
    5   10    5      0.74      0.00
    6   10    5     -0.03      0.00
    7   10    5      0.38      0.00
    8   10    5      1.17      0.00
    9   10    5      0.87      0.00
   10   10    5     -1.22      0.00
   11   10    5     -1.48      0.00
   12   10    5     -0.20      0.00
  -14   11    5      0.24      0.00
  -13   11    5     -0.20      0.00
  -12   11    5      0.05      0.00
  -11   11    5      1.48      0.00
  -10   11    5     -0.06      0.00
   -9   11    5     -0.54      0.00
   -8   11    5     -0.06      0.00
   -7   11    5     -0.31      0.00
   -6   11    5     -1.35      0.00
   -5   11    5     -2.09      0.00
   -4   11    5      0.95      0.00
   -3   11    5      1.53      0.00
   -2   11    5      0.19      0.00
   -1   11    5      1.84      0.00
    0   11    5      0.24      0.00
    1   11    5     -2.85      0.00
    2   11    5     -0.91      0.00
    3   11    5      1.22      0.00
    4   11    5     -0.13      0.00
    5   11    5     -0.49      0.00
    6   11    5     -0.85      0.00
    7   11    5     -1.70      0.00
    8   11    5     -0.98      0.00
    9   11    5      0.05      0.00
   10   11    5     -0.12      0.00
   11   11    5      0.04      0.00
  -13   12    5      0.15      0.00
  -12   12    5     -0.29      0.00
  -11   12    5      0.90      0.00
  -10   12    5      1.10      0.00
   -9   12    5      0.40      0.00
   -8   12    5     -0.97      0.00
   -7   12    5     -1.32      0.00
   -6   12    5      1.00      0.00
   -5   12    5      0.87      0.00
   -4   12    5     -0.90      0.00
   -3   12    5      0.08      0.00
   -2   12    5      1.66      0.00
   -1   12    5      0.93      0.00
    0   12    5     -0.58      0.00
    1   12    5     -0.45      0.00
    2   12    5      0.92      0.00
    3   12    5     -0.90      0.00
    4   12    5     -0.95      0.00
    5   12    5      0.70      0.00
    6   12    5      0.51      0.00
    7   12    5      1.04      0.00
    8   12    5      1.37      0.00
    9   12    5      1.04      0.00
   10   12    5     -1.49      0.00
   11   12    5     -1.44      0.00
  -13   13    5     -0.67      0.00
  -12   13    5     -0.24      0.00
  -11   13    5      1.04      0.00
  -10   13    5     -0.12      0.00
   -9   13    5     -0.65      0.00
   -8   13    5      0.29      0.00
   -7   13    5      0.17      0.00
   -6   13    5     -1.19      0.00
   -5   13    5     -1.48      0.00
   -4   13    5      0.40      0.00
   -3   13    5      1.18      0.00
   -2   13    5      1.18      0.00
   -1   13    5      1.22      0.00
    0   13    5     -0.83      0.00
    1   13    5     -2.18      0.00
    2   13    5      0.56      0.00
    3   13    5      1.30      0.00
    4   13    5     -1.16      0.00
    5   13    5     -0.07      0.00
    6   13    5      0.04      0.00
    7   13    5     -0.63      0.00
    8   13    5     -0.59      0.00
    9   13    5     -0.15      0.00
   10   13    5      0.44      0.00
   11   13    5      0.22      0.00
  -13   14    5     -0.46      0.00
  -12   14    5     -1.59      0.00
  -11   14    5     -0.20      0.00
  -10   14    5      0.31      0.00
   -9   14    5      0.50      0.00
   -8   14    5     -0.61      0.00
   -7   14    5     -1.31      0.00
   -6   14    5      1.52      0.00
   -5   14    5      2.71      0.00
   -4   14    5      0.64      0.00
   -3   14    5     -0.21      0.00
   -2   14    5      1.32      0.00
   -1   14    5      1.31      0.00
    0   14    5     -0.90      0.00
    1   14    5     -2.06      0.00
    2   14    5     -1.02      0.00
    3   14    5     -0.67      0.00
    4   14    5     -0.61      0.00
    5   14    5     -0.47      0.00
    6   14    5      0.28      0.00
    7   14    5      1.46      0.00
    8   14    5      1.99      0.00
    9   14    5      0.93      0.00
   10   14    5     -2.13      0.00
   11   14    5     -1.49      0.00
  -13   15    5     -1.25      0.00
  -12   15    5     -1.02      0.00
  -11   15    5     -0.23      0.00
  -10   15    5     -0.84      0.00
   -9   15    5     -0.94      0.00
   -8   15    5      0.75      0.00
   -7   15    5      0.61      0.00
   -6   15    5     -1.45      0.00
   -5   15    5     -1.29      0.00
   -4   15    5      0.23      0.00
   -3   15    5      0.33      0.00
   -2   15    5      0.52      0.00
   -1   15    5      0.07      0.00
    0   15    5     -1.16      0.00
    1   15    5     -1.16      0.00
    2   15    5      0.82      0.00
    3   15    5      0.66      0.00
    4   15    5     -1.00      0.00
    5   15    5      0.47      0.00
    6   15    5     -0.05      0.00
    7   15    5     -0.29      0.00
    8   15    5     -0.06      0.00
    9   15    5      0.35      0.00
   10   15    5      0.70      0.00
   11   15    5     -0.13      0.00
  -13   16    5     -1.23      0.00
  -12   16    5     -2.36      0.00
  -11   16    5     -1.02      0.00
  -10   16    5     -0.35      0.00
   -9   16    5      1.00      0.00
   -8   16    5      0.58      0.00
   -7   16    5     -0.41      0.00
   -6   16    5      0.78      0.00
   -5   16    5      1.45      0.00
   -4   16    5      0.64      0.00
   -3   16    5      0.07      0.00
   -2   16    5      1.97      0.00
   -1   16    5      2.01      0.00
    0   16    5     -0.52      0.00
    1   16    5     -1.30      0.00
    2   16    5     -0.08      0.00
    3   16    5      1.04      0.00
    4   16    5     -0.40      0.00
    5   16    5     -1.81      0.00
    6   16    5     -0.21      0.00
    7   16    5      1.37      0.00
    8   16    5      2.00      0.00
    9   16    5      0.37      0.00
   10   16    5     -2.34      0.00
   11   16    5     -1.23      0.00
  -12   17    5     -0.60      0.00
  -11   17    5     -0.19      0.00
  -10   17    5     -0.77      0.00
   -9   17    5     -1.18      0.00
   -8   17    5      0.58      0.00
   -7   17    5      0.82      0.00
   -6   17    5     -1.12      0.00
   -5   17    5     -1.03      0.00
   -4   17    5      0.36      0.00
   -3   17    5     -0.15      0.00
   -2   17    5      0.26      0.00
   -1   17    5      0.55      0.00
    0   17    5     -0.05      0.00
    1   17    5      0.15      0.00
    2   17    5      0.70      0.00
    3   17    5      0.50      0.00
    4   17    5      0.16      0.00
    5   17    5      0.30      0.00
    6   17    5     -1.14      0.00
    7   17    5     -0.64      0.00
    8   17    5      0.33      0.00
    9   17    5      0.84      0.00
   10   17    5      0.16      0.00
  -12   18    5     -1.71      0.00
  -11   18    5     -0.49      0.00
  -10   18    5     -0.10      0.00
   -9   18    5      1.36      0.00
   -8   18    5      1.22      0.00
   -7   18    5      0.50      0.00
   -6   18    5      0.08      0.00
   -5   18    5     -0.74      0.00
   -4   18    5     -0.19      0.00
   -3   18    5      0.44      0.00
   -2   18    5      2.23      0.00
   -1   18    5      2.16      0.00
    0   18    5      0.31      0.00
    1   18    5      0.47      0.00
    2   18    5      0.98      0.00
    3   18    5      1.39      0.00
    4   18    5     -0.59      0.00
    5   18    5     -2.32      0.00
    6   18    5     -0.74      0.00
    7   18    5      0.65      0.00
    8   18    5      1.19      0.00
    9   18    5      0.14      0.00
   10   18    5     -1.29      0.00
  -12   19    5      0.36      0.00
  -11   19    5      0.51      0.00
  -10   19    5      0.05      0.00
   -9   19    5     -0.96      0.00
   -8   19    5     -0.08      0.00
   -7   19    5      0.53      0.00
   -6   19    5     -0.43      0.00
   -5   19    5     -0.78      0.00
   -4   19    5      0.31      0.00
   -3   19    5     -0.21      0.00
   -2   19    5      0.50      0.00
   -1   19    5      1.21      0.00
    0   19    5      0.26      0.00
    1   19    5      0.38      0.00
    2   19    5      0.44      0.00
    3   19    5      0.72      0.00
    4   19    5      1.21      0.00
    5   19    5      0.17      0.00
    6   19    5     -1.33      0.00
    7   19    5     -0.32      0.00
    8   19    5      0.99      0.00
    9   19    5      1.12      0.00
   10   19    5     -0.46      0.00
  -12   20    5     -0.31      0.00
  -11   20    5      0.43      0.00
  -10   20    5      0.05      0.00
   -9   20    5      0.48      0.00
   -8   20    5      0.00      0.00
   -7   20    5      0.40      0.00
   -6   20    5      0.62      0.00
   -5   20    5     -0.82      0.00
   -4   20    5     -0.17      0.00
   -3   20    5      0.42      0.00
   -2   20    5      1.10      0.00
   -1   20    5      1.32      0.00
    0   20    5      0.62      0.00
    1   20    5      0.75      0.00
    2   20    5     -0.06      0.00
    3   20    5      0.22      0.00
    4   20    5     -0.20      0.00
    5   20    5     -1.74      0.00
    6   20    5     -1.20      0.00
    7   20    5     -0.10      0.00
    8   20    5      0.30      0.00
    9   20    5      0.47      0.00
   10   20    5      0.20      0.00
  -11   21    5      0.08      0.00
  -10   21    5      0.58      0.00
   -9   21    5     -0.18      0.00
   -8   21    5     -0.49      0.00
   -7   21    5     -0.34      0.00
   -6   21    5     -0.51      0.00
   -5   21    5     -1.09      0.00
   -4   21    5     -0.02      0.00
   -3   21    5     -0.02      0.00
   -2   21    5      0.32      0.00
   -1   21    5      0.26      0.00
    0   21    5     -1.16      0.00
    1   21    5     -0.52      0.00
    2   21    5     -0.12      0.00
    3   21    5      0.49      0.00
    4   21    5      1.75      0.00
    5   21    5      1.21      0.00
    6   21    5     -0.30      0.00
    7   21    5     -0.11      0.00
    8   21    5      0.89      0.00
    9   21    5      0.72      0.00
  -11   22    5      0.52      0.00
  -10   22    5     -0.31      0.00
   -9   22    5     -0.68      0.00
   -8   22    5     -1.58      0.00
   -7   22    5     -0.21      0.00
   -6   22    5      1.57      0.00
   -5   22    5      0.40      0.00
   -4   22    5      0.31      0.00
   -3   22    5      0.13      0.00
   -2   22    5     -0.16      0.00
   -1   22    5      0.70      0.00
    0   22    5      0.88      0.00
    1   22    5      0.32      0.00
    2   22    5     -1.26      0.00
    3   22    5     -0.15      0.00
    4   22    5      0.89      0.00
    5   22    5     -1.01      0.00
    6   22    5     -1.19      0.00
    7   22    5     -0.11      0.00
    8   22    5     -0.20      0.00
    9   22    5      0.54      0.00
  -11   23    5     -0.72      0.00
  -10   23    5      0.75      0.00
   -9   23    5      0.79      0.00
   -8   23    5     -0.36      0.00
   -7   23    5     -1.08      0.00
   -6   23    5     -0.97      0.00
   -5   23    5     -1.44      0.00
   -4   23    5     -0.16      0.00
   -3   23    5      0.43      0.00
   -2   23    5      0.11      0.00
   -1   23    5     -0.81      0.00
    0   23    5     -1.81      0.00
    1   23    5     -0.50      0.00
    2   23    5     -0.39      0.00
    3   23    5     -0.28      0.00
    4   23    5      1.74      0.00
    5   23    5      2.40      0.00
    6   23    5     -0.03      0.00
    7   23    5     -1.26      0.00
    8   23    5     -0.29      0.00
    9   23    5     -0.25      0.00
  -10   24    5     -0.28      0.00
   -9   24    5     -0.38      0.00
   -8   24    5     -1.50      0.00
   -7   24    5     -0.26      0.00
   -6   24    5      1.82      0.00
   -5   24    5      0.80      0.00
   -4   24    5      0.22      0.00
   -3   24    5      0.07      0.00
   -2   24    5     -0.09      0.00
   -1   24    5      0.94      0.00
    0   24    5      1.19      0.00
    1   24    5      0.25      0.00
    2   24    5     -1.34      0.00
    3   24    5      0.10      0.00
    4   24    5      0.74      0.00
    5   24    5     -1.35      0.00
    6   24    5     -0.57      0.00
    7   24    5      0.35      0.00
    8   24    5     -0.54      0.00
  -10   25    5      0.89      0.00
   -9   25    5      1.43      0.00
   -8   25    5      0.01      0.00
   -7   25    5     -0.99      0.00
   -6   25    5     -0.64      0.00
   -5   25    5     -1.12      0.00
   -4   25    5     -0.24      0.00
   -3   25    5      0.43      0.00
   -2   25    5      0.11      0.00
   -1   25    5     -0.58      0.00
    0   25    5     -0.80      0.00
    1   25    5      0.55      0.00
    2   25    5     -0.40      0.00
    3   25    5     -1.16      0.00
    4   25    5      1.07      0.00
    5   25    5      1.88      0.00
    6   25    5     -1.31      0.00
    7   25    5     -2.40      0.00
    8   25    5     -0.88      0.00
   -9   26    5      0.64      0.00
   -8   26    5     -0.74      0.00
   -7   26    5     -0.29      0.00
   -6   26    5      1.14      0.00
   -5   26    5      0.28      0.00
   -4   26    5     -0.24      0.00
   -3   26    5      0.14      0.00
   -2   26    5      0.71      0.00
   -1   26    5      1.36      0.00
    0   26    5      1.07      0.00
    1   26    5      0.21      0.00
    2   26    5     -1.17      0.00
    3   26    5     -0.28      0.00
    4   26    5     -0.85      0.00
    5   26    5     -1.99      0.00
    6   26    5      0.45      0.00
    7   26    5      0.44      0.00
   -9   27    5      1.56      0.00
   -8   27    5      0.22      0.00
   -7   27    5     -0.62      0.00
   -6   27    5      0.13      0.00
   -5   27    5     -0.50      0.00
   -4   27    5     -0.51      0.00
   -3   27    5     -0.28      0.00
   -2   27    5      0.10      0.00
   -1   27    5      0.30      0.00
    0   27    5     -0.10      0.00
    1   27    5      0.75      0.00
    2   27    5     -0.56      0.00
    3   27    5     -1.35      0.00
    4   27    5      0.49      0.00
    5   27    5      0.01      0.00
    6   27    5     -2.51      0.00
    7   27    5     -1.85      0.00
   -8   28    5     -0.92      0.00
   -7   28    5     -1.02      0.00
   -6   28    5      0.08      0.00
   -5   28    5     -0.11      0.00
   -4   28    5     -0.50      0.00
   -3   28    5     -0.27      0.00
   -2   28    5      0.79      0.00
   -1   28    5      1.61      0.00
    0   28    5      1.07      0.00
    1   28    5      0.20      0.00
    2   28    5     -1.02      0.00
    3   28    5     -0.70      0.00
    4   28    5     -1.57      0.00
    5   28    5     -1.34      0.00
    6   28    5      1.39      0.00
   -8   29    5      0.22      0.00
   -7   29    5     -0.80      0.00
   -6   29    5      0.12      0.00
   -5   29    5     -0.26      0.00
   -4   29    5     -0.45      0.00
   -3   29    5     -0.70      0.00
   -2   29    5      0.27      0.00
   -1   29    5      1.13      0.00
    0   29    5     -0.28      0.00
    1   29    5      0.16      0.00
    2   29    5     -0.30      0.00
    3   29    5     -0.18      0.00
    4   29    5      1.09      0.00
    5   29    5     -1.05      0.00
    6   29    5     -2.16      0.00
   -7   30    5     -1.36      0.00
   -6   30    5     -0.44      0.00
   -5   30    5      0.15      0.00
   -4   30    5     -0.25      0.00
   -3   30    5     -1.04      0.00
   -2   30    5     -0.23      0.00
   -1   30    5      1.69      0.00
    0   30    5      1.56      0.00
    1   30    5      0.27      0.00
    2   30    5     -0.78      0.00
    3   30    5     -0.67      0.00
    4   30    5     -0.91      0.00
    5   30    5     -0.06      0.00
   -6   31    5     -0.57      0.00
   -5   31    5     -0.49      0.00
   -4   31    5     -0.06      0.00
   -3   31    5     -0.57      0.00
   -2   31    5      0.26      0.00
   -1   31    5      1.42      0.00
    0   31    5     -0.26      0.00
    1   31    5      0.17      0.00
    2   31    5      0.50      0.00
    3   31    5      1.29      0.00
    4   31    5      2.21      0.00
   -5   32    5      0.55      0.00
   -4   32    5      0.41      0.00
   -3   32    5     -1.25      0.00
   -2   32    5     -1.46      0.00
   -1   32    5      1.23      0.00
    0   32    5      1.66      0.00
    1   32    5      0.05      0.00
    2   32    5     -0.53      0.00
    3   32    5     -0.69      0.00
   -4   33    5      0.03      0.00
   -3   33    5     -0.53      0.00
   -2   33    5     -0.42      0.00
   -1   33    5      0.74      0.00
    0   33    5      0.01      0.00
    1   33    5      0.49      0.00
    2   33    5      0.59      0.00
  -14    0    6     -0.91      0.00
  -13    0    6     -2.70      0.00
  -12    0    6      0.30      0.00
  -11    0    6     -1.29      0.00
  -10    0    6     -0.81      0.00
   -9    0    6      1.55      0.00
   -8    0    6      1.42      0.00
   -7    0    6     -2.50      0.00
   -6    0    6     -1.19      0.00
   -5    0    6      1.31      0.00
   -4    0    6     -1.23      0.00
   -3    0    6     -1.98      0.00
   -2    0    6      1.45      0.00
   -1    0    6      5.50      0.00
    0    0    6      4.19      0.00
    1    0    6     -0.99      0.00
    2    0    6     -2.26      0.00
    3    0    6      1.15      0.00
    4    0    6      2.09      0.00
    5    0    6      0.08      0.00
    6    0    6     -1.11      0.00
    7    0    6     -2.41      0.00
    8    0    6     -1.26      0.00
    9    0    6      0.23      0.00
   10    0    6      1.43      0.00
   11    0    6      2.46      0.00
   12    0    6     -2.00      0.00
  -14    1    6      1.20      0.00
  -13    1    6      0.54      0.00
  -12    1    6      0.21      0.00
  -11    1    6     -0.25      0.00
  -10    1    6     -0.93      0.00
   -9    1    6     -0.42      0.00
   -8    1    6      0.56      0.00
   -7    1    6      0.33      0.00
   -6    1    6     -0.73      0.00
   -5    1    6     -0.52      0.00
   -4    1    6      0.20      0.00
   -3    1    6      0.46      0.00
   -2    1    6      0.37      0.00
   -1    1    6      0.29      0.00
    0    1    6      0.80      0.00
    1    1    6      1.14      0.00
    2    1    6     -0.28      0.00
    3    1    6     -1.13      0.00
    4    1    6     -0.70      0.00
    5    1    6     -0.02      0.00
    6    1    6      0.43      0.00
    7    1    6      0.38      0.00
    8    1    6      1.31      0.00
    9    1    6      1.88      0.00
   10    1    6      0.38      0.00
   11    1    6     -0.12      0.00
   12    1    6     -0.41      0.00
  -14    2    6     -1.21      0.00
  -13    2    6     -2.47      0.00
  -12    2    6      0.20      0.00
  -11    2    6     -1.30      0.00
  -10    2    6     -0.88      0.00
   -9    2    6      1.21      0.00
   -8    2    6      1.25      0.00
   -7    2    6     -2.16      0.00
   -6    2    6     -0.83      0.00
   -5    2    6      1.78      0.00
   -4    2    6      0.04      0.00
   -3    2    6     -0.50      0.00
   -2    2    6      1.12      0.00
   -1    2    6      3.14      0.00
    0    2    6      2.05      0.00
    1    2    6     -1.11      0.00
    2    2    6     -1.59      0.00
    3    2    6      0.78      0.00
    4    2    6      1.36      0.00
    5    2    6     -0.46      0.00
    6    2    6     -1.12      0.00
    7    2    6     -2.16      0.00
    8    2    6     -1.56      0.00
    9    2    6      0.10      0.00
   10    2    6      1.01      0.00
   11    2    6      1.34      0.00
   12    2    6     -2.27      0.00
  -14    3    6      1.66      0.00
  -13    3    6      0.04      0.00
  -12    3    6      0.18      0.00
  -11    3    6     -0.14      0.00
  -10    3    6     -1.56      0.00
   -9    3    6     -0.75      0.00
   -8    3    6      1.11      0.00
   -7    3    6      0.68      0.00
   -6    3    6     -1.61      0.00
   -5    3    6     -1.43      0.00
   -4    3    6     -0.44      0.00
   -3    3    6      0.50      0.00
   -2    3    6      1.13      0.00
   -1    3    6      0.50      0.00
    0    3    6      0.86      0.00
    1    3    6      1.96      0.00
    2    3    6     -0.31      0.00
    3    3    6     -1.95      0.00
    4    3    6     -1.46      0.00
    5    3    6     -0.03      0.00
    6    3    6      1.04      0.00
    7    3    6      0.64      0.00
    8    3    6      2.18      0.00
    9    3    6      3.23      0.00
   10    3    6      0.49      0.00
   11    3    6      0.26      0.00
   12    3    6     -0.16      0.00
  -14    4    6     -1.35      0.00
  -13    4    6     -1.66      0.00
  -12    4    6      0.06      0.00
  -11    4    6     -1.13      0.00
  -10    4    6     -0.59      0.00
   -9    4    6      1.00      0.00
   -8    4    6      0.96      0.00
   -7    4    6     -1.76      0.00
   -6    4    6     -0.57      0.00
   -5    4    6      2.09      0.00
   -4    4    6      1.61      0.00
   -3    4    6      1.46      0.00
   -2    4    6      0.36      0.00
   -1    4    6     -0.64      0.00
    0    4    6     -1.03      0.00
    1    4    6     -0.65      0.00
    2    4    6     -0.14      0.00
    3    4    6      0.42      0.00
    4    4    6      0.67      0.00
    5    4    6     -1.06      0.00
    6    4    6     -0.89      0.00
    7    4    6     -1.41      0.00
    8    4    6     -1.90      0.00
    9    4    6      0.02      0.00
   10    4    6      0.26      0.00
   11    4    6     -0.66      0.00
   12    4    6     -2.17      0.00
  -14    5    6     -0.21      0.00
  -13    5    6     -2.03      0.00
  -12    5    6     -0.05      0.00
  -11    5    6      0.75      0.00
  -10    5    6     -0.43      0.00
   -9    5    6     -0.31      0.00
   -8    5    6      0.77      0.00
   -7    5    6      0.62      0.00
   -6    5    6     -1.20      0.00
   -5    5    6     -1.38      0.00
   -4    5    6     -2.01      0.00
   -3    5    6     -0.48      0.00
   -2    5    6      2.30      0.00
   -1    5    6      0.77      0.00
    0    5    6     -0.73      0.00
    1    5    6      1.03      0.00
    2    5    6      0.92      0.00
    3    5    6     -0.38      0.00
    4    5    6     -1.36      0.00
    5    5    6     -0.18      0.00
    6    5    6      1.13      0.00
    7    5    6      0.51      0.00
    8    5    6      0.77      0.00
    9    5    6      0.98      0.00
   10    5    6     -0.22      0.00
   11    5    6      1.21      0.00
  -14    6    6     -0.46      0.00
  -13    6    6     -0.53      0.00
  -12    6    6      0.00      0.00
  -11    6    6     -0.74      0.00
  -10    6    6      0.17      0.00
   -9    6    6      1.53      0.00
   -8    6    6      0.81      0.00
   -7    6    6     -1.73      0.00
   -6    6    6     -0.77      0.00
   -5    6    6      1.63      0.00
   -4    6    6      1.31      0.00
   -3    6    6      0.98      0.00
   -2    6    6     -0.33      0.00
   -1    6    6     -1.42      0.00
    0    6    6     -1.27      0.00
    1    6    6      0.12      0.00
    2    6    6      0.10      0.00
    3    6    6      0.41      0.00
    4    6    6      1.36      0.00
    5    6    6     -1.01      0.00
    6    6    6     -0.65      0.00
    7    6    6     -0.61      0.00
    8    6    6     -1.43      0.00
    9    6    6      0.42      0.00
   10    6    6     -0.10      0.00
   11    6    6     -1.49      0.00
  -14    7    6     -1.45      0.00
  -13    7    6     -2.75      0.00
  -12    7    6      0.31      0.00
  -11    7    6      1.08      0.00
  -10    7    6      0.40      0.00
   -9    7    6      0.30      0.00
   -8    7    6      0.41      0.00
   -7    7    6      0.55      0.00
   -6    7    6      0.07      0.00
   -5    7    6      0.01      0.00
   -4    7    6     -2.46      0.00
   -3    7    6     -1.15      0.00
   -2    7    6      3.37      0.00
   -1    7    6      1.48      0.00
    0    7    6     -1.54      0.00
    1    7    6      0.40      0.00
    2    7    6      2.40      0.00
    3    7    6      1.21      0.00
    4    7    6     -1.20      0.00
    5    7    6     -0.44      0.00
    6    7    6      0.96      0.00
    7    7    6      1.08      0.00
    8    7    6     -0.07      0.00
    9    7    6     -1.32      0.00
   10    7    6     -0.65      0.00
   11    7    6      1.41      0.00
  -14    8    6      0.69      0.00
  -13    8    6      0.05      0.00
  -12    8    6     -0.12      0.00
  -11    8    6     -0.73      0.00
  -10    8    6      0.11      0.00
   -9    8    6      1.72      0.00
   -8    8    6      0.75      0.00
   -7    8    6     -1.42      0.00
   -6    8    6     -0.52      0.00
   -5    8    6      1.53      0.00
   -4    8    6      0.53      0.00
   -3    8    6     -0.69      0.00
   -2    8    6     -0.49      0.00
   -1    8    6     -0.04      0.00
    0    8    6     -0.31      0.00
    1    8    6     -0.35      0.00
    2    8    6     -1.69      0.00
    3    8    6      0.16      0.00
    4    8    6      2.17      0.00
    5    8    6     -1.32      0.00
    6    8    6     -1.28      0.00
    7    8    6     -0.50      0.00
    8    8    6     -0.16      0.00
    9    8    6      1.12      0.00
   10    8    6     -0.11      0.00
   11    8    6     -1.02      0.00
  -14    9    6     -1.41      0.00
  -13    9    6     -1.89      0.00
  -12    9    6      0.64      0.00
  -11    9    6     -0.01      0.00
  -10    9    6     -0.29      0.00
   -9    9    6      0.60      0.00
   -8    9    6      0.71      0.00
   -7    9    6      0.57      0.00
   -6    9    6      0.86      0.00
   -5    9    6      1.47      0.00
   -4    9    6     -1.60      0.00
   -3    9    6     -1.72      0.00
   -2    9    6      2.42      0.00
   -1    9    6      1.34      0.00
    0    9    6     -1.28      0.00
    1    9    6      0.27      0.00
    2    9    6      2.03      0.00
    3    9    6      0.56      0.00
    4    9    6     -0.92      0.00
    5    9    6     -0.22      0.00
    6    9    6      0.61      0.00
    7    9    6      1.82      0.00
    8    9    6      0.66      0.00
    9    9    6     -1.19      0.00
   10    9    6     -0.34      0.00
   11    9    6      0.60      0.00
  -14   10    6      0.85      0.00
  -13   10    6     -0.43      0.00
  -12   10    6     -0.33      0.00
  -11   10    6     -1.11      0.00
  -10   10    6     -1.07      0.00
   -9   10    6      0.95      0.00
   -8   10    6      0.78      0.00
   -7   10    6     -0.57      0.00
   -6   10    6     -0.26      0.00
   -5   10    6      1.11      0.00
   -4   10    6      0.17      0.00
   -3   10    6     -1.28      0.00
   -2   10    6     -0.18      0.00
   -1   10    6      0.60      0.00
    0   10    6     -0.19      0.00
    1   10    6     -0.63      0.00
    2   10    6     -2.46      0.00
    3   10    6      0.14      0.00
    4   10    6      2.01      0.00
    5   10    6     -1.88      0.00
    6   10    6     -2.14      0.00
    7   10    6     -1.03      0.00
    8   10    6      0.90      0.00
    9   10    6      1.40      0.00
   10   10    6     -0.11      0.00
   11   10    6     -0.23      0.00
  -13   11    6     -1.03      0.00
  -12   11    6      0.54      0.00
  -11   11    6     -1.07      0.00
  -10   11    6     -1.15      0.00
   -9   11    6      0.61      0.00
   -8   11    6      1.08      0.00
   -7   11    6      0.50      0.00
   -6   11    6      0.79      0.00
   -5   11    6      1.81      0.00
   -4   11    6     -0.76      0.00
   -3   11    6     -2.46      0.00
   -2   11    6      0.05      0.00
   -1   11    6      0.50      0.00
    0   11    6     -0.75      0.00
    1   11    6      0.07      0.00
    2   11    6      0.23      0.00
    3   11    6     -1.15      0.00
    4   11    6      0.16      0.00
    5   11    6      0.56      0.00
    6   11    6     -0.15      0.00
    7   11    6      1.18      0.00
    8   11    6      1.04      0.00
    9   11    6      0.05      0.00
   10   11    6     -0.14      0.00
   11   11    6     -0.33      0.00
  -13   12    6     -1.14      0.00
  -12   12    6     -0.18      0.00
  -11   12    6     -0.88      0.00
  -10   12    6     -1.55      0.00
   -9   12    6      0.37      0.00
   -8   12    6      0.99      0.00
   -7   12    6      0.17      0.00
   -6   12    6     -0.96      0.00
   -5   12    6     -0.78      0.00
   -4   12    6     -0.74      0.00
   -3   12    6     -1.03      0.00
   -2   12    6      0.09      0.00
   -1   12    6      0.12      0.00
    0   12    6     -0.05      0.00
    1   12    6      1.28      0.00
    2   12    6     -0.29      0.00
    3   12    6      0.47      0.00
    4   12    6      1.14      0.00
    5   12    6     -1.36      0.00
    6   12    6     -1.77      0.00
    7   12    6     -1.51      0.00
    8   12    6      0.84      0.00
    9   12    6      1.04      0.00
   10   12    6      0.07      0.00
   11   12    6      0.51      0.00
  -13   13    6      0.01      0.00
  -12   13    6      0.91      0.00
  -11   13    6     -0.52      0.00
  -10   13    6     -0.75      0.00
   -9   13    6      0.44      0.00
   -8   13    6      0.78      0.00
   -7   13    6      0.46      0.00
   -6   13    6      0.74      0.00
   -5   13    6      1.42      0.00
   -4   13    6     -0.33      0.00
   -3   13    6     -2.30      0.00
   -2   13    6     -0.85      0.00
   -1   13    6      0.70      0.00
    0   13    6     -0.06      0.00
    1   13    6      0.10      0.00
    2   13    6     -0.55      0.00
    3   13    6     -1.63      0.00
    4   13    6      1.41      0.00
    5   13    6      1.11      0.00
    6   13    6     -0.79      0.00
    7   13    6     -0.30      0.00
    8   13    6      0.34      0.00
    9   13    6      0.75      0.00
   10   13    6     -0.48      0.00
   11   13    6     -0.82      0.00
  -13   14    6     -0.91      0.00
  -12   14    6      0.61      0.00
  -11   14    6      0.28      0.00
  -10   14    6     -0.40      0.00
   -9   14    6      0.57      0.00
   -8   14    6      0.77      0.00
   -7   14    6      0.19      0.00
   -6   14    6     -1.47      0.00
   -5   14    6     -2.08      0.00
   -4   14    6     -1.57      0.00
   -3   14    6     -0.97      0.00
   -2   14    6     -0.29      0.00
   -1   14    6     -0.64      0.00
    0   14    6      0.24      0.00
    1   14    6      2.92      0.00
    2   14    6      1.64      0.00
    3   14    6     -0.14      0.00
    4   14    6     -0.09      0.00
    5   14    6      0.06      0.00
    6   14    6     -0.47      0.00
    7   14    6     -1.65      0.00
    8   14    6     -0.07      0.00
    9   14    6      0.68      0.00
   10   14    6      0.66      0.00
  -13   15    6      1.17      0.00
  -12   15    6      1.37      0.00
  -11   15    6      0.54      0.00
  -10   15    6      0.27      0.00
   -9   15    6      0.33      0.00
   -8   15    6      0.23      0.00
   -7   15    6      0.68      0.00
   -6   15    6      0.89      0.00
   -5   15    6      0.80      0.00
   -4   15    6     -0.15      0.00
   -3   15    6     -1.16      0.00
   -2   15    6     -0.10      0.00
   -1   15    6      1.23      0.00
    0   15    6     -0.19      0.00
    1   15    6     -0.30      0.00
    2   15    6     -0.17      0.00
    3   15    6     -1.05      0.00
    4   15    6      1.51      0.00
    5   15    6      1.12      0.00
    6   15    6     -0.34      0.00
    7   15    6     -0.78      0.00
    8   15    6     -0.28      0.00
    9   15    6      0.88      0.00
   10   15    6     -0.62      0.00
  -12   16    6      1.37      0.00
  -11   16    6      1.12      0.00
  -10   16    6      0.90      0.00
   -9   16    6      0.64      0.00
   -8   16    6     -0.54      0.00
   -7   16    6     -0.58      0.00
   -6   16    6     -0.72      0.00
   -5   16    6     -0.93      0.00
   -4   16    6     -1.17      0.00
   -3   16    6     -1.28      0.00
   -2   16    6     -1.20      0.00
   -1   16    6     -1.20      0.00
    0   16    6     -0.27      0.00
    1   16    6      1.58      0.00
    2   16    6      1.02      0.00
    3   16    6     -1.13      0.00
    4   16    6     -0.84      0.00
    5   16    6      1.04      0.00
    6   16    6      0.58      0.00
    7   16    6     -1.25      0.00
    8   16    6     -0.67      0.00
    9   16    6      0.73      0.00
   10   16    6      0.99      0.00
  -12   17    6      0.56      0.00
  -11   17    6      0.31      0.00
  -10   17    6      0.58      0.00
   -9   17    6      0.31      0.00
   -8   17    6      0.05      0.00
   -7   17    6      0.96      0.00
   -6   17    6      0.58      0.00
   -5   17    6     -0.05      0.00
   -4   17    6     -0.21      0.00
   -3   17    6     -0.37      0.00
   -2   17    6      0.09      0.00
   -1   17    6      0.55      0.00
    0   17    6     -1.32      0.00
    1   17    6     -1.56      0.00
    2   17    6     -0.22      0.00
    3   17    6     -0.69      0.00
    4   17    6      0.69      0.00
    5   17    6      1.04      0.00
    6   17    6      0.66      0.00
    7   17    6     -0.41      0.00
    8   17    6     -0.63      0.00
    9   17    6      0.56      0.00
   10   17    6     -0.15      0.00
  -12   18    6      1.07      0.00
  -11   18    6      0.55      0.00
  -10   18    6      1.14      0.00
   -9   18    6      0.62      0.00
   -8   18    6     -1.69      0.00
   -7   18    6     -1.31      0.00
   -6   18    6      0.15      0.00
   -5   18    6      0.56      0.00
   -4   18    6     -0.51      0.00
   -3   18    6     -1.61      0.00
   -2   18    6     -1.71      0.00
   -1   18    6     -1.14      0.00
    0   18    6     -0.85      0.00
    1   18    6     -0.71      0.00
    2   18    6      0.10      0.00
    3   18    6     -0.42      0.00
    4   18    6     -0.51      0.00
    5   18    6      1.04      0.00
    6   18    6      1.23      0.00
    7   18    6     -0.16      0.00
    8   18    6     -0.35      0.00
    9   18    6      0.78      0.00
  -12   19    6     -0.59      0.00
  -11   19    6     -0.32      0.00
  -10   19    6      0.24      0.00
   -9   19    6      0.06      0.00
   -8   19    6      0.03      0.00
   -7   19    6      1.15      0.00
   -6   19    6      0.09      0.00
   -5   19    6     -0.66      0.00
   -4   19    6     -0.30      0.00
   -3   19    6     -0.40      0.00
   -2   19    6     -0.43      0.00
   -1   19    6      0.16      0.00
    0   19    6     -1.06      0.00
    1   19    6     -1.94      0.00
    2   19    6     -0.54      0.00
    3   19    6     -0.46      0.00
    4   19    6      0.15      0.00
    5   19    6      0.67      0.00
    6   19    6      0.55      0.00
    7   19    6     -0.35      0.00
    8   19    6     -1.06      0.00
    9   19    6     -0.17      0.00
  -11   20    6     -0.72      0.00
  -10   20    6      1.06      0.00
   -9   20    6      1.53      0.00
   -8   20    6     -1.02      0.00
   -7   20    6     -0.95      0.00
   -6   20    6      0.17      0.00
   -5   20    6      0.21      0.00
   -4   20    6     -0.53      0.00
   -3   20    6     -1.29      0.00
   -2   20    6     -1.28      0.00
   -1   20    6     -0.59      0.00
    0   20    6     -0.52      0.00
    1   20    6     -1.39      0.00
    2   20    6      0.27      0.00
    3   20    6      1.07      0.00
    4   20    6     -0.23      0.00
    5   20    6      0.34      0.00
    6   20    6      1.57      0.00
    7   20    6      0.83      0.00
    8   20    6      0.27      0.00
    9   20    6      0.54      0.00
  -11   21    6      0.09      0.00
  -10   21    6     -0.07      0.00
   -9   21    6     -0.61      0.00
   -8   21    6     -0.17      0.00
   -7   21    6      1.51      0.00
   -6   21    6      0.33      0.00
   -5   21    6     -0.65      0.00
   -4   21    6     -0.45      0.00
   -3   21    6     -0.85      0.00
   -2   21    6     -0.44      0.00
   -1   21    6      1.37      0.00
    0   21    6      1.10      0.00
    1   21    6     -0.76      0.00
    2   21    6     -0.38      0.00
    3   21    6     -0.05      0.00
    4   21    6      0.02      0.00
    5   21    6     -0.55      0.00
    6   21    6     -0.67      0.00
    7   21    6     -0.06      0.00
    8   21    6     -0.76      0.00
    9   21    6     -0.49      0.00
  -11   22    6     -1.26      0.00
  -10   22    6      1.30      0.00
   -9   22    6      2.65      0.00
   -8   22    6      0.43      0.00
   -7   22    6      0.09      0.00
   -6   22    6     -0.08      0.00
   -5   22    6     -0.91      0.00
   -4   22    6     -0.51      0.00
   -3   22    6     -0.27      0.00
   -2   22    6     -0.76      0.00
   -1   22    6     -0.51      0.00
    0   22    6      0.13      0.00
    1   22    6     -1.03      0.00
    2   22    6      0.10      0.00
    3   22    6      1.11      0.00
    4   22    6     -0.67      0.00
    5   22    6     -0.31      0.00
    6   22    6      1.22      0.00
    7   22    6      0.65      0.00
    8   22    6      0.52      0.00
  -10   23    6     -0.48      0.00
   -9   23    6     -1.35      0.00
   -8   23    6     -0.44      0.00
   -7   23    6      1.84      0.00
   -6   23    6      0.89      0.00
   -5   23    6     -0.59      0.00
   -4   23    6     -0.78      0.00
   -3   23    6     -1.07      0.00
   -2   23    6      0.13      0.00
   -1   23    6      2.29      0.00
    0   23    6      2.04      0.00
    1   23    6     -0.06      0.00
    2   23    6     -0.25      0.00
    3   23    6      0.17      0.00
    4   23    6     -0.14      0.00
    5   23    6     -1.76      0.00
    6   23    6     -1.20      0.00
    7   23    6      1.17      0.00
    8   23    6      0.38      0.00
  -10   24    6      1.20      0.00
   -9   24    6      2.32      0.00
   -8   24    6      0.57      0.00
   -7   24    6      0.56      0.00
   -6   24    6      0.03      0.00
   -5   24    6     -1.31      0.00
   -4   24    6     -0.14      0.00
   -3   24    6      0.48      0.00
   -2   24    6     -1.16      0.00
   -1   24    6     -1.20      0.00
    0   24    6      0.48      0.00
    1   24    6     -0.73      0.00
    2   24    6     -0.52      0.00
    3   24    6      0.51      0.00
    4   24    6     -0.45      0.00
    5   24    6     -0.04      0.00
    6   24    6      0.28      0.00
    7   24    6     -0.25      0.00
  -10   25    6     -1.02      0.00
   -9   25    6     -1.60      0.00
   -8   25    6     -0.57      0.00
   -7   25    6      1.57      0.00
   -6   25    6      0.71      0.00
   -5   25    6     -0.89      0.00
   -4   25    6     -0.83      0.00
   -3   25    6     -0.40      0.00
   -2   25    6      0.85      0.00
   -1   25    6      1.44      0.00
    0   25    6      0.58      0.00
    1   25    6     -0.44      0.00
    2   25    6     -0.25      0.00
    3   25    6      0.26      0.00
    4   25    6      0.09      0.00
    5   25    6     -1.33      0.00
    6   25    6     -0.26      0.00
    7   25    6      2.05      0.00
   -9   26    6      0.96      0.00
   -8   26    6     -0.07      0.00
   -7   26    6      0.60      0.00
   -6   26    6      0.54      0.00
   -5   26    6     -1.11      0.00
   -4   26    6      0.00      0.00
   -3   26    6      0.57      0.00
   -2   26    6     -1.87      0.00
   -1   26    6     -1.83      0.00
    0   26    6      0.48      0.00
    1   26    6     -0.52      0.00
    2   26    6     -0.40      0.00
    3   26    6      0.88      0.00
    4   26    6      0.76      0.00
    5   26    6      0.59      0.00
    6   26    6     -0.59      0.00
    7   26    6     -0.55      0.00
   -8   27    6     -0.41      0.00
   -7   27    6      0.98      0.00
   -6   27    6      0.15      0.00
   -5   27    6     -0.99      0.00
   -4   27    6     -0.40      0.00
   -3   27    6      0.69      0.00
   -2   27    6      1.36      0.00
   -1   27    6     -0.11      0.00
    0   27    6     -0.95      0.00
    1   27    6     -0.41      0.00
    2   27    6     -0.02      0.00
    3   27    6      0.30      0.00
    4   27    6      0.68      0.00
    5   27    6      0.42      0.00
    6   27    6      0.85      0.00
   -8   28    6      0.00      0.00
   -7   28    6      0.91      0.00
   -6   28    6      1.09      0.00
   -5   28    6     -0.94      0.00
   -4   28    6     -0.06      0.00
   -3   28    6      0.86      0.00
   -2   28    6     -1.58      0.00
   -1   28    6     -1.88      0.00
    0   28    6     -0.06      0.00
    1   28    6     -0.45      0.00
    2   28    6      0.29      0.00
    3   28    6      1.46      0.00
    4   28    6      1.22      0.00
    5   28    6      0.39      0.00
   -7   29    6      0.78      0.00
   -6   29    6      0.23      0.00
   -5   29    6     -0.39      0.00
   -4   29    6     -0.12      0.00
   -3   29    6      0.93      0.00
   -2   29    6      1.23      0.00
   -1   29    6     -1.09      0.00
    0   29    6     -1.25      0.00
    1   29    6     -0.06      0.00
    2   29    6     -0.24      0.00
    3   29    6     -0.35      0.00
    4   29    6      0.49      0.00
    5   29    6      1.35      0.00
   -6   30    6      1.10      0.00
   -5   30    6     -1.00      0.00
   -4   30    6     -0.13      0.00
   -3   30    6      1.43      0.00
   -2   30    6     -0.39      0.00
   -1   30    6     -1.43      0.00
    0   30    6     -0.80      0.00
    1   30    6     -0.41      0.00
    2   30    6      0.70      0.00
    3   30    6      1.28      0.00
    4   30    6      0.61      0.00
   -5   31    6      0.54      0.00
   -4   31    6     -0.19      0.00
   -3   31    6      0.42      0.00
   -2   31    6      0.96      0.00
   -1   31    6     -1.09      0.00
    0   31    6     -1.06      0.00
    1   31    6     -0.35      0.00
    2   31    6     -0.99      0.00
    3   31    6     -1.25      0.00
   -4   32    6     -0.32      0.00
   -3   32    6      1.31      0.00
   -2   32    6      0.50      0.00
   -1   32    6     -0.57      0.00
    0   32    6     -0.79      0.00
    1   32    6     -0.10      0.00
  -14    0    7     -0.56      0.00
  -13    0    7      2.48      0.00
  -12    0    7     -0.45      0.00
  -11    0    7      0.94      0.00
  -10    0    7      1.20      0.00
   -9    0    7      0.98      0.00
   -8    0    7      0.76      0.00
   -7    0    7     -0.37      0.00
   -6    0    7      0.29      0.00
   -5    0    7      1.14      0.00
   -4    0    7      3.10      0.00
   -3    0    7      1.64      0.00
   -2    0    7     -2.78      0.00
   -1    0    7     -3.78      0.00
    0    0    7     -2.97      0.00
    1    0    7     -0.11      0.00
    2    0    7      3.08      0.00
    3    0    7      1.46      0.00
    4    0    7     -0.57      0.00
    5    0    7      0.25      0.00
    6    0    7      0.11      0.00
    7    0    7     -0.13      0.00
    8    0    7      1.30      0.00
    9    0    7      3.44      0.00
   10    0    7      0.47      0.00
   11    0    7     -4.62      0.00
  -14    1    7     -1.12      0.00
  -13    1    7     -0.64      0.00
  -12    1    7      0.49      0.00
  -11    1    7      0.42      0.00
  -10    1    7      0.38      0.00
   -9    1    7      0.31      0.00
   -8    1    7     -0.06      0.00
   -7    1    7     -0.34      0.00
   -6    1    7      0.14      0.00
   -5    1    7      0.39      0.00
   -4    1    7      0.25      0.00
   -3    1    7      0.44      0.00
   -2    1    7     -0.07      0.00
   -1    1    7     -1.04      0.00
    0    1    7     -0.99      0.00
    1    1    7     -0.69      0.00
    2    1    7      0.25      0.00
    3    1    7      0.96      0.00
    4    1    7      0.47      0.00
    5    1    7      0.04      0.00
    6    1    7     -0.06      0.00
    7    1    7     -0.06      0.00
    8    1    7     -1.07      0.00
    9    1    7     -1.88      0.00
   10    1    7      0.10      0.00
   11    1    7      0.65      0.00
  -14    2    7      0.22      0.00
  -13    2    7      2.26      0.00
  -12    2    7     -0.70      0.00
  -11    2    7      0.98      0.00
  -10    2    7      1.13      0.00
   -9    2    7      0.84      0.00
   -8    2    7      0.79      0.00
   -7    2    7     -0.36      0.00
   -6    2    7      0.16      0.00
   -5    2    7      0.72      0.00
   -4    2    7      1.86      0.00
   -3    2    7      0.29      0.00
   -2    2    7     -2.44      0.00
   -1    2    7     -2.19      0.00
    0    2    7     -1.83      0.00
    1    2    7     -0.25      0.00
    2    2    7      2.26      0.00
    3    2    7      1.50      0.00
    4    2    7     -0.04      0.00
    5    2    7      0.54      0.00
    6    2    7      0.06      0.00
    7    2    7     -0.38      0.00
    8    2    7      1.66      0.00
    9    2    7      3.60      0.00
   10    2    7      0.41      0.00
   11    2    7     -3.71      0.00
  -14    3    7     -1.70      0.00
  -13    3    7     -0.42      0.00
  -12    3    7      1.37      0.00
  -11    3    7      0.50      0.00
  -10    3    7      0.45      0.00
   -9    3    7      0.66      0.00
   -8    3    7      0.10      0.00
   -7    3    7     -0.71      0.00
   -6    3    7      0.33      0.00
   -5    3    7      1.14      0.00
   -4    3    7      1.08      0.00
   -3    3    7      1.16      0.00
   -2    3    7     -0.58      0.00
   -1    3    7     -2.34      0.00
    0    3    7     -1.47      0.00
    1    3    7     -0.99      0.00
    2    3    7      0.39      0.00
    3    3    7      1.66      0.00
    4    3    7      0.98      0.00
    5    3    7      0.12      0.00
    6    3    7     -0.12      0.00
    7    3    7      0.00      0.00
    8    3    7     -2.15      0.00
    9    3    7     -3.66      0.00
   10    3    7      0.59      0.00
   11    3    7      1.04      0.00
  -14    4    7      1.53      0.00
  -13    4    7      1.61      0.00
  -12    4    7     -1.17      0.00
  -11    4    7      0.99      0.00
  -10    4    7      0.74      0.00
   -9    4    7      0.22      0.00
   -8    4    7      0.73      0.00
   -7    4    7     -0.22      0.00
   -6    4    7      0.16      0.00
   -5    4    7      0.45      0.00
   -4    4    7      0.21      0.00
   -3    4    7     -1.69      0.00
   -2    4    7     -1.70      0.00
   -1    4    7      0.49      0.00
    0    4    7      0.05      0.00
    1    4    7     -0.54      0.00
    2    4    7      0.71      0.00
    3    4    7      1.22      0.00
    4    4    7      0.31      0.00
    5    4    7      0.65      0.00
    6    4    7     -0.25      0.00
    7    4    7     -1.01      0.00
    8    4    7      2.25      0.00
    9    4    7      3.71      0.00
   10    4    7      0.19      0.00
   11    4    7     -1.91      0.00
  -14    5    7     -0.18      0.00
  -13    5    7      1.55      0.00
  -12    5    7      1.58      0.00
  -11    5    7     -0.51      0.00
  -10    5    7     -0.23      0.00
   -9    5    7      0.57      0.00
   -8    5    7      0.46      0.00
   -7    5    7     -0.55      0.00
   -6    5    7      0.29      0.00
   -5    5    7      1.48      0.00
   -4    5    7      1.91      0.00
   -3    5    7      1.15      0.00
   -2    5    7     -1.96      0.00
   -1    5    7     -2.75      0.00
    0    5    7     -0.21      0.00
    1    5    7     -0.12      0.00
    2    5    7     -0.41      0.00
    3    5    7      0.42      0.00
    4    5    7      0.91      0.00
    5    5    7      0.27      0.00
    6    5    7     -0.13      0.00
    7    5    7     -0.07      0.00
    8    5    7     -1.82      0.00
    9    5    7     -2.25      0.00
   10    5    7      1.42      0.00
   11    5    7      0.16      0.00
  -14    6    7      1.76      0.00
  -13    6    7      0.73      0.00
  -12    6    7     -1.44      0.00
  -11    6    7      0.91      0.00
  -10    6    7      0.23      0.00
   -9    6    7     -0.55      0.00
   -8    6    7      0.56      0.00
   -7    6    7     -0.12      0.00
   -6    6    7      0.18      0.00
   -5    6    7      0.84      0.00
   -4    6    7      0.34      0.00
   -3    6    7     -1.84      0.00
   -2    6    7     -1.26      0.00
   -1    6    7      1.18      0.00
    0    6    7      0.79      0.00
    1    6    7     -0.19      0.00
    2    6    7      0.39      0.00
    3    6    7      0.62      0.00
    4    6    7     -0.55      0.00
    5    6    7      0.31      0.00
    6    6    7     -0.43      0.00
    7    6    7     -1.43      0.00
    8    6    7      2.20      0.00
    9    6    7      3.24      0.00
   10    6    7     -0.13      0.00
   11    6    7     -0.78      0.00
  -14    7    7      1.02      0.00
  -13    7    7      2.83      0.00
  -12    7    7      0.83      0.00
  -11    7    7     -1.20      0.00
  -10    7    7     -0.20      0.00
   -9    7    7      0.26      0.00
   -8    7    7      0.24      0.00
   -7    7    7     -0.37      0.00
   -6    7    7     -0.02      0.00
   -5    7    7      0.99      0.00
   -4    7    7      1.87      0.00
   -3    7    7      0.48      0.00
   -2    7    7     -3.26      0.00
   -1    7    7     -2.77      0.00
    0    7    7      0.59      0.00
    1    7    7      0.28      0.00
    2    7    7     -1.29      0.00
    3    7    7     -0.77      0.00
    4    7    7      0.87      0.00
    5    7    7      0.53      0.00
    6    7    7     -0.02      0.00
    7    7    7     -0.74      0.00
    8    7    7     -1.73      0.00
    9    7    7     -0.13      0.00
   10    7    7      1.89      0.00
   11    7    7     -0.75      0.00
  -13    8    7      0.22      0.00
  -12    8    7     -1.30      0.00
  -11    8    7      0.89      0.00
  -10    8    7      0.50      0.00
   -9    8    7     -0.33      0.00
   -8    8    7      0.58      0.00
   -7    8    7     -0.47      0.00
   -6    8    7     -0.42      0.00
   -5    8    7      0.89      0.00
   -4    8    7      1.14      0.00
   -3    8    7     -0.96      0.00
   -2    8    7     -1.57      0.00
   -1    8    7      0.14      0.00
    0    8    7      0.83      0.00
    1    8    7      0.77      0.00
    2    8    7      1.40      0.00
    3    8    7      0.36      0.00
    4    8    7     -1.31      0.00
    5    8    7      0.62      0.00
    6    8    7      0.28      0.00
    7    8    7     -1.04      0.00
    8    8    7      1.33      0.00
    9    8    7      2.18      0.00
   10    8    7     -0.22      0.00
   11    8    7     -0.61      0.00
  -13    9    7      2.75      0.00
  -12    9    7      0.06      0.00
  -11    9    7     -0.59      0.00
  -10    9    7      0.91      0.00
   -9    9    7     -0.21      0.00
   -8    9    7     -0.81      0.00
   -7    9    7     -0.41      0.00
   -6    9    7     -0.23      0.00
   -5    9    7      0.15      0.00
   -4    9    7      1.15      0.00
   -3    9    7      0.34      0.00
   -2    9    7     -2.51      0.00
   -1    9    7     -1.77      0.00
    0    9    7      0.64      0.00
    1    9    7      0.31      0.00
    2    9    7     -0.62      0.00
    3    9    7     -0.01      0.00
    4    9    7      0.86      0.00
    5    9    7      0.45      0.00
    6    9    7      0.34      0.00
    7    9    7     -1.30      0.00
    8    9    7     -2.20      0.00
    9    9    7      0.62      0.00
   10    9    7      1.75      0.00
  -13   10    7      0.62      0.00
  -12   10    7     -0.74      0.00
  -11   10    7      0.97      0.00
  -10   10    7      1.51      0.00
   -9   10    7      0.80      0.00
   -8   10    7      0.63      0.00
   -7   10    7     -1.02      0.00
   -6   10    7     -0.80      0.00
   -5   10    7      1.00      0.00
   -4   10    7      1.67      0.00
   -3   10    7     -0.46      0.00
   -2   10    7     -2.05      0.00
   -1   10    7     -0.54      0.00
    0   10    7      0.73      0.00
    1   10    7      0.35      0.00
    2   10    7      1.17      0.00
    3   10    7      0.28      0.00
    4   10    7     -0.86      0.00
    5   10    7      1.36      0.00
    6   10    7      1.01      0.00
    7   10    7     -0.29      0.00
    8   10    7      0.28      0.00
    9   10    7      1.22      0.00
   10   10    7      0.09      0.00
  -13   11    7      2.04      0.00
  -12   11    7     -0.33      0.00
  -11   11    7      0.20      0.00
  -10   11    7      1.68      0.00
   -9   11    7     -0.74      0.00
   -8   11    7     -1.71      0.00
   -7   11    7     -0.35      0.00
   -6   11    7     -0.13      0.00
   -5   11    7     -0.28      0.00
   -4   11    7      0.55      0.00
   -3   11    7      0.82      0.00
   -2   11    7     -0.39      0.00
   -1   11    7     -0.18      0.00
    0   11    7      0.62      0.00
    1   11    7      0.36      0.00
    2   11    7      0.77      0.00
    3   11    7      1.50      0.00
    4   11    7      0.19      0.00
    5   11    7     -0.12      0.00
    6   11    7      0.93      0.00
    7   11    7     -0.82      0.00
    8   11    7     -1.96      0.00
    9   11    7      0.40      0.00
   10   11    7      1.55      0.00
  -13   12    7      1.44      0.00
  -12   12    7     -0.19      0.00
  -11   12    7      0.72      0.00
  -10   12    7      1.73      0.00
   -9   12    7      1.10      0.00
   -8   12    7      0.12      0.00
   -7   12    7     -1.17      0.00
   -6   12    7     -0.03      0.00
   -5   12    7      1.98      0.00
   -4   12    7      2.34      0.00
   -3   12    7     -0.18      0.00
   -2   12    7     -1.91      0.00
   -1   12    7     -0.17      0.00
    0   12    7      0.32      0.00
    1   12    7     -1.94      0.00
    2   12    7     -1.00      0.00
    3   12    7      0.34      0.00
    4   12    7      0.39      0.00
    5   12    7      1.16      0.00
    6   12    7      0.45      0.00
    7   12    7     -0.01      0.00
    8   12    7     -0.20      0.00
    9   12    7      0.91      0.00
   10   12    7      0.43      0.00
  -13   13    7      0.55      0.00
  -12   13    7     -1.06      0.00
  -11   13    7     -0.06      0.00
  -10   13    7      1.30      0.00
   -9   13    7     -1.09      0.00
   -8   13    7     -1.77      0.00
   -7   13    7     -0.18      0.00
   -6   13    7      0.07      0.00
   -5   13    7     -0.12      0.00
   -4   13    7      0.21      0.00
   -3   13    7      0.54      0.00
   -2   13    7      0.37      0.00
   -1   13    7      0.37      0.00
    0   13    7      0.41      0.00
    1   13    7     -0.10      0.00
    2   13    7      0.63      0.00
    3   13    7      1.62      0.00
    4   13    7     -0.79      0.00
    5   13    7     -0.60      0.00
    6   13    7      1.17      0.00
    7   13    7     -0.03      0.00
    8   13    7     -1.06      0.00
    9   13    7      0.00      0.00
   10   13    7      1.52      0.00
  -13   14    7      1.47      0.00
  -12   14    7     -0.39      0.00
  -11   14    7     -0.18      0.00
  -10   14    7      0.56      0.00
   -9   14    7      0.09      0.00
   -8   14    7     -0.53      0.00
   -7   14    7     -0.72      0.00
   -6   14    7      0.75      0.00
   -5   14    7      2.27      0.00
   -4   14    7      2.62      0.00
   -3   14    7      0.25      0.00
   -2   14    7     -1.20      0.00
   -1   14    7      0.52      0.00
    0   14    7      0.21      0.00
    1   14    7     -3.02      0.00
    2   14    7     -2.31      0.00
    3   14    7      1.00      0.00
    4   14    7      1.70      0.00
    5   14    7      0.22      0.00
    6   14    7     -0.68      0.00
    7   14    7     -0.14      0.00
    8   14    7     -0.03      0.00
    9   14    7      1.00      0.00
   10   14    7      0.39      0.00
  -12   15    7     -1.66      0.00
  -11   15    7     -0.48      0.00
  -10   15    7      0.65      0.00
   -9   15    7     -1.22      0.00
   -8   15    7     -1.56      0.00
   -7   15    7     -0.21      0.00
   -6   15    7      0.40      0.00
   -5   15    7      0.44      0.00
   -4   15    7     -0.07      0.00
   -3   15    7     -0.63      0.00
   -2   15    7     -0.27      0.00
   -1   15    7      0.41      0.00
    0   15    7      0.65      0.00
    1   15    7     -0.26      0.00
    2   15    7     -0.41      0.00
    3   15    7      0.81      0.00
    4   15    7     -0.89      0.00
    5   15    7     -0.50      0.00
    6   15    7      0.64      0.00
    7   15    7     -0.10      0.00
    8   15    7     -0.62      0.00
    9   15    7     -0.43      0.00
  -12   16    7     -1.29      0.00
  -11   16    7     -1.08      0.00
  -10   16    7     -0.64      0.00
   -9   16    7     -0.72      0.00
   -8   16    7     -0.29      0.00
   -7   16    7      0.23      0.00
   -6   16    7      0.52      0.00
   -5   16    7      0.83      0.00
   -4   16    7      2.04      0.00
   -3   16    7      0.90      0.00
   -2   16    7     -0.37      0.00
   -1   16    7      0.92      0.00
    0   16    7      0.97      0.00
    1   16    7     -1.19      0.00
    2   16    7     -1.57      0.00
    3   16    7      1.25      0.00
    4   16    7      2.10      0.00
    5   16    7     -0.34      0.00
    6   16    7     -1.09      0.00
    7   16    7     -0.48      0.00
    8   16    7      0.03      0.00
    9   16    7      0.94      0.00
  -12   17    7     -0.94      0.00
  -11   17    7      0.05      0.00
  -10   17    7      0.62      0.00
   -9   17    7     -1.16      0.00
   -8   17    7     -1.59      0.00
   -7   17    7     -0.32      0.00
   -6   17    7      1.13      0.00
   -5   17    7      1.04      0.00
   -4   17    7     -0.38      0.00
   -3   17    7     -1.32      0.00
   -2   17    7     -0.24      0.00
   -1   17    7      1.15      0.00
    0   17    7      1.43      0.00
    1   17    7      0.66      0.00
    2   17    7     -0.35      0.00
    3   17    7      0.37      0.00
    4   17    7     -0.28      0.00
    5   17    7     -0.19      0.00
    6   17    7     -0.01      0.00
    7   17    7     -0.49      0.00
    8   17    7     -0.54      0.00
    9   17    7     -0.46      0.00
  -12   18    7     -1.57      0.00
  -11   18    7     -0.94      0.00
  -10   18    7     -0.72      0.00
   -9   18    7     -0.77      0.00
   -8   18    7      0.22      0.00
   -7   18    7      0.90      0.00
   -6   18    7      0.19      0.00
   -5   18    7     -0.38      0.00
   -4   18    7      1.61      0.00
   -3   18    7      1.64      0.00
   -2   18    7      0.20      0.00
   -1   18    7      0.91      0.00
    0   18    7      1.61      0.00
    1   18    7      1.07      0.00
    2   18    7     -0.78      0.00
    3   18    7     -0.11      0.00
    4   18    7      1.23      0.00
    5   18    7     -0.37      0.00
    6   18    7     -1.09      0.00
    7   18    7     -1.16      0.00
    8   18    7     -0.55      0.00
    9   18    7      0.69      0.00
  -11   19    7      0.52      0.00
  -10   19    7      0.76      0.00
   -9   19    7     -0.74      0.00
   -8   19    7     -1.46      0.00
   -7   19    7     -0.32      0.00
   -6   19    7      1.83      0.00
   -5   19    7      1.26      0.00
   -4   19    7     -0.60      0.00
   -3   19    7     -0.84      0.00
   -2   19    7      0.65      0.00
   -1   19    7      1.30      0.00
    0   19    7      0.70      0.00
    1   19    7      0.93      0.00
    2   19    7      0.27      0.00
    3   19    7     -0.01      0.00
    4   19    7     -0.11      0.00
    5   19    7      0.12      0.00
    6   19    7      0.17      0.00
    7   19    7     -0.38      0.00
    8   19    7     -0.31      0.00
  -11   20    7      0.07      0.00
  -10   20    7     -0.40      0.00
   -9   20    7     -1.08      0.00
   -8   20    7     -0.46      0.00
   -7   20    7      0.32      0.00
   -6   20    7      0.43      0.00
   -5   20    7     -0.03      0.00
   -4   20    7      1.44      0.00
   -3   20    7      1.64      0.00
   -2   20    7      0.23      0.00
   -1   20    7      0.75      0.00
    0   20    7      1.16      0.00
    1   20    7      1.54      0.00
    2   20    7     -0.55      0.00
    3   20    7     -1.45      0.00
    4   20    7      0.46      0.00
    5   20    7     -0.17      0.00
    6   20    7     -1.12      0.00
    7   20    7     -1.50      0.00
    8   20    7     -1.20      0.00
  -11   21    7     -0.05      0.00
  -10   21    7      0.60      0.00
   -9   21    7      0.10      0.00
   -8   21    7     -0.89      0.00
   -7   21    7     -0.55      0.00
   -6   21    7      1.70      0.00
   -5   21    7      1.24      0.00
   -4   21    7     -0.36      0.00
   -3   21    7      0.21      0.00
   -2   21    7      1.02      0.00
   -1   21    7     -0.09      0.00
    0   21    7     -1.67      0.00
    1   21    7     -0.30      0.00
    2   21    7      0.28      0.00
    3   21    7     -0.50      0.00
    4   21    7     -0.12      0.00
    5   21    7      0.90      0.00
    6   21    7      0.90      0.00
    7   21    7     -0.47      0.00
    8   21    7     -0.48      0.00
  -10   22    7     -0.60      0.00
   -9   22    7     -1.61      0.00
   -8   22    7     -1.68      0.00
   -7   22    7     -1.06      0.00
   -6   22    7      0.64      0.00
   -5   22    7      0.61      0.00
   -4   22    7      0.62      0.00
   -3   22    7      0.63      0.00
   -2   22    7      0.15      0.00
   -1   22    7      0.93      0.00
    0   22    7      0.18      0.00
    1   22    7      0.92      0.00
    2   22    7      0.25      0.00
    3   22    7     -1.02      0.00
    4   22    7      0.60      0.00
    5   22    7      0.03      0.00
    6   22    7     -0.68      0.00
    7   22    7     -0.63      0.00
  -10   23    7      0.54      0.00
   -9   23    7      0.95      0.00
   -8   23    7     -0.17      0.00
   -7   23    7     -1.06      0.00
   -6   23    7      1.05      0.00
   -5   23    7      1.57      0.00
   -4   23    7      0.22      0.00
   -3   23    7      0.61      0.00
   -2   23    7      0.40      0.00
   -1   23    7     -1.12      0.00
    0   23    7     -2.48      0.00
    1   23    7     -1.11      0.00
    2   23    7      0.22      0.00
    3   23    7     -0.39      0.00
    4   23    7      0.43      0.00
    5   23    7      1.91      0.00
    6   23    7      0.99      0.00
    7   23    7     -1.21      0.00
   -9   24    7     -1.21      0.00
   -8   24    7     -1.66      0.00
   -7   24    7     -1.78      0.00
   -6   24    7      0.47      0.00
   -5   24    7      0.62      0.00
   -4   24    7     -0.32      0.00
   -3   24    7     -0.04      0.00
   -2   24    7      0.68      0.00
   -1   24    7      1.47      0.00
    0   24    7     -0.41      0.00
    1   24    7      0.42      0.00
    2   24    7      1.10      0.00
    3   24    7     -0.26      0.00
    4   24    7      0.42      0.00
    5   24    7     -0.16      0.00
    6   24    7      0.27      0.00
    7   24    7      0.76      0.00
   -9   25    7      1.17      0.00
   -8   25    7      0.42      0.00
   -7   25    7     -1.21      0.00
   -6   25    7      0.73      0.00
   -5   25    7      2.19      0.00
   -4   25    7      0.28      0.00
   -3   25    7     -0.33      0.00
   -2   25    7     -0.68      0.00
   -1   25    7     -0.35      0.00
    0   25    7     -0.61      0.00
    1   25    7     -0.74      0.00
    2   25    7      0.29      0.00
    3   25    7     -0.03      0.00
    4   25    7      0.73      0.00
    5   25    7      1.78      0.00
    6   25    7      0.06      0.00
   -8   26    7     -0.69      0.00
   -7   26    7     -1.59      0.00
   -6   26    7      0.13      0.00
   -5   26    7      0.44      0.00
   -4   26    7     -0.38      0.00
   -3   26    7      0.22      0.00
   -2   26    7      1.31      0.00
   -1   26    7      1.75      0.00
    0   26    7     -0.19      0.00
    1   26    7      0.36      0.00
    2   26    7      0.77      0.00
    3   26    7     -0.78      0.00
    4   26    7     -0.52      0.00
    5   26    7     -0.49      0.00
    6   26    7      0.99      0.00
   -8   27    7      0.68      0.00
   -7   27    7     -1.00      0.00
   -6   27    7      0.59      0.00
   -5   27    7      2.25      0.00
   -4   27    7     -0.37      0.00
   -3   27    7     -1.63      0.00
   -2   27    7     -1.31      0.00
   -1   27    7      1.16      0.00
    0   27    7      1.42      0.00
    1   27    7     -0.52      0.00
    2   27    7      0.10      0.00
    3   27    7     -0.10      0.00
    4   27    7      0.12      0.00
    5   27    7      0.40      0.00
   -7   28    7     -1.13      0.00
   -6   28    7     -0.10      0.00
   -5   28    7      0.36      0.00
   -4   28    7     -0.03      0.00
   -3   28    7      0.24      0.00
   -2   28    7      0.81      0.00
   -1   28    7      1.32      0.00
    0   28    7      0.76      0.00
    1   28    7      0.61      0.00
    2   28    7     -0.35      0.00
    3   28    7     -1.57      0.00
    4   28    7     -0.93      0.00
   -6   29    7      0.02      0.00
   -5   29    7      1.44      0.00
   -4   29    7     -0.88      0.00
   -3   29    7     -1.74      0.00
   -2   29    7     -1.02      0.00
   -1   29    7      1.89      0.00
    0   29    7      1.93      0.00
    1   29    7     -0.49      0.00
    2   29    7      0.30      0.00
    3   29    7      0.07      0.00
   -5   30    7      0.31      0.00
   -4   30    7      0.08      0.00
   -3   30    7     -0.28      0.00
   -2   30    7     -0.43      0.00
   -1   30    7      0.48      0.00
    0   30    7      1.59      0.00
    1   30    7      0.66      0.00
    2   30    7     -1.17      0.00
   -4   31    7     -0.84      0.00
   -3   31    7     -0.92      0.00
   -2   31    7     -0.54      0.00
   -1   31    7      1.42      0.00
    0   31    7      1.49      0.00
    1   31    7      0.04      0.00
  -14    0    8      4.69      0.00
  -13    0    8     -0.90      0.00
  -12    0    8     -3.40      0.00
  -11    0    8     -0.70      0.00
  -10    0    8     -0.42      0.00
   -9    0    8     -1.88      0.00
   -8    0    8     -0.75      0.00
   -7    0    8      1.33      0.00
   -6    0    8     -1.66      0.00
   -5    0    8     -3.87      0.00
   -4    0    8     -1.23      0.00
   -3    0    8      1.08      0.00
   -2    0    8      1.68      0.00
   -1    0    8      1.82      0.00
    0    0    8      1.38      0.00
    1    0    8      0.20      0.00
    2    0    8     -2.08      0.00
    3    0    8     -1.49      0.00
    4    0    8      0.72      0.00
    5    0    8     -1.50      0.00
    6    0    8     -0.64      0.00
    7    0    8      0.25      0.00
    8    0    8     -2.90      0.00
    9    0    8     -1.06      0.00
   10    0    8      1.15      0.00
  -14    1    8      0.50      0.00
  -13    1    8      0.79      0.00
  -12    1    8     -0.48      0.00
  -11    1    8     -0.79      0.00
  -10    1    8     -0.15      0.00
   -9    1    8     -0.02      0.00
   -8    1    8     -0.35      0.00
   -7    1    8      0.02      0.00
   -6    1    8      0.40      0.00
   -5    1    8      0.00      0.00
   -4    1    8     -0.56      0.00
   -3    1    8     -0.64      0.00
   -2    1    8     -0.08      0.00
   -1    1    8      1.09      0.00
    0    1    8      1.47      0.00
    1    1    8      0.66      0.00
    2    1    8     -0.60      0.00
    3    1    8     -0.94      0.00
    4    1    8      0.00      0.00
    5    1    8      0.10      0.00
    6    1    8     -0.52      0.00
    7    1    8     -0.12      0.00
    8    1    8      0.68      0.00
    9    1    8      1.23      0.00
   10    1    8     -0.04      0.00
  -14    2    8      3.62      0.00
  -13    2    8     -1.07      0.00
  -12    2    8     -2.76      0.00
  -11    2    8     -0.47      0.00
  -10    2    8     -0.41      0.00
   -9    2    8     -1.48      0.00
   -8    2    8     -0.49      0.00
   -7    2    8      1.04      0.00
   -6    2    8     -1.74      0.00
   -5    2    8     -3.22      0.00
   -4    2    8     -0.17      0.00
   -3    2    8      1.97      0.00
   -2    2    8      1.52      0.00
   -1    2    8      0.84      0.00
    0    2    8      0.89      0.00
    1    2    8      0.62      0.00
    2    2    8     -1.37      0.00
    3    2    8     -1.71      0.00
    4    2    8      0.16      0.00
    5    2    8     -1.34      0.00
    6    2    8     -0.40      0.00
    7    2    8      0.35      0.00
    8    2    8     -3.18      0.00
    9    2    8     -1.44      0.00
   10    2    8      1.34      0.00
  -13    3    8      1.07      0.00
  -12    3    8     -1.26      0.00
  -11    3    8     -1.39      0.00
  -10    3    8     -0.05      0.00
   -9    3    8     -0.19      0.00
   -8    3    8     -1.05      0.00
   -7    3    8     -0.06      0.00
   -6    3    8      0.79      0.00
   -5    3    8     -0.25      0.00
   -4    3    8     -1.44      0.00
   -3    3    8     -1.18      0.00
   -2    3    8      0.28      0.00
   -1    3    8      2.48      0.00
    0    3    8      2.85      0.00
    1    3    8      1.03      0.00
    2    3    8     -1.38      0.00
    3    3    8     -1.85      0.00
    4    3    8      0.12      0.00
    5    3    8      0.24      0.00
    6    3    8     -1.27      0.00
    7    3    8     -0.28      0.00
    8    3    8      1.60      0.00
    9    3    8      2.61      0.00
   10    3    8     -0.22      0.00
  -13    4    8     -1.42      0.00
  -12    4    8     -1.51      0.00
  -11    4    8     -0.08      0.00
  -10    4    8     -0.37      0.00
   -9    4    8     -0.52      0.00
   -8    4    8      0.12      0.00
   -7    4    8      0.44      0.00
   -6    4    8     -1.96      0.00
   -5    4    8     -2.26      0.00
   -4    4    8      1.23      0.00
   -3    4    8      3.14      0.00
   -2    4    8      1.20      0.00
   -1    4    8     -0.86      0.00
    0    4    8     -0.15      0.00
    1    4    8      1.08      0.00
    2    4    8     -0.22      0.00
    3    4    8     -1.88      0.00
    4    4    8     -0.36      0.00
    5    4    8     -0.45      0.00
    6    4    8      0.37      0.00
    7    4    8      0.57      0.00
    8    4    8     -3.73      0.00
    9    4    8     -2.10      0.00
   10    4    8      1.77      0.00
  -13    5    8     -0.33      0.00
  -12    5    8     -1.35      0.00
  -11    5    8     -0.42      0.00
  -10    5    8      0.23      0.00
   -9    5    8     -0.72      0.00
   -8    5    8     -1.44      0.00
   -7    5    8     -0.23      0.00
   -6    5    8      0.40      0.00
   -5    5    8     -0.77      0.00
   -4    5    8     -1.63      0.00
   -3    5    8     -0.32      0.00
   -2    5    8      1.68      0.00
   -1    5    8      2.67      0.00
    0    5    8      2.00      0.00
    1    5    8      0.39      0.00
    2    5    8     -1.06      0.00
    3    5    8     -1.02      0.00
    4    5    8      0.29      0.00
    5    5    8      0.27      0.00
    6    5    8     -1.35      0.00
    7    5    8     -0.14      0.00
    8    5    8      1.94      0.00
    9    5    8      2.07      0.00
   10    5    8     -0.58      0.00
  -13    6    8     -1.54      0.00
  -12    6    8     -0.66      0.00
  -11    6    8      0.06      0.00
  -10    6    8     -0.44      0.00
   -9    6    8      0.12      0.00
   -8    6    8      0.49      0.00
   -7    6    8      0.10      0.00
   -6    6    8     -1.82      0.00
   -5    6    8     -1.74      0.00
   -4    6    8      1.07      0.00
   -3    6    8      2.85      0.00
   -2    6    8      1.25      0.00
   -1    6    8     -1.20      0.00
    0    6    8     -1.03      0.00
    1    6    8      0.43      0.00
    2    6    8     -0.11      0.00
    3    6    8     -1.57      0.00
    4    6    8      0.26      0.00
    5    6    8      0.80      0.00
    6    6    8      1.09      0.00
    7    6    8      0.49      0.00
    8    6    8     -4.00      0.00
    9    6    8     -2.25      0.00
   10    6    8      2.17      0.00
  -13    7    8     -1.65      0.00
  -12    7    8     -0.79      0.00
  -11    7    8      0.74      0.00
  -10    7    8     -0.20      0.00
   -9    7    8     -1.32      0.00
   -8    7    8     -0.89      0.00
   -7    7    8     -0.08      0.00
   -6    7    8     -0.29      0.00
   -5    7    8     -1.02      0.00
   -4    7    8     -1.05      0.00
   -3    7    8      0.87      0.00
   -2    7    8      2.87      0.00
   -1    7    8      2.33      0.00
    0    7    8      0.91      0.00
    1    7    8     -0.04      0.00
    2    7    8     -0.35      0.00
    3    7    8      0.02      0.00
    4    7    8      0.13      0.00
    5    7    8      0.13      0.00
    6    7    8     -1.11      0.00
    7    7    8      0.31      0.00
    8    7    8      2.22      0.00
    9    7    8      0.76      0.00
   10    7    8     -0.95      0.00
  -13    8    8     -1.28      0.00
  -12    8    8     -0.49      0.00
  -11    8    8     -0.10      0.00
  -10    8    8     -0.89      0.00
   -9    8    8     -0.43      0.00
   -8    8    8      0.07      0.00
   -7    8    8      0.31      0.00
   -6    8    8     -0.92      0.00
   -5    8    8     -1.21      0.00
   -4    8    8      0.25      0.00
   -3    8    8      1.79      0.00
   -2    8    8      1.84      0.00
   -1    8    8     -0.06      0.00
    0    8    8     -1.26      0.00
    1    8    8     -0.46      0.00
    2    8    8     -0.65      0.00
    3    8    8     -1.10      0.00
    4    8    8      0.92      0.00
    5    8    8      0.90      0.00
    6    8    8      0.90      0.00
    7    8    8     -0.24      0.00
    8    8    8     -3.77      0.00
    9    8    8     -1.53      0.00
   10    8    8      2.20      0.00
  -13    9    8     -2.19      0.00
  -12    9    8     -0.35      0.00
  -11    9    8      0.93      0.00
  -10    9    8     -1.12      0.00
   -9    9    8     -1.28      0.00
   -8    9    8      0.47      0.00
   -7    9    8      0.34      0.00
   -6    9    8     -0.68      0.00
   -5    9    8     -0.61      0.00
   -4    9    8     -0.16      0.00
   -3    9    8      0.91      0.00
   -2    9    8      2.15      0.00
   -1    9    8      1.31      0.00
    0    9    8      0.18      0.00
    1    9    8     -0.48      0.00
    2    9    8     -0.79      0.00
    3    9    8     -0.47      0.00
    4    9    8     -0.24      0.00
    5    9    8      0.08      0.00
    6    9    8     -1.08      0.00
    7    9    8      0.51      0.00
    8    9    8      2.17      0.00
    9    9    8     -0.27      0.00
   10    9    8     -1.15      0.00
  -13   10    8     -1.09      0.00
  -12   10    8     -1.01      0.00
  -11   10    8     -0.49      0.00
  -10   10    8     -1.37      0.00
   -9   10    8     -1.44      0.00
   -8   10    8     -0.53      0.00
   -7   10    8      0.63      0.00
   -6   10    8     -0.40      0.00
   -5   10    8     -1.05      0.00
   -4   10    8     -0.22      0.00
   -3   10    8      0.99      0.00
   -2   10    8      2.03      0.00
   -1   10    8      0.96      0.00
    0   10    8     -0.58      0.00
    1   10    8      0.36      0.00
    2   10    8     -0.09      0.00
    3   10    8     -0.79      0.00
    4   10    8      0.48      0.00
    5   10    8     -0.02      0.00
    6   10    8      0.53      0.00
    7   10    8     -0.90      0.00
    8   10    8     -3.13      0.00
    9   10    8     -0.49      0.00
   10   10    8      1.75      0.00
  -13   11    8     -2.06      0.00
  -12   11    8     -0.04      0.00
  -11   11    8      0.78      0.00
  -10   11    8     -1.35      0.00
   -9   11    8     -0.44      0.00
   -8   11    8      1.47      0.00
   -7   11    8      0.37      0.00
   -6   11    8     -0.67      0.00
   -5   11    8      0.03      0.00
   -4   11    8      0.46      0.00
   -3   11    8      0.15      0.00
   -2   11    8      0.36      0.00
   -1   11    8      0.05      0.00
    0   11    8     -0.36      0.00
    1   11    8     -0.88      0.00
    2   11    8     -1.59      0.00
    3   11    8     -1.58      0.00
    4   11    8     -0.07      0.00
    5   11    8      0.41      0.00
    6   11    8     -1.23      0.00
    7   11    8      0.26      0.00
    8   11    8      1.28      0.00
    9   11    8     -0.93      0.00
  -13   12    8     -1.21      0.00
  -12   12    8     -1.86      0.00
  -11   12    8     -0.86      0.00
  -10   12    8     -1.07      0.00
   -9   12    8     -1.12      0.00
   -8   12    8     -0.08      0.00
   -7   12    8      0.64      0.00
   -6   12    8     -1.13      0.00
   -5   12    8     -1.70      0.00
   -4   12    8     -0.43      0.00
   -3   12    8      0.48      0.00
   -2   12    8      1.21      0.00
   -1   12    8      0.95      0.00
    0   12    8      0.51      0.00
    1   12    8      2.31      0.00
    2   12    8      1.28      0.00
    3   12    8     -0.99      0.00
    4   12    8     -0.75      0.00
    5   12    8     -0.44      0.00
    6   12    8      1.06      0.00
    7   12    8     -0.73      0.00
    8   12    8     -2.41      0.00
    9   12    8      0.08      0.00
  -12   13    8      0.82      0.00
  -11   13    8      1.02      0.00
  -10   13    8     -0.70      0.00
   -9   13    8      0.51      0.00
   -8   13    8      1.40      0.00
   -7   13    8     -0.05      0.00
   -6   13    8     -0.54      0.00
   -5   13    8      0.10      0.00
   -4   13    8      0.50      0.00
   -3   13    8      0.12      0.00
   -2   13    8     -0.20      0.00
   -1   13    8     -0.34      0.00
    0   13    8     -0.34      0.00
    1   13    8     -0.32      0.00
    2   13    8     -0.82      0.00
    3   13    8     -1.59      0.00
    4   13    8      0.49      0.00
    5   13    8      0.77      0.00
    6   13    8     -1.05      0.00
    7   13    8      0.33      0.00
    8   13    8      0.28      0.00
    9   13    8     -1.11      0.00
  -12   14    8     -1.93      0.00
  -11   14    8     -0.65      0.00
  -10   14    8      0.08      0.00
   -9   14    8      0.57      0.00
   -8   14    8      1.16      0.00
   -7   14    8      0.33      0.00
   -6   14    8     -1.94      0.00
   -5   14    8     -1.81      0.00
   -4   14    8     -0.16      0.00
   -3   14    8      0.16      0.00
   -2   14    8      0.09      0.00
   -1   14    8      0.44      0.00
    0   14    8      0.82      0.00
    1   14    8      2.54      0.00
    2   14    8      1.50      0.00
    3   14    8     -1.62      0.00
    4   14    8     -1.91      0.00
    5   14    8     -0.23      0.00
    6   14    8      1.67      0.00
    7   14    8     -0.19      0.00
    8   14    8     -1.85      0.00
    9   14    8      0.01      0.00
  -12   15    8      1.60      0.00
  -11   15    8      0.93      0.00
  -10   15    8     -0.23      0.00
   -9   15    8      1.03      0.00
   -8   15    8      0.83      0.00
   -7   15    8     -0.39      0.00
   -6   15    8     -0.51      0.00
   -5   15    8     -0.49      0.00
   -4   15    8      0.22      0.00
   -3   15    8      1.07      0.00
   -2   15    8      0.40      0.00
   -1   15    8     -0.48      0.00
    0   15    8     -0.28      0.00
    1   15    8      0.41      0.00
    2   15    8      0.53      0.00
    3   15    8     -1.06      0.00
    4   15    8      0.41      0.00
    5   15    8      0.66      0.00
    6   15    8     -0.48      0.00
    7   15    8      0.99      0.00
    8   15    8      0.08      0.00
    9   15    8     -0.73      0.00
  -12   16    8     -0.72      0.00
  -11   16    8      0.13      0.00
  -10   16    8      0.89      0.00
   -9   16    8      1.79      0.00
   -8   16    8      1.72      0.00
   -7   16    8     -0.30      0.00
   -6   16    8     -1.76      0.00
   -5   16    8     -0.73      0.00
   -4   16    8      0.23      0.00
   -3   16    8     -0.33      0.00
   -2   16    8     -0.66      0.00
   -1   16    8     -0.04      0.00
    0   16    8     -0.03      0.00
    1   16    8      0.54      0.00
    2   16    8      0.67      0.00
    3   16    8     -1.38      0.00
    4   16    8     -2.07      0.00
    5   16    8     -0.10      0.00
    6   16    8      1.45      0.00
    7   16    8      0.28      0.00
    8   16    8     -1.20      0.00
  -11   17    8      0.06      0.00
  -10   17    8     -0.33      0.00
   -9   17    8      1.08      0.00
   -8   17    8      0.34      0.00
   -7   17    8     -0.54      0.00
   -6   17    8     -0.63      0.00
   -5   17    8     -0.97      0.00
   -4   17    8      0.13      0.00
   -3   17    8      1.79      0.00
   -2   17    8      0.34      0.00
   -1   17    8     -1.27      0.00
    0   17    8     -0.44      0.00
    1   17    8      0.16      0.00
    2   17    8      0.39      0.00
    3   17    8     -0.98      0.00
    4   17    8     -0.14      0.00
    5   17    8      0.38      0.00
    6   17    8     -0.06      0.00
    7   17    8      1.31      0.00
    8   17    8      0.21      0.00
  -11   18    8      0.47      0.00
  -10   18    8      0.51      0.00
   -9   18    8      1.79      0.00
   -8   18    8      1.50      0.00
   -7   18    8     -0.84      0.00
   -6   18    8     -1.26      0.00
   -5   18    8     -0.01      0.00
   -4   18    8     -0.22      0.00
   -3   18    8     -1.21      0.00
   -2   18    8     -0.98      0.00
   -1   18    8     -0.50      0.00
    0   18    8     -1.01      0.00
    1   18    8     -1.10      0.00
    2   18    8      0.47      0.00
    3   18    8      0.15      0.00
    4   18    8     -1.20      0.00
    5   18    8     -0.05      0.00
    6   18    8      1.12      0.00
    7   18    8      0.93      0.00
    8   18    8     -0.26      0.00
  -11   19    8     -0.48      0.00
  -10   19    8     -0.31      0.00
   -9   19    8      0.73      0.00
   -8   19    8     -0.26      0.00
   -7   19    8     -0.75      0.00
   -6   19    8     -0.60      0.00
   -5   19    8     -0.86      0.00
   -4   19    8      0.08      0.00
   -3   19    8      1.29      0.00
   -2   19    8     -0.66      0.00
   -1   19    8     -1.47      0.00
    0   19    8      0.68      0.00
    1   19    8      0.13      0.00
    2   19    8     -0.53      0.00
    3   19    8     -0.74      0.00
    4   19    8     -0.03      0.00
    5   19    8      0.36      0.00
    6   19    8     -0.12      0.00
    7   19    8      0.91      0.00
    8   19    8      0.17      0.00
  -11   20    8     -0.10      0.00
  -10   20    8     -0.34      0.00
   -9   20    8      1.68      0.00
   -8   20    8      1.74      0.00
   -7   20    8     -0.53      0.00
   -6   20    8     -0.90      0.00
   -5   20    8     -0.21      0.00
   -4   20    8     -0.86      0.00
   -3   20    8     -1.41      0.00
   -2   20    8     -0.67      0.00
   -1   20    8     -1.02      0.00
    0   20    8     -1.10      0.00
    1   20    8     -0.75      0.00
    2   20    8      0.65      0.00
    3   20    8      0.96      0.00
    4   20    8     -0.65      0.00
    5   20    8      0.02      0.00
    6   20    8      1.23      0.00
    7   20    8      1.32      0.00
  -10   21    8      0.07      0.00
   -9   21    8      0.09      0.00
   -8   21    8     -0.97      0.00
   -7   21    8     -0.74      0.00
   -6   21    8     -0.07      0.00
   -5   21    8     -0.66      0.00
   -4   21    8     -0.62      0.00
   -3   21    8     -0.17      0.00
   -2   21    8     -1.33      0.00
   -1   21    8     -0.11      0.00
    0   21    8      2.95      0.00
    1   21    8      1.05      0.00
    2   21    8     -0.85      0.00
    3   21    8     -0.21      0.00
    4   21    8      0.26      0.00
    5   21    8      0.07      0.00
    6   21    8     -0.37      0.00
    7   21    8      0.70      0.00
  -10   22    8     -0.62      0.00
   -9   22    8      1.90      0.00
   -8   22    8      2.31      0.00
   -7   22    8      0.38      0.00
   -6   22    8     -0.30      0.00
   -5   22    8     -0.10      0.00
   -4   22    8     -0.48      0.00
   -3   22    8     -0.50      0.00
   -2   22    8     -0.05      0.00
   -1   22    8     -1.56      0.00
    0   22    8     -0.47      0.00
    1   22    8      0.67      0.00
    2   22    8      0.09      0.00
    3   22    8     -0.07      0.00
    4   22    8     -0.90      0.00
    5   22    8     -0.01      0.00
    6   22    8      0.99      0.00
   -9   23    8     -0.55      0.00
   -8   23    8     -1.37      0.00
   -7   23    8     -0.38      0.00
   -6   23    8      0.62      0.00
   -5   23    8     -0.91      0.00
   -4   23    8     -1.63      0.00
   -3   23    8     -1.17      0.00
   -2   23    8     -0.91      0.00
   -1   23    8      1.26      0.00
    0   23    8      3.52      0.00
    1   23    8      1.29      0.00
    2   23    8     -0.95      0.00
    3   23    8     -0.36      0.00
    4   23    8     -0.32      0.00
    5   23    8     -0.74      0.00
    6   23    8     -0.41      0.00
   -9   24    8      1.62      0.00
   -8   24    8      1.99      0.00
   -7   24    8      0.74      0.00
   -6   24    8      0.45      0.00
   -5   24    8      0.61      0.00
   -4   24    8      0.11      0.00
   -3   24    8     -0.02      0.00
   -2   24    8     -0.10      0.00
   -1   24    8     -2.11      0.00
    0   24    8     -0.01      0.00
    1   24    8      1.67      0.00
    2   24    8     -0.59      0.00
    3   24    8     -1.09      0.00
    4   24    8     -0.75      0.00
    5   24    8      0.03      0.00
   -8   25    8     -1.35      0.00
   -7   25    8     -0.21      0.00
   -6   25    8      0.80      0.00
   -5   25    8     -1.25      0.00
   -4   25    8     -1.67      0.00
   -3   25    8     -0.70      0.00
   -2   25    8      0.16      0.00
   -1   25    8      1.20      0.00
    0   25    8      1.48      0.00
    1   25    8      0.39      0.00
    2   25    8     -0.92      0.00
    3   25    8     -0.78      0.00
    4   25    8     -0.87      0.00
    5   25    8     -0.90      0.00
   -8   26    8      0.95      0.00
   -7   26    8      0.34      0.00
   -6   26    8      0.84      0.00
   -5   26    8      1.03      0.00
   -4   26    8     -0.22      0.00
   -3   26    8     -0.59      0.00
   -2   26    8     -0.58      0.00
   -1   26    8     -2.26      0.00
    0   26    8     -0.30      0.00
    1   26    8      1.58      0.00
    2   26    8     -0.36      0.00
    3   26    8     -0.65      0.00
    4   26    8      0.09      0.00
   -7   27    8     -0.26      0.00
   -6   27    8      0.65      0.00
   -5   27    8     -0.94      0.00
   -4   27    8     -0.59      0.00
   -3   27    8      0.28      0.00
   -2   27    8      0.70      0.00
   -1   27    8      0.28      0.00
    0   27    8     -0.76      0.00
    1   27    8     -0.27      0.00
    2   27    8     -0.42      0.00
    3   27    8     -0.61      0.00
    4   27    8     -0.39      0.00
   -6   28    8      0.62      0.00
   -5   28    8      0.87      0.00
   -4   28    8     -0.70      0.00
   -3   28    8     -0.74      0.00
   -2   28    8     -0.25      0.00
   -1   28    8     -1.62      0.00
    0   28    8     -1.06      0.00
    1   28    8      0.76      0.00
    2   28    8      0.51      0.00
    3   28    8      0.29      0.00
   -5   29    8     -0.08      0.00
   -4   29    8      0.40      0.00
   -3   29    8      0.32      0.00
   -2   29    8      0.25      0.00
   -1   29    8     -0.26      0.00
    0   29    8     -1.40      0.00
    1   29    8     -0.44      0.00
    2   29    8     -0.20      0.00
   -3   30    8     -0.01      0.00
   -2   30    8      0.59      0.00
   -1   30    8     -0.66      0.00
    0   30    8     -1.45      0.00
  -13    0    9      0.99      0.00
  -12    0    9      1.78      0.00
  -11    0    9     -0.16      0.00
  -10    0    9      1.42      0.00
   -9    0    9      1.59      0.00
   -8    0    9      1.32      0.00
   -7    0    9      1.00      0.00
   -6    0    9      0.48      0.00
   -5    0    9      1.13      0.00
   -4    0    9      0.82      0.00
   -3    0    9     -0.41      0.00
   -2    0    9     -0.32      0.00
   -1    0    9     -0.40      0.00
    0    0    9     -1.16      0.00
    1    0    9     -0.40      0.00
    2    0    9      0.89      0.00
    3    0    9      0.83      0.00
    4    0    9     -0.04      0.00
    5    0    9      1.48      0.00
    6    0    9      2.11      0.00
    7    0    9      0.20      0.00
    8    0    9     -0.70      0.00
    9    0    9     -0.85      0.00
  -13    1    9     -0.58      0.00
  -12    1    9      0.42      0.00
  -11    1    9      0.95      0.00
  -10    1    9      0.06      0.00
   -9    1    9     -0.18      0.00
   -8    1    9      0.38      0.00
   -7    1    9      0.16      0.00
   -6    1    9     -0.55      0.00
   -5    1    9     -0.41      0.00
   -4    1    9      0.57      0.00
   -3    1    9      0.74      0.00
   -2    1    9      0.09      0.00
   -1    1    9     -0.99      0.00
    0    1    9     -1.53      0.00
    1    1    9     -0.58      0.00
    2    1    9      0.54      0.00
    3    1    9      0.69      0.00
    4    1    9      0.11      0.00
    5    1    9      0.18      0.00
    6    1    9      0.60      0.00
    7    1    9      0.03      0.00
    8    1    9     -0.16      0.00
    9    1    9     -0.39      0.00
  -13    2    9      1.44      0.00
  -12    2    9      1.23      0.00
  -11    2    9     -0.70      0.00
  -10    2    9      1.19      0.00
   -9    2    9      1.18      0.00
   -8    2    9      1.04      0.00
   -7    2    9      1.22      0.00
   -6    2    9      0.57      0.00
   -5    2    9      0.45      0.00
   -4    2    9     -0.08      0.00
   -3    2    9     -0.89      0.00
   -2    2    9     -0.25      0.00
   -1    2    9     -0.02      0.00
    0    2    9     -1.24      0.00
    1    2    9     -0.93      0.00
    2    2    9      0.49      0.00
    3    2    9      1.20      0.00
    4    2    9      0.62      0.00
    5    2    9      1.24      0.00
    6    2    9      1.81      0.00
    7    2    9      0.22      0.00
    8    2    9     -0.55      0.00
    9    2    9     -0.36      0.00
  -13    3    9     -1.05      0.00
  -12    3    9      0.99      0.00
  -11    3    9      1.94      0.00
  -10    3    9      0.03      0.00
   -9    3    9     -0.16      0.00
   -8    3    9      1.14      0.00
   -7    3    9      0.46      0.00
   -6    3    9     -1.10      0.00
   -5    3    9     -0.78      0.00
   -4    3    9      1.16      0.00
   -3    3    9      1.18      0.00
   -2    3    9     -0.24      0.00
   -1    3    9     -2.13      0.00
    0    3    9     -3.08      0.00
    1    3    9     -1.02      0.00
    2    3    9      1.27      0.00
    3    3    9      1.28      0.00
    4    3    9      0.24      0.00
    5    3    9      0.52      0.00
    6    3    9      1.24      0.00
    7    3    9     -0.01      0.00
    8    3    9     -0.48      0.00
    9    3    9     -1.05      0.00
  -13    4    9      2.51      0.00
  -12    4    9      0.32      0.00
  -11    4    9     -1.59      0.00
  -10    4    9      0.84      0.00
   -9    4    9      0.43      0.00
   -8    4    9      0.58      0.00
   -7    4    9      1.61      0.00
   -6    4    9      0.62      0.00
   -5    4    9     -0.72      0.00
   -4    4    9     -1.26      0.00
   -3    4    9     -1.31      0.00
   -2    4    9     -0.18      0.00
   -1    4    9      0.60      0.00
    0    4    9     -1.05      0.00
    1    4    9     -1.34      0.00
    2    4    9      0.09      0.00
    3    4    9      1.71      0.00
    4    4    9      1.31      0.00
    5    4    9      0.20      0.00
    6    4    9      0.86      0.00
    7    4    9      0.20      0.00
    8    4    9     -0.20      0.00
    9    4    9      0.66      0.00
  -13    5    9     -0.65      0.00
  -12    5    9      0.99      0.00
  -11    5    9      1.48      0.00
  -10    5    9      0.08      0.00
   -9    5    9      0.69      0.00
   -8    5    9      1.56      0.00
   -7    5    9      0.51      0.00
   -6    5    9     -0.58      0.00
   -5    5    9     -0.27      0.00
   -4    5    9      0.90      0.00
   -3    5    9     -0.06      0.00
   -2    5    9     -1.40      0.00
   -1    5    9     -1.88      0.00
    0    5    9     -2.39      0.00
    1    5    9     -0.73      0.00
    2    5    9      1.02      0.00
    3    5    9      0.39      0.00
    4    5    9      0.22      0.00
    5    5    9      0.80      0.00
    6    5    9      0.94      0.00
    7    5    9     -0.23      0.00
    8    5    9     -0.84      0.00
    9    5    9     -1.40      0.00
  -13    6    9      3.34      0.00
  -12    6    9     -0.10      0.00
  -11    6    9     -1.82      0.00
  -10    6    9      0.85      0.00
   -9    6    9      0.26      0.00
   -8    6    9      0.77      0.00
   -7    6    9      1.73      0.00
   -6    6    9      0.04      0.00
   -5    6    9     -1.52      0.00
   -4    6    9     -0.98      0.00
   -3    6    9     -0.62      0.00
   -2    6    9     -0.65      0.00
   -1    6    9      0.32      0.00
    0    6    9     -0.28      0.00
    1    6    9     -0.35      0.00
    2    6    9      0.52      0.00
    3    6    9      1.47      0.00
    4    6    9      0.65      0.00
    5    6    9     -1.16      0.00
    6    6    9     -0.07      0.00
    7    6    9      0.33      0.00
    8    6    9      0.23      0.00
    9    6    9      1.35      0.00
  -13    7    9     -0.23      0.00
  -12    7    9      0.67      0.00
  -11    7    9      0.65      0.00
  -10    7    9      0.77      0.00
   -9    7    9      1.80      0.00
   -8    7    9      1.07      0.00
   -7    7    9      0.16      0.00
   -6    7    9      0.42      0.00
   -5    7    9      0.43      0.00
   -4    7    9      0.22      0.00
   -3    7    9     -1.33      0.00
   -2    7    9     -2.16      0.00
   -1    7    9     -1.07      0.00
    0    7    9     -1.22      0.00
    1    7    9     -0.53      0.00
    2    7    9      0.46      0.00
    3    7    9     -0.77      0.00
    4    7    9      0.16      0.00
    5    7    9      0.96      0.00
    6    7    9      0.34      0.00
    7    7    9     -0.25      0.00
    8    7    9     -1.04      0.00
    9    7    9     -1.40      0.00
  -13    8    9      3.21      0.00
  -12    8    9     -0.09      0.00
  -11    8    9     -1.42      0.00
  -10    8    9      1.13      0.00
   -9    8    9      1.04      0.00
   -8    8    9      1.86      0.00
   -7    8    9      1.48      0.00
   -6    8    9     -1.17      0.00
   -5    8    9     -2.06      0.00
   -4    8    9      0.07      0.00
   -3    8    9      0.49      0.00
   -2    8    9     -1.70      0.00
   -1    8    9     -1.04      0.00
    0    8    9      0.20      0.00
    1    8    9      0.66      0.00
    2    8    9      0.93      0.00
    3    8    9      0.61      0.00
    4    8    9     -0.53      0.00
    5    8    9     -1.40      0.00
    6    8    9     -0.11      0.00
    7    8    9      0.86      0.00
    8    8    9      0.67      0.00
    9    8    9      1.17      0.00
  -13    9    9      0.17      0.00
  -12    9    9      0.56      0.00
  -11    9    9      0.26      0.00
  -10    9    9      1.60      0.00
   -9    9    9      1.98      0.00
   -8    9    9     -0.35      0.00
   -7    9    9     -0.32      0.00
   -6    9    9      0.96      0.00
   -5    9    9      0.24      0.00
   -4    9    9     -0.55      0.00
   -3    9    9     -1.17      0.00
   -2    9    9     -1.41      0.00
   -1    9    9     -0.15      0.00
    0    9    9     -0.31      0.00
    1    9    9      0.00      0.00
    2    9    9      0.99      0.00
    3    9    9     -0.55      0.00
    4    9    9      0.14      0.00
    5    9    9      0.88      0.00
    6    9    9      0.27      0.00
    7    9    9      0.27      0.00
    8    9    9     -0.64      0.00
    9    9    9     -0.93      0.00
  -12   10    9      0.32      0.00
  -11   10    9     -0.68      0.00
  -10   10    9      1.17      0.00
   -9   10    9      1.74      0.00
   -8   10    9      2.68      0.00
   -7   10    9      1.11      0.00
   -6   10    9     -1.61      0.00
   -5   10    9     -1.93      0.00
   -4   10    9      0.77      0.00
   -3   10    9      1.24      0.00
   -2   10    9     -2.25      0.00
   -1   10    9     -2.29      0.00
    0   10    9     -0.32      0.00
    1   10    9     -0.10      0.00
    2   10    9      0.26      0.00
    3   10    9      0.06      0.00
    4   10    9     -0.76      0.00
    5   10    9     -0.57      0.00
    6   10    9      0.18      0.00
    7   10    9      1.27      0.00
    8   10    9      0.88      0.00
    9   10    9      0.38      0.00
  -12   11    9      0.35      0.00
  -11   11    9     -0.18      0.00
  -10   11    9      1.63      0.00
   -9   11    9      1.01      0.00
   -8   11    9     -1.67      0.00
   -7   11    9     -0.32      0.00
   -6   11    9      0.93      0.00
   -5   11    9     -0.64      0.00
   -4   11    9     -1.08      0.00
   -3   11    9     -0.20      0.00
   -2   11    9     -0.18      0.00
   -1   11    9      0.34      0.00
    0   11    9      0.30      0.00
    1   11    9      0.69      0.00
    2   11    9      1.74      0.00
    3   11    9      0.38      0.00
    4   11    9     -0.14      0.00
    5   11    9      0.42      0.00
    6   11    9      0.58      0.00
    7   11    9      0.81      0.00
    8   11    9      0.24      0.00
  -12   12    9      1.22      0.00
  -11   12    9      0.20      0.00
  -10   12    9      0.59      0.00
   -9   12    9      1.08      0.00
   -8   12    9      1.74      0.00
   -7   12    9      0.60      0.00
   -6   12    9     -0.50      0.00
   -5   12    9     -0.96      0.00
   -4   12    9      0.76      0.00
   -3   12    9      1.45      0.00
   -2   12    9     -1.74      0.00
   -1   12    9     -2.50      0.00
    0   12    9     -1.14      0.00
    1   12    9     -1.50      0.00
    2   12    9     -0.53      0.00
    3   12    9      0.56      0.00
    4   12    9      0.11      0.00
    5   12    9     -0.05      0.00
    6   12    9     -0.15      0.00
    7   12    9      1.13      0.00
    8   12    9      0.79      0.00
  -12   13    9     -0.55      0.00
  -11   13    9     -0.95      0.00
  -10   13    9      1.10      0.00
   -9   13    9     -0.01      0.00
   -8   13    9     -2.01      0.00
   -7   13    9      0.06      0.00
   -6   13    9      0.87      0.00
   -5   13    9     -0.78      0.00
   -4   13    9     -0.85      0.00
   -3   13    9      0.21      0.00
   -2   13    9     -0.15      0.00
   -1   13    9     -0.04      0.00
    0   13    9      0.30      0.00
    1   13    9      0.38      0.00
    2   13    9      0.84      0.00
    3   13    9      0.47      0.00
    4   13    9     -0.46      0.00
    5   13    9     -0.07      0.00
    6   13    9      0.58      0.00
    7   13    9      0.48      0.00
    8   13    9      0.66      0.00
  -12   14    9      1.71      0.00
  -11   14    9      0.48      0.00
  -10   14    9     -0.40      0.00
   -9   14    9     -0.44      0.00
   -8   14    9     -0.41      0.00
   -7   14    9     -0.15      0.00
   -6   14    9      0.90      0.00
   -5   14    9     -0.29      0.00
   -4   14    9     -0.06      0.00
   -3   14    9      1.14      0.00
   -2   14    9     -0.92      0.00
   -1   14    9     -2.05      0.00
    0   14    9     -1.06      0.00
    1   14    9     -1.19      0.00
    2   14    9     -0.19      0.00
    3   14    9      1.48      0.00
    4   14    9      1.18      0.00
    5   14    9     -0.15      0.00
    6   14    9     -0.52      0.00
    7   14    9      1.00      0.00
    8   14    9      0.56      0.00
  -11   15    9     -1.19      0.00
  -10   15    9      0.99      0.00
   -9   15    9     -0.18      0.00
   -8   15    9     -1.58      0.00
   -7   15    9      0.10      0.00
   -6   15    9      0.95      0.00
   -5   15    9      0.20      0.00
   -4   15    9     -0.16      0.00
   -3   15    9     -0.38      0.00
   -2   15    9     -1.03      0.00
   -1   15    9     -0.34      0.00
    0   15    9      0.25      0.00
    1   15    9     -0.32      0.00
    2   15    9     -0.75      0.00
    3   15    9      0.11      0.00
    4   15    9     -0.01      0.00
    5   15    9      0.00      0.00
    6   15    9      0.18      0.00
    7   15    9     -0.42      0.00
    8   15    9      0.30      0.00
  -11   16    9     -0.22      0.00
  -10   16    9     -1.06      0.00
   -9   16    9     -1.11      0.00
   -8   16    9     -1.75      0.00
   -7   16    9     -0.75      0.00
   -6   16    9      1.40      0.00
   -5   16    9     -0.27      0.00
   -4   16    9     -0.74      0.00
   -3   16    9      1.02      0.00
   -2   16    9     -0.30      0.00
   -1   16    9     -1.37      0.00
    0   16    9     -0.01      0.00
    1   16    9      0.53      0.00
    2   16    9      0.40      0.00
    3   16    9      1.19      0.00
    4   16    9      1.41      0.00
    5   16    9     -0.33      0.00
    6   16    9     -0.41      0.00
    7   16    9      1.04      0.00
  -11   17    9     -0.56      0.00
  -10   17    9      1.24      0.00
   -9   17    9      0.30      0.00
   -8   17    9     -0.79      0.00
   -7   17    9     -0.25      0.00
   -6   17    9      0.91      0.00
   -5   17    9      1.20      0.00
   -4   17    9      0.07      0.00
   -3   17    9     -1.32      0.00
   -2   17    9     -1.32      0.00
   -1   17    9      0.24      0.00
    0   17    9      0.47      0.00
    1   17    9     -0.21      0.00
    2   17    9     -0.95      0.00
    3   17    9      0.09      0.00
    4   17    9      0.77      0.00
    5   17    9      0.35      0.00
    6   17    9     -0.17      0.00
    7   17    9     -0.73      0.00
  -11   18    9     -0.83      0.00
  -10   18    9     -0.83      0.00
   -9   18    9     -0.57      0.00
   -8   18    9     -1.68      0.00
   -7   18    9     -1.03      0.00
   -6   18    9      1.29      0.00
   -5   18    9      0.18      0.00
   -4   18    9     -0.24      0.00
   -3   18    9      1.48      0.00
   -2   18    9      0.17      0.00
   -1   18    9     -0.41      0.00
    0   18    9      1.03      0.00
    1   18    9      1.41      0.00
    2   18    9      0.10      0.00
    3   18    9     -0.24      0.00
    4   18    9      0.91      0.00
    5   18    9     -0.47      0.00
    6   18    9     -0.59      0.00
    7   18    9      0.67      0.00
  -10   19    9      1.07      0.00
   -9   19    9      0.81      0.00
   -8   19    9      0.19      0.00
   -7   19    9     -0.49      0.00
   -6   19    9      0.52      0.00
   -5   19    9      1.50      0.00
   -4   19    9      0.06      0.00
   -3   19    9     -1.45      0.00
   -2   19    9     -0.68      0.00
   -1   19    9      0.62      0.00
    0   19    9     -0.16      0.00
    1   19    9     -0.16      0.00
    2   19    9     -0.23      0.00
    3   19    9     -0.15      0.00
    4   19    9      0.65      0.00
    5   19    9      0.32      0.00
    6   19    9     -0.39      0.00
  -10   20    9     -0.10      0.00
   -9   20    9     -0.11      0.00
   -8   20    9     -1.38      0.00
   -7   20    9     -1.45      0.00
   -6   20    9      0.88      0.00
   -5   20    9      1.04      0.00
   -4   20    9      0.45      0.00
   -3   20    9      1.30      0.00
   -2   20    9      0.06      0.00
   -1   20    9      0.52      0.00
    0   20    9      1.15      0.00
    1   20    9      0.43      0.00
    2   20    9     -0.31      0.00
    3   20    9     -0.65      0.00
    4   20    9      0.78      0.00
    5   20    9     -0.52      0.00
    6   20    9     -1.33      0.00
   -9   21    9      1.05      0.00
   -8   21    9      0.94      0.00
   -7   21    9     -0.66      0.00
   -6   21    9     -0.27      0.00
   -5   21    9      1.65      0.00
   -4   21    9      0.94      0.00
   -3   21    9     -0.35      0.00
   -2   21    9     -0.01      0.00
   -1   21    9     -0.18      0.00
    0   21    9     -1.63      0.00
    1   21    9     -0.77      0.00
    2   21    9      0.17      0.00
    3   21    9     -0.55      0.00
    4   21    9      0.08      0.00
    5   21    9      0.37      0.00
    6   21    9     -0.45      0.00
   -9   22    9     -0.32      0.00
   -8   22    9     -1.31      0.00
   -7   22    9     -2.01      0.00
   -6   22    9      0.01      0.00
   -5   22    9      1.08      0.00
   -4   22    9      0.02      0.00
   -3   22    9      0.07      0.00
   -2   22    9     -0.49      0.00
   -1   22    9      1.11      0.00
    0   22    9      0.39      0.00
    1   22    9     -1.41      0.00
    2   22    9      0.03      0.00
    3   22    9      0.58      0.00
    4   22    9      1.16      0.00
    5   22    9     -0.39      0.00
   -8   23    9      1.09      0.00
   -7   23    9     -0.82      0.00
   -6   23    9     -1.08      0.00
   -5   23    9      2.05      0.00
   -4   23    9      2.35      0.00
   -3   23    9      0.71      0.00
   -2   23    9     -0.22      0.00
   -1   23    9     -1.25      0.00
    0   23    9     -1.80      0.00
    1   23    9     -0.80      0.00
    2   23    9      0.45      0.00
    3   23    9     -0.21      0.00
    4   23    9      0.26      0.00
    5   23    9      1.04      0.00
   -8   24    9     -0.88      0.00
   -7   24    9     -2.07      0.00
   -6   24    9     -0.95      0.00
   -5   24    9      0.29      0.00
   -4   24    9     -0.59      0.00
   -3   24    9     -0.49      0.00
   -2   24    9     -0.29      0.00
   -1   24    9      1.55      0.00
    0   24    9     -0.28      0.00
    1   24    9     -2.55      0.00
    2   24    9      0.56      0.00
    3   24    9      1.66      0.00
    4   24    9      1.00      0.00
   -7   25    9     -0.61      0.00
   -6   25    9     -1.42      0.00
   -5   25    9      2.17      0.00
   -4   25    9      2.69      0.00
   -3   25    9      0.45      0.00
   -2   25    9     -1.13      0.00
   -1   25    9     -1.40      0.00
    0   25    9      0.01      0.00
    1   25    9      0.10      0.00
    2   25    9      0.48      0.00
    3   25    9      0.34      0.00
   -6   26    9     -1.27      0.00
   -5   26    9     -0.24      0.00
   -4   26    9     -0.28      0.00
   -3   26    9      0.24      0.00
   -2   26    9      0.58      0.00
   -1   26    9      1.64      0.00
    0   26    9     -0.20      0.00
    1   26    9     -2.15      0.00
    2   26    9      0.63      0.00
    3   26    9      1.49      0.00
   -6   27    9     -1.40      0.00
   -5   27    9      1.52      0.00
   -4   27    9      1.71      0.00
   -3   27    9     -0.39      0.00
   -2   27    9     -1.54      0.00
   -1   27    9     -0.78      0.00
    0   27    9      1.83      0.00
    1   27    9      0.73      0.00
    2   27    9     -0.07      0.00
   -4   28    9      0.21      0.00
   -3   28    9      0.62      0.00
   -2   28    9      0.68      0.00
   -1   28    9      0.91      0.00
    0   28    9      0.21      0.00
  -13    0   10      2.70      0.00
  -12    0   10     -0.88      0.00
  -11    0   10     -3.07      0.00
  -10    0   10     -1.85      0.00
   -9    0   10     -0.12      0.00
   -8    0   10     -0.51      0.00
   -7    0   10     -0.94      0.00
   -6    0   10      0.53      0.00
   -5    0   10     -0.56      0.00
   -4    0   10     -2.34      0.00
   -3    0   10      0.31      0.00
   -2    0   10      1.66      0.00
   -1    0   10     -0.04      0.00
    0    0   10     -0.36      0.00
    1    0   10      0.30      0.00
    2    0   10      0.13      0.00
    3    0   10     -0.65      0.00
    4    0   10      0.88      0.00
    5    0   10     -0.98      0.00
    6    0   10     -2.81      0.00
    7    0   10      2.00      0.00
    8    0   10      1.29      0.00
  -13    1   10     -0.04      0.00
  -12    1   10     -0.34      0.00
  -11    1   10     -0.71      0.00
  -10    1   10     -0.11      0.00
   -9    1   10      0.35      0.00
   -8    1   10     -0.14      0.00
   -7    1   10     -0.18      0.00
   -6    1   10      0.37      0.00
   -5    1   10      0.55      0.00
   -4    1   10     -0.38      0.00
   -3    1   10     -0.89      0.00
   -2    1   10      0.03      0.00
   -1    1   10      0.94      0.00
    0    1   10      1.08      0.00
    1    1   10      0.50      0.00
    2    1   10     -0.19      0.00
    3    1   10     -0.60      0.00
    4    1   10     -0.46      0.00
    5    1   10     -0.27      0.00
    6    1   10     -0.59      0.00
    7    1   10     -0.06      0.00
    8    1   10      0.09      0.00
  -12    2   10     -0.61      0.00
  -11    2   10     -2.28      0.00
  -10    2   10     -1.40      0.00
   -9    2   10      0.17      0.00
   -8    2   10     -0.26      0.00
   -7    2   10     -1.00      0.00
   -6    2   10      0.43      0.00
   -5    2   10     -0.01      0.00
   -4    2   10     -1.38      0.00
   -3    2   10      0.61      0.00
   -2    2   10      1.38      0.00
   -1    2   10     -0.13      0.00
    0    2   10      0.19      0.00
    1    2   10      0.97      0.00
    2    2   10      0.29      0.00
    3    2   10     -1.19      0.00
    4    2   10      0.06      0.00
    5    2   10     -0.91      0.00
    6    2   10     -2.54      0.00
    7    2   10      1.81      0.00
    8    2   10      1.25      0.00
  -12    3   10     -0.67      0.00
  -11    3   10     -1.56      0.00
  -10    3   10     -0.28      0.00
   -9    3   10      0.58      0.00
   -8    3   10     -0.50      0.00
   -7    3   10     -0.38      0.00
   -6    3   10      0.72      0.00
   -5    3   10      1.20      0.00
   -4    3   10     -0.56      0.00
   -3    3   10     -1.43      0.00
   -2    3   10      0.51      0.00
   -1    3   10      1.91      0.00
    0    3   10      2.02      0.00
    1    3   10      1.06      0.00
    2    3   10     -0.25      0.00
    3    3   10     -1.20      0.00
    4    3   10     -1.26      0.00
    5    3   10     -0.73      0.00
    6    3   10     -1.15      0.00
    7    3   10      0.00      0.00
    8    3   10      0.39      0.00
  -12    4   10     -0.36      0.00
  -11    4   10     -0.89      0.00
  -10    4   10     -0.73      0.00
   -9    4   10      0.49      0.00
   -8    4   10      0.02      0.00
   -7    4   10     -1.08      0.00
   -6    4   10      0.37      0.00
   -5    4   10      0.97      0.00
   -4    4   10      0.15      0.00
   -3    4   10      0.83      0.00
   -2    4   10      0.85      0.00
   -1    4   10     -0.28      0.00
    0    4   10      0.80      0.00
    1    4   10      1.58      0.00
    2    4   10      0.16      0.00
    3    4   10     -2.04      0.00
    4    4   10     -1.00      0.00
    5    4   10     -0.33      0.00
    6    4   10     -1.69      0.00
    7    4   10      1.53      0.00
    8    4   10      1.14      0.00
  -12    5   10     -0.44      0.00
  -11    5   10     -1.49      0.00
  -10    5   10     -0.59      0.00
   -9    5   10     -0.24      0.00
   -8    5   10     -0.87      0.00
   -7    5   10     -0.20      0.00
   -6    5   10      0.29      0.00
   -5    5   10      0.70      0.00
   -4    5   10     -0.05      0.00
   -3    5   10     -0.14      0.00
   -2    5   10      1.45      0.00
   -1    5   10      1.34      0.00
    0    5   10      1.19      0.00
    1    5   10      1.32      0.00
    2    5   10      0.45      0.00
    3    5   10     -0.61      0.00
    4    5   10     -1.56      0.00
    5    5   10     -0.87      0.00
    6    5   10     -0.59      0.00
    7    5   10      0.22      0.00
    8    5   10      0.82      0.00
  -12    6   10     -0.52      0.00
  -11    6   10     -0.23      0.00
  -10    6   10     -0.74      0.00
   -9    6   10      0.06      0.00
   -8    6   10     -0.49      0.00
   -7    6   10     -1.08      0.00
   -6    6   10      0.88      0.00
   -5    6   10      1.63      0.00
   -4    6   10      0.48      0.00
   -3    6   10      0.32      0.00
   -2    6   10      0.84      0.00
   -1    6   10      0.02      0.00
    0    6   10      0.36      0.00
    1    6   10      0.69      0.00
    2    6   10     -0.57      0.00
    3    6   10     -1.98      0.00
    4    6   10     -0.53      0.00
    5    6   10      0.67      0.00
    6    6   10     -0.78      0.00
    7    6   10      1.30      0.00
    8    6   10      0.92      0.00
  -12    7   10     -0.18      0.00
  -11    7   10     -1.25      0.00
  -10    7   10     -1.27      0.00
   -9    7   10     -1.48      0.00
   -8    7   10     -0.76      0.00
   -7    7   10      0.25      0.00
   -6    7   10     -0.57      0.00
   -5    7   10     -0.32      0.00
   -4    7   10      0.51      0.00
   -3    7   10      1.06      0.00
   -2    7   10      1.65      0.00
   -1    7   10      0.14      0.00
    0    7   10      0.07      0.00
    1    7   10      1.63      0.00
    2    7   10      1.22      0.00
    3    7   10      0.22      0.00
    4    7   10     -1.34      0.00
    5    7   10     -0.53      0.00
    6    7   10      0.28      0.00
    7    7   10     -0.07      0.00
    8    7   10      0.80      0.00
  -12    8   10     -0.58      0.00
  -11    8   10     -0.22      0.00
  -10    8   10     -1.14      0.00
   -9    8   10     -0.94      0.00
   -8    8   10     -1.76      0.00
   -7    8   10     -1.03      0.00
   -6    8   10      1.81      0.00
   -5    8   10      1.90      0.00
   -4    8   10     -0.19      0.00
   -3    8   10     -0.43      0.00
   -2    8   10      1.56      0.00
   -1    8   10      1.01      0.00
    0    8   10     -0.25      0.00
    1    8   10     -0.23      0.00
    2    8   10     -0.76      0.00
    3    8   10     -0.91      0.00
    4    8   10      0.90      0.00
    5    8   10      0.95      0.00
    6    8   10     -0.63      0.00
    7    8   10      1.00      0.00
    8    8   10      0.48      0.00
  -12    9   10     -0.44      0.00
  -11    9   10     -1.09      0.00
  -10    9   10     -1.65      0.00
   -9    9   10     -1.77      0.00
   -8    9   10      0.17      0.00
   -7    9   10      0.61      0.00
   -6    9   10     -1.06      0.00
   -5    9   10     -0.37      0.00
   -4    9   10      1.12      0.00
   -3    9   10      0.89      0.00
   -2    9   10      0.67      0.00
   -1    9   10     -0.65      0.00
    0    9   10     -0.57      0.00
    1    9   10      1.29      0.00
    2    9   10      0.75      0.00
    3    9   10     -0.15      0.00
    4    9   10     -1.04      0.00
    5    9   10      0.12      0.00
    6    9   10      0.42      0.00
    7    9   10     -1.13      0.00
    8    9   10      0.08      0.00
  -12   10   10     -0.51      0.00
  -11   10   10     -0.52      0.00
  -10   10   10     -1.16      0.00
   -9   10   10     -1.36      0.00
   -8   10   10     -2.44      0.00
   -7   10   10     -0.82      0.00
   -6   10   10      2.01      0.00
   -5   10   10      1.46      0.00
   -4   10   10     -0.86      0.00
   -3   10   10     -0.82      0.00
   -2   10   10      2.05      0.00
   -1   10   10      1.93      0.00
    0   10   10      0.01      0.00
    1   10   10      0.39      0.00
    2   10   10      0.08      0.00
    3   10   10     -0.10      0.00
    4   10   10      1.51      0.00
    5   10   10      0.30      0.00
    6   10   10     -0.86      0.00
    7   10   10      0.80      0.00
    8   10   10      0.02      0.00
  -12   11   10     -0.77      0.00
  -11   11   10     -0.47      0.00
  -10   11   10     -1.04      0.00
   -9   11   10     -0.77      0.00
   -8   11   10      1.32      0.00
   -7   11   10      0.46      0.00
   -6   11   10     -1.06      0.00
   -5   11   10      0.60      0.00
   -4   11   10      1.69      0.00
   -3   11   10     -0.01      0.00
   -2   11   10     -0.28      0.00
   -1   11   10     -0.39      0.00
    0   11   10     -0.70      0.00
    1   11   10      0.43      0.00
    2   11   10     -0.12      0.00
    3   11   10     -1.16      0.00
    4   11   10     -0.79      0.00
    5   11   10      0.88      0.00
    6   11   10     -0.04      0.00
    7   11   10     -1.99      0.00
  -11   12   10     -1.15      0.00
  -10   12   10     -0.63      0.00
   -9   12   10     -0.52      0.00
   -8   12   10     -1.29      0.00
   -7   12   10     -0.05      0.00
   -6   12   10      0.99      0.00
   -5   12   10      0.34      0.00
   -4   12   10     -0.77      0.00
   -3   12   10     -0.53      0.00
   -2   12   10      1.75      0.00
   -1   12   10      1.99      0.00
    0   12   10      0.57      0.00
    1   12   10      1.28      0.00
    2   12   10      0.62      0.00
    3   12   10     -0.52      0.00
    4   12   10      0.74      0.00
    5   12   10     -0.33      0.00
    6   12   10     -0.72      0.00
    7   12   10      0.71      0.00
  -11   13   10      0.51      0.00
  -10   13   10     -0.12      0.00
   -9   13   10      0.35      0.00
   -8   13   10      1.76      0.00
   -7   13   10     -0.06      0.00
   -6   13   10     -1.04      0.00
   -5   13   10      1.01      0.00
   -4   13   10      1.42      0.00
   -3   13   10     -0.71      0.00
   -2   13   10     -0.11      0.00
   -1   13   10      0.73      0.00
    0   13   10     -0.32      0.00
    1   13   10      0.28      0.00
    2   13   10      0.46      0.00
    3   13   10     -1.30      0.00
    4   13   10     -0.71      0.00
    5   13   10      1.32      0.00
    6   13   10     -0.30      0.00
    7   13   10     -1.62      0.00
  -11   14   10     -1.44      0.00
  -10   14   10      0.14      0.00
   -9   14   10      0.68      0.00
   -8   14   10      0.84      0.00
   -7   14   10      1.20      0.00
   -6   14   10     -0.17      0.00
   -5   14   10     -0.46      0.00
   -4   14   10      0.24      0.00
   -3   14   10      0.38      0.00
   -2   14   10      1.18      0.00
   -1   14   10      1.46      0.00
    0   14   10      0.48      0.00
    1   14   10      0.73      0.00
    2   14   10      0.11      0.00
    3   14   10     -1.23      0.00
    4   14   10     -0.39      0.00
    5   14   10     -0.48      0.00
    6   14   10     -0.52      0.00
    7   14   10      0.24      0.00
  -11   15   10      0.85      0.00
  -10   15   10      0.05      0.00
   -9   15   10      0.58      0.00
   -8   15   10      1.29      0.00
   -7   15   10     -0.40      0.00
   -6   15   10     -1.06      0.00
   -5   15   10      0.34      0.00
   -4   15   10      0.47      0.00
   -3   15   10     -0.66      0.00
   -2   15   10      0.81      0.00
   -1   15   10      1.43      0.00
    0   15   10     -0.09      0.00
    1   15   10      0.61      0.00
    2   15   10      1.75      0.00
    3   15   10     -0.80      0.00
    4   15   10     -1.21      0.00
    5   15   10      0.98      0.00
    6   15   10     -0.19      0.00
  -10   16   10      0.71      0.00
   -9   16   10      0.94      0.00
   -8   16   10      2.01      0.00
   -7   16   10      2.02      0.00
   -6   16   10     -0.65      0.00
   -5   16   10     -0.68      0.00
   -4   16   10      1.07      0.00
   -3   16   10      0.87      0.00
   -2   16   10      0.52      0.00
   -1   16   10      0.67      0.00
    0   16   10     -0.27      0.00
    1   16   10     -0.63      0.00
    2   16   10     -0.29      0.00
    3   16   10     -0.70      0.00
    4   16   10     -0.74      0.00
    5   16   10     -0.36      0.00
    6   16   10     -0.53      0.00
  -10   17   10     -0.32      0.00
   -9   17   10      0.22      0.00
   -8   17   10      0.31      0.00
   -7   17   10     -0.53      0.00
   -6   17   10     -0.87      0.00
   -5   17   10     -0.19      0.00
   -4   17   10      0.12      0.00
   -3   17   10      0.16      0.00
   -2   17   10      1.45      0.00
   -1   17   10      0.94      0.00
    0   17   10     -0.39      0.00
    1   17   10      0.50      0.00
    2   17   10      1.88      0.00
    3   17   10     -0.56      0.00
    4   17   10     -1.83      0.00
    5   17   10      0.25      0.00
    6   17   10      0.03      0.00
  -10   18   10      0.61      0.00
   -9   18   10      0.28      0.00
   -8   18   10      1.79      0.00
   -7   18   10      1.93      0.00
   -6   18   10     -0.79      0.00
   -5   18   10     -1.06      0.00
   -4   18   10      0.77      0.00
   -3   18   10      0.38      0.00
   -2   18   10     -0.24      0.00
   -1   18   10     -0.21      0.00
    0   18   10     -0.96      0.00
    1   18   10     -1.11      0.00
    2   18   10      0.12      0.00
    3   18   10      0.56      0.00
    4   18   10     -0.47      0.00
    5   18   10     -0.12      0.00
    6   18   10     -0.14      0.00
   -9   19   10     -0.01      0.00
   -8   19   10     -0.58      0.00
   -7   19   10     -0.77      0.00
   -6   19   10     -0.48      0.00
   -5   19   10     -0.01      0.00
   -4   19   10      0.30      0.00
   -3   19   10      0.70      0.00
   -2   19   10      1.28      0.00
   -1   19   10      0.18      0.00
    0   19   10     -0.21      0.00
    1   19   10      0.54      0.00
    2   19   10      1.15      0.00
    3   19   10     -0.33      0.00
    4   19   10     -1.53      0.00
    5   19   10      0.04      0.00
   -9   20   10     -0.16      0.00
   -8   20   10      1.41      0.00
   -7   20   10      1.49      0.00
   -6   20   10     -0.86      0.00
   -5   20   10     -1.46      0.00
   -4   20   10      0.40      0.00
   -3   20   10      0.19      0.00
   -2   20   10     -0.31      0.00
   -1   20   10     -0.61      0.00
    0   20   10     -0.86      0.00
    1   20   10     -0.19      0.00
    2   20   10      0.52      0.00
    3   20   10      0.66      0.00
    4   20   10     -0.55      0.00
    5   20   10      0.06      0.00
   -8   21   10     -0.75      0.00
   -7   21   10     -0.84      0.00
   -6   21   10     -0.08      0.00
   -5   21   10      0.11      0.00
   -4   21   10     -0.32      0.00
   -3   21   10      0.01      0.00
   -2   21   10      0.56      0.00
   -1   21   10      0.11      0.00
    0   21   10      0.69      0.00
    1   21   10      1.17      0.00
    2   21   10      0.57      0.00
    3   21   10     -0.18      0.00
    4   21   10     -0.81      0.00
   -8   22   10      1.45      0.00
   -7   22   10      1.26      0.00
   -6   22   10     -0.60      0.00
   -5   22   10     -0.99      0.00
   -4   22   10      1.09      0.00
   -3   22   10      0.85      0.00
   -2   22   10      0.21      0.00
   -1   22   10     -0.39      0.00
    0   22   10     -0.05      0.00
    1   22   10      1.30      0.00
    2   22   10      0.47      0.00
    3   22   10     -0.46      0.00
    4   22   10     -0.92      0.00
   -7   23   10     -0.59      0.00
   -6   23   10      0.18      0.00
   -5   23   10     -0.22      0.00
   -4   23   10     -1.48      0.00
   -3   23   10     -0.95      0.00
   -2   23   10      0.17      0.00
   -1   23   10      0.45      0.00
    0   23   10      0.99      0.00
    1   23   10      1.31      0.00
    2   23   10      0.10      0.00
    3   23   10     -0.63      0.00
   -7   24   10      1.13      0.00
   -6   24   10     -0.11      0.00
   -5   24   10      0.09      0.00
   -4   24   10      1.87      0.00
   -3   24   10      0.87      0.00
   -2   24   10     -0.06      0.00
   -1   24   10     -0.30      0.00
    0   24   10      0.50      0.00
    1   24   10      1.99      0.00
    2   24   10      0.29      0.00
   -6   25   10      0.18      0.00
   -5   25   10     -0.44      0.00
   -4   25   10     -1.66      0.00
   -3   25   10     -0.71      0.00
   -2   25   10      0.41      0.00
   -1   25   10      0.49      0.00
    0   25   10      0.12      0.00
    1   25   10      0.63      0.00
   -4   26   10      1.67      0.00
   -3   26   10     -0.12      0.00
   -2   26   10     -1.04      0.00
   -1   26   10     -0.41      0.00
    0   26   10      0.28      0.00
  -12    0   11      1.77      0.00
  -11    0   11      1.49      0.00
  -10    0   11      0.33      0.00
   -9    0   11      0.64      0.00
   -8    0   11      0.32      0.00
   -7    0   11      0.03      0.00
   -6    0   11      0.51      0.00
   -5    0   11      0.16      0.00
   -4    0   11      0.65      0.00
   -3    0   11      0.33      0.00
   -2    0   11     -1.10      0.00
   -1    0   11      0.04      0.00
    0    0   11      0.23      0.00
    1    0   11     -0.37      0.00
    2    0   11      0.18      0.00
    3    0   11     -0.59      0.00
    4    0   11     -0.75      0.00
    5    0   11      0.69      0.00
    6    0   11     -0.15      0.00
    7    0   11     -1.78      0.00
  -12    1   11      0.31      0.00
  -11    1   11      0.60      0.00
  -10    1   11      0.08      0.00
   -9    1   11     -0.59      0.00
   -8    1   11      0.01      0.00
   -7    1   11      0.13      0.00
   -6    1   11     -0.30      0.00
   -5    1   11     -0.30      0.00
   -4    1   11      0.23      0.00
   -3    1   11      0.71      0.00
   -2    1   11      0.13      0.00
   -1    1   11     -0.66      0.00
    0    1   11     -0.91      0.00
    1    1   11     -0.48      0.00
    2    1   11      0.30      0.00
    3    1   11      0.50      0.00
    4    1   11      0.16      0.00
    5    1   11      0.43      0.00
    6    1   11      0.94      0.00
    7    1   11      0.05      0.00
  -12    2   11      1.54      0.00
  -11    2   11      0.84      0.00
  -10    2   11     -0.13      0.00
   -9    2   11      0.24      0.00
   -8    2   11      0.09      0.00
   -7    2   11      0.18      0.00
   -6    2   11      0.47      0.00
   -5    2   11     -0.35      0.00
   -4    2   11     -0.14      0.00
   -3    2   11      0.03      0.00
   -2    2   11     -0.76      0.00
   -1    2   11      0.16      0.00
    0    2   11     -0.48      0.00
    1    2   11     -1.23      0.00
    2    2   11      0.11      0.00
    3    2   11      0.16      0.00
    4    2   11      0.14      0.00
    5    2   11      0.76      0.00
    6    2   11     -0.25      0.00
    7    2   11     -1.43      0.00
  -12    3   11      0.47      0.00
  -11    3   11      1.37      0.00
  -10    3   11      0.34      0.00
   -9    3   11     -1.25      0.00
   -8    3   11      0.09      0.00
   -7    3   11      0.20      0.00
   -6    3   11     -0.71      0.00
   -5    3   11     -0.69      0.00
   -4    3   11      0.15      0.00
   -3    3   11      0.94      0.00
   -2    3   11     -0.14      0.00
   -1    3   11     -1.29      0.00
    0    3   11     -1.71      0.00
    1    3   11     -1.25      0.00
    2    3   11      0.49      0.00
    3    3   11      1.10      0.00
    4    3   11      0.43      0.00
    5    3   11      1.16      0.00
    6    3   11      2.07      0.00
    7    3   11     -0.17      0.00
  -12    4   11      1.32      0.00
  -11    4   11     -0.18      0.00
  -10    4   11     -0.65      0.00
   -9    4   11     -0.32      0.00
   -8    4   11     -0.16      0.00
   -7    4   11      0.61      0.00
   -6    4   11      0.29      0.00
   -5    4   11     -1.36      0.00
   -4    4   11     -1.49      0.00
   -3    4   11     -0.31      0.00
   -2    4   11     -0.06      0.00
   -1    4   11      0.44      0.00
    0    4   11     -1.35      0.00
    1    4   11     -2.23      0.00
    2    4   11      0.43      0.00
    3    4   11      1.57      0.00
    4    4   11      1.44      0.00
    5    4   11      0.45      0.00
    6    4   11     -0.69      0.00
    7    4   11     -0.79      0.00
  -12    5   11     -0.13      0.00
  -11    5   11      1.42      0.00
  -10    5   11      0.93      0.00
   -9    5   11     -0.65      0.00
   -8    5   11      0.27      0.00
   -7    5   11     -0.05      0.00
   -6    5   11     -0.58      0.00
   -5    5   11     -0.37      0.00
   -4    5   11     -0.42      0.00
   -3    5   11     -0.30      0.00
   -2    5   11     -0.90      0.00
   -1    5   11     -0.61      0.00
    0    5   11     -0.98      0.00
    1    5   11     -1.98      0.00
    2    5   11     -0.19      0.00
    3    5   11      0.82      0.00
    4    5   11      0.30      0.00
    5    5   11      1.31      0.00
    6    5   11      1.79      0.00
    7    5   11     -0.68      0.00
  -11    6   11     -0.47      0.00
  -10    6   11     -0.28      0.00
   -9    6   11     -0.13      0.00
   -8    6   11      0.30      0.00
   -7    6   11      1.22      0.00
   -6    6   11     -0.20      0.00
   -5    6   11     -2.16      0.00
   -4    6   11     -1.95      0.00
   -3    6   11     -0.08      0.00
   -2    6   11      0.24      0.00
   -1    6   11      0.42      0.00
    0    6   11     -1.02      0.00
    1    6   11     -1.65      0.00
    2    6   11      1.18      0.00
    3    6   11      2.09      0.00
    4    6   11      1.20      0.00
    5    6   11     -0.51      0.00
    6    6   11     -1.20      0.00
    7    6   11     -0.37      0.00
  -11    7   11      1.26      0.00
  -10    7   11      1.82      0.00
   -9    7   11      0.74      0.00
   -8    7   11      0.26      0.00
   -7    7   11     -0.41      0.00
   -6    7   11      0.11      0.00
   -5    7   11      0.40      0.00
   -4    7   11     -0.70      0.00
   -3    7   11     -1.11      0.00
   -2    7   11     -0.90      0.00
   -1    7   11      0.66      0.00
    0    7   11      0.10      0.00
    1    7   11     -2.69      0.00
    2    7   11     -1.05      0.00
    3    7   11      0.32      0.00
    4    7   11     -0.23      0.00
    5    7   11      0.69      0.00
    6    7   11      0.83      0.00
    7    7   11     -0.60      0.00
  -11    8   11     -0.36      0.00
  -10    8   11      0.43      0.00
   -9    8   11      0.51      0.00
   -8    8   11      1.34      0.00
   -7    8   11      1.77      0.00
   -6    8   11     -0.76      0.00
   -5    8   11     -2.46      0.00
   -4    8   11     -1.49      0.00
   -3    8   11      0.62      0.00
   -2    8   11     -0.04      0.00
   -1    8   11     -0.40      0.00
    0    8   11     -0.41      0.00
    1    8   11     -0.69      0.00
    2    8   11      1.21      0.00
    3    8   11      1.27      0.00
    4    8   11     -0.25      0.00
    5    8   11     -1.17      0.00
    6    8   11     -1.21      0.00
    7    8   11     -0.23      0.00
  -11    9   11      0.93      0.00
  -10    9   11      2.04      0.00
   -9    9   11      1.51      0.00
   -8    9   11     -0.33      0.00
   -7    9   11     -0.66      0.00
   -6    9   11      0.74      0.00
   -5    9   11      0.45      0.00
   -4    9   11     -1.02      0.00
   -3    9   11     -0.78      0.00
   -2    9   11     -0.02      0.00
   -1    9   11      1.35      0.00
    0    9   11      0.64      0.00
    1    9   11     -2.52      0.00
    2    9   11     -0.77      0.00
    3    9   11      0.76      0.00
    4    9   11     -0.52      0.00
    5    9   11     -0.21      0.00
    6    9   11      0.36      0.00
  -11   10   11     -0.20      0.00
  -10   10   11      0.51      0.00
   -9   10   11      0.58      0.00
   -8   10   11      1.80      0.00
   -7   10   11      1.68      0.00
   -6   10   11     -0.83      0.00
   -5   10   11     -1.98      0.00
   -4   10   11     -0.85      0.00
   -3   10   11      1.33      0.00
   -2   10   11     -0.16      0.00
   -1   10   11     -1.55      0.00
    0   10   11     -0.64      0.00
    1   10   11     -0.70      0.00
    2   10   11      0.32      0.00
    3   10   11      0.30      0.00
    4   10   11     -1.05      0.00
    5   10   11     -0.84      0.00
    6   10   11     -0.88      0.00
  -11   11   11      0.01      0.00
  -10   11   11      0.99      0.00
   -9   11   11      1.05      0.00
   -8   11   11     -1.17      0.00
   -7   11   11     -0.68      0.00
   -6   11   11      0.89      0.00
   -5   11   11     -0.35      0.00
   -4   11   11     -1.58      0.00
   -3   11   11     -0.13      0.00
   -2   11   11      0.67      0.00
   -1   11   11      0.80      0.00
    0   11   11      0.43      0.00
    1   11   11     -1.56      0.00
    2   11   11      0.14      0.00
    3   11   11      1.63      0.00
    4   11   11     -0.42      0.00
    5   11   11     -0.89      0.00
    6   11   11      0.53      0.00
  -11   12   11      0.35      0.00
  -10   12   11      0.00      0.00
   -9   12   11     -0.19      0.00
   -8   12   11      0.95      0.00
   -7   12   11      0.48      0.00
   -6   12   11     -0.43      0.00
   -5   12   11     -0.93      0.00
   -4   12   11     -0.80      0.00
   -3   12   11      1.37      0.00
   -2   12   11      0.12      0.00
   -1   12   11     -2.20      0.00
    0   12   11     -1.15      0.00
    1   12   11     -0.75      0.00
    2   12   11     -0.10      0.00
    3   12   11      0.23      0.00
    4   12   11     -0.47      0.00
    5   12   11      0.05      0.00
    6   12   11     -0.70      0.00
  -10   13   11     -0.38      0.00
   -9   13   11      0.31      0.00
   -8   13   11     -1.35      0.00
   -7   13   11     -0.50      0.00
   -6   13   11      0.68      0.00
   -5   13   11     -0.63      0.00
   -4   13   11     -1.36      0.00
   -3   13   11      0.41      0.00
   -2   13   11      0.61      0.00
   -1   13   11     -0.45      0.00
    0   13   11     -0.39      0.00
    1   13   11     -1.00      0.00
    2   13   11      0.12      0.00
    3   13   11      1.53      0.00
    4   13   11     -0.27      0.00
    5   13   11     -1.04      0.00
    6   13   11      0.73      0.00
  -10   14   11     -0.66      0.00
   -9   14   11     -0.89      0.00
   -8   14   11     -0.24      0.00
   -7   14   11     -1.28      0.00
   -6   14   11     -0.33      0.00
   -5   14   11     -0.17      0.00
   -4   14   11     -1.45      0.00
   -3   14   11      0.57      0.00
   -2   14   11      0.32      0.00
   -1   14   11     -2.19      0.00
    0   14   11     -1.06      0.00
    1   14   11      0.14      0.00
    2   14   11      0.31      0.00
    3   14   11      0.33      0.00
    4   14   11      0.48      0.00
    5   14   11      0.85      0.00
  -10   15   11     -0.87      0.00
   -9   15   11      0.19      0.00
   -8   15   11     -0.48      0.00
   -7   15   11     -0.26      0.00
   -6   15   11      0.16      0.00
   -5   15   11     -0.06      0.00
   -4   15   11     -0.32      0.00
   -3   15   11      0.52      0.00
   -2   15   11      0.13      0.00
   -1   15   11     -1.15      0.00
    0   15   11     -0.98      0.00
    1   15   11     -0.83      0.00
    2   15   11     -0.44      0.00
    3   15   11      0.68      0.00
    4   15   11     -0.04      0.00
    5   15   11     -0.44      0.00
   -9   16   11     -0.76      0.00
   -8   16   11     -0.40      0.00
   -7   16   11     -2.22      0.00
   -6   16   11     -0.69      0.00
   -5   16   11      0.10      0.00
   -4   16   11     -1.77      0.00
   -3   16   11     -0.02      0.00
   -2   16   11      0.49      0.00
   -1   16   11     -1.59      0.00
    0   16   11     -0.33      0.00
    1   16   11      1.17      0.00
    2   16   11      0.48      0.00
    3   16   11     -0.42      0.00
    4   16   11      0.66      0.00
    5   16   11      1.19      0.00
   -9   17   11      0.42      0.00
   -8   17   11      0.94      0.00
   -7   17   11      0.17      0.00
   -6   17   11     -0.61      0.00
   -5   17   11      0.18      0.00
   -4   17   11      0.12      0.00
   -3   17   11     -0.22      0.00
   -2   17   11     -0.45      0.00
   -1   17   11     -0.90      0.00
    0   17   11     -0.88      0.00
    1   17   11     -0.38      0.00
    2   17   11     -0.20      0.00
    3   17   11      0.12      0.00
    4   17   11      0.11      0.00
   -9   18   11     -0.17      0.00
   -8   18   11      0.31      0.00
   -7   18   11     -1.78      0.00
   -6   18   11     -0.90      0.00
   -5   18   11      0.41      0.00
   -4   18   11     -1.07      0.00
   -3   18   11      0.21      0.00
   -2   18   11      0.66      0.00
   -1   18   11     -0.79      0.00
    0   18   11      0.41      0.00
    1   18   11      1.25      0.00
    2   18   11      0.11      0.00
    3   18   11     -1.18      0.00
    4   18   11      0.36      0.00
   -8   19   11      1.90      0.00
   -7   19   11      0.76      0.00
   -6   19   11     -1.20      0.00
   -5   19   11     -0.30      0.00
   -4   19   11     -0.13      0.00
   -3   19   11     -0.94      0.00
   -2   19   11     -0.59      0.00
   -1   19   11     -0.36      0.00
    0   19   11     -0.79      0.00
    1   19   11     -0.13      0.00
    2   19   11      0.46      0.00
    3   19   11     -0.10      0.00
    4   19   11     -0.26      0.00
   -8   20   11      0.63      0.00
   -7   20   11     -0.80      0.00
   -6   20   11     -0.74      0.00
   -5   20   11      0.66      0.00
   -4   20   11     -0.38      0.00
   -3   20   11      0.15      0.00
   -2   20   11      0.11      0.00
   -1   20   11     -0.60      0.00
    0   20   11      0.42      0.00
    1   20   11      0.27      0.00
    2   20   11     -0.16      0.00
    3   20   11     -0.70      0.00
   -7   21   11      0.92      0.00
   -6   21   11     -1.33      0.00
   -5   21   11     -0.59      0.00
   -4   21   11      0.24      0.00
   -3   21   11     -0.42      0.00
   -2   21   11     -0.04      0.00
   -1   21   11     -0.21      0.00
    0   21   11     -1.13      0.00
    1   21   11     -0.44      0.00
    2   21   11      0.71      0.00
   -6   22   11     -0.65      0.00
   -5   22   11      0.30      0.00
   -4   22   11     -0.65      0.00
   -3   22   11     -0.59      0.00
   -2   22   11     -0.85      0.00
   -1   22   11     -0.96      0.00
    0   22   11     -0.19      0.00
    1   22   11     -1.04      0.00
    2   22   11     -0.31      0.00
   -5   23   11     -0.36      0.00
   -4   23   11      1.11      0.00
   -3   23   11      0.61      0.00
   -2   23   11      0.48      0.00
   -1   23   11     -0.47      0.00
    0   23   11     -1.24      0.00
    1   23   11     -0.56      0.00
   -4   24   11     -1.13      0.00
   -3   24   11     -0.78      0.00
   -2   24   11     -0.75      0.00
   -1   24   11     -0.76      0.00
  -11    0   12     -0.83      0.00
  -10    0   12     -1.64      0.00
   -9    0   12     -1.25      0.00
   -8    0   12      0.85      0.00
   -7    0   12      1.75      0.00
   -6    0   12     -0.61      0.00
   -5    0   12     -1.14      0.00
   -4    0   12     -0.13      0.00
   -3    0   12     -0.47      0.00
   -2    0   12      0.33      0.00
   -1    0   12      0.76      0.00
    0    0   12      0.33      0.00
    1    0   12      0.13      0.00
    2    0   12     -0.35      0.00
    3    0   12     -0.16      0.00
    4    0   12      1.78      0.00
    5    0   12      2.48      0.00
    6    0   12     -0.16      0.00
  -11    1   12     -0.39      0.00
  -10    1   12     -0.10      0.00
   -9    1   12      0.59      0.00
   -8    1   12      0.22      0.00
   -7    1   12     -0.07      0.00
   -6    1   12      0.20      0.00
   -5    1   12     -0.05      0.00
   -4    1   12     -0.26      0.00
   -3    1   12     -0.52      0.00
   -2    1   12     -0.32      0.00
   -1    1   12      0.51      0.00
    0    1   12      0.75      0.00
    1    1   12      0.29      0.00
    2    1   12     -0.19      0.00
    3    1   12     -0.31      0.00
    4    1   12     -0.13      0.00
    5    1   12     -0.38      0.00
    6    1   12     -0.89      0.00
  -11    2   12     -0.31      0.00
  -10    2   12     -1.16      0.00
   -9    2   12     -0.91      0.00
   -8    2   12      1.01      0.00
   -7    2   12      1.59      0.00
   -6    2   12     -0.47      0.00
   -5    2   12     -0.71      0.00
   -4    2   12      0.34      0.00
   -3    2   12     -0.12      0.00
   -2    2   12      0.22      0.00
   -1    2   12      0.57      0.00
    0    2   12      0.77      0.00
    1    2   12      0.91      0.00
    2    2   12     -0.16      0.00
    3    2   12     -0.82      0.00
    4    2   12      0.80      0.00
    5    2   12      2.20      0.00
    6    2   12     -0.12      0.00
  -11    3   12     -0.86      0.00
  -10    3   12     -0.40      0.00
   -9    3   12      1.31      0.00
   -8    3   12      0.59      0.00
   -7    3   12      0.03      0.00
   -6    3   12      0.63      0.00
   -5    3   12      0.00      0.00
   -4    3   12     -0.20      0.00
   -3    3   12     -0.56      0.00
   -2    3   12     -0.27      0.00
   -1    3   12      1.21      0.00
    0    3   12      1.55      0.00
    1    3   12      0.74      0.00
    2    3   12     -0.21      0.00
    3    3   12     -0.63      0.00
    4    3   12     -0.41      0.00
    5    3   12     -1.06      0.00
    6    3   12     -1.99      0.00
  -11    4   12      0.45      0.00
  -10    4   12     -0.52      0.00
   -9    4   12     -0.48      0.00
   -8    4   12      1.12      0.00
   -7    4   12      1.12      0.00
   -6    4   12     -0.10      0.00
   -5    4   12      0.17      0.00
   -4    4   12      1.12      0.00
   -3    4   12      0.53      0.00
   -2    4   12      0.09      0.00
   -1    4   12      0.08      0.00
    0    4   12      1.08      0.00
    1    4   12      1.77      0.00
    2    4   12     -0.11      0.00
    3    4   12     -2.06      0.00
    4    4   12     -0.84      0.00
    5    4   12      1.97      0.00
    6    4   12      0.17      0.00
  -11    5   12     -0.83      0.00
  -10    5   12     -1.02      0.00
   -9    5   12      0.89      0.00
   -8    5   12      0.67      0.00
   -7    5   12      0.39      0.00
   -6    5   12      0.80      0.00
   -5    5   12     -0.01      0.00
   -4    5   12      0.36      0.00
   -3    5   12      0.40      0.00
   -2    5   12      0.35      0.00
   -1    5   12      1.16      0.00
    0    5   12      1.21      0.00
    1    5   12      1.21      0.00
    2    5   12      0.50      0.00
    3    5   12     -0.24      0.00
    4    5   12     -0.39      0.00
    5    5   12     -1.27      0.00
    6    5   12     -1.67      0.00
  -10    6   12     -0.61      0.00
   -9    6   12     -0.71      0.00
   -8    6   12      0.61      0.00
   -7    6   12      0.38      0.00
   -6    6   12      0.30      0.00
   -5    6   12      0.79      0.00
   -4    6   12      1.31      0.00
   -3    6   12      0.86      0.00
   -2    6   12      0.25      0.00
   -1    6   12     -0.21      0.00
    0    6   12      0.38      0.00
    1    6   12      1.18      0.00
    2    6   12     -0.42      0.00
    3    6   12     -2.50      0.00
    4    6   12     -1.13      0.00
    5    6   12      2.46      0.00
  -10    7   12     -1.79      0.00
   -9    7   12     -0.31      0.00
   -8    7   12      0.52      0.00
   -7    7   12      0.65      0.00
   -6    7   12      0.39      0.00
   -5    7   12     -0.37      0.00
   -4    7   12      0.45      0.00
   -3    7   12      0.64      0.00
   -2    7   12      0.26      0.00
   -1    7   12      0.47      0.00
    0    7   12      0.44      0.00
    1    7   12      1.54      0.00
    2    7   12      1.36      0.00
    3    7   12      0.42      0.00
    4    7   12     -0.07      0.00
    5    7   12     -0.84      0.00
  -10    8   12     -0.85      0.00
   -9    8   12     -1.17      0.00
   -8    8   12     -0.31      0.00
   -7    8   12     -0.34      0.00
   -6    8   12      0.54      0.00
   -5    8   12      0.87      0.00
   -4    8   12      0.84      0.00
   -3    8   12      0.57      0.00
   -2    8   12      0.51      0.00
   -1    8   12      0.26      0.00
    0    8   12     -0.27      0.00
    1    8   12      0.19      0.00
    2    8   12     -0.26      0.00
    3    8   12     -1.63      0.00
    4    8   12     -0.08      0.00
    5    8   12      2.97      0.00
  -10    9   12     -1.81      0.00
   -9    9   12     -0.95      0.00
   -8    9   12      0.58      0.00
   -7    9   12      0.68      0.00
   -6    9   12     -0.17      0.00
   -5    9   12     -0.41      0.00
   -4    9   12      0.44      0.00
   -3    9   12      0.08      0.00
   -2    9   12     -0.52      0.00
   -1    9   12     -0.06      0.00
    0    9   12     -0.03      0.00
    1    9   12      1.15      0.00
    2    9   12      1.20      0.00
    3    9   12      0.38      0.00
    4    9   12     -0.10      0.00
    5    9   12     -0.29      0.00
  -10   10   12     -0.57      0.00
   -9   10   12     -0.94      0.00
   -8   10   12     -0.73      0.00
   -7   10   12     -0.39      0.00
   -6   10   12      0.56      0.00
   -5   10   12      0.39      0.00
   -4   10   12      0.19      0.00
   -3   10   12     -0.19      0.00
   -2   10   12      0.33      0.00
   -1   10   12      1.18      0.00
    0   10   12      0.08      0.00
    1   10   12     -0.04      0.00
    2   10   12      0.42      0.00
    3   10   12     -0.49      0.00
    4   10   12      0.74      0.00
    5   10   12      2.58      0.00
  -10   11   12     -0.70      0.00
   -9   11   12     -0.42      0.00
   -8   11   12      0.90      0.00
   -7   11   12      0.60      0.00
   -6   11   12     -0.31      0.00
   -5   11   12      0.11      0.00
   -4   11   12      0.79      0.00
   -3   11   12     -0.27      0.00
   -2   11   12     -0.99      0.00
   -1   11   12      0.17      0.00
    0   11   12      0.20      0.00
    1   11   12      0.32      0.00
    2   11   12      0.37      0.00
    3   11   12     -0.13      0.00
    4   11   12     -0.56      0.00
    5   11   12     -0.06      0.00
   -9   12   12     -0.10      0.00
   -8   12   12     -0.24      0.00
   -7   12   12      0.58      0.00
   -6   12   12      0.71      0.00
   -5   12   12     -0.19      0.00
   -4   12   12     -0.06      0.00
   -3   12   12     -0.62      0.00
   -2   12   12     -0.06      0.00
   -1   12   12      1.86      0.00
    0   12   12      0.71      0.00
    1   12   12     -0.22      0.00
    2   12   12      0.58      0.00
    3   12   12      0.01      0.00
    4   12   12      0.49      0.00
   -9   13   12      0.42      0.00
   -8   13   12      0.94      0.00
   -7   13   12      0.46      0.00
   -6   13   12      0.03      0.00
   -5   13   12      0.35      0.00
   -4   13   12      0.63      0.00
   -3   13   12     -0.50      0.00
   -2   13   12     -1.06      0.00
   -1   13   12      0.73      0.00
    0   13   12      0.97      0.00
    1   13   12     -0.01      0.00
    2   13   12      0.14      0.00
    3   13   12      0.01      0.00
    4   13   12     -0.77      0.00
   -9   14   12      0.47      0.00
   -8   14   12      0.32      0.00
   -7   14   12      1.81      0.00
   -6   14   12      1.27      0.00
   -5   14   12     -0.27      0.00
   -4   14   12      0.23      0.00
   -3   14   12     -0.28      0.00
   -2   14   12     -0.04      0.00
   -1   14   12      1.98      0.00
    0   14   12      0.64      0.00
    1   14   12     -0.93      0.00
    2   14   12      0.20      0.00
    3   14   12      0.38      0.00
    4   14   12     -0.06      0.00
   -8   15   12      0.29      0.00
   -7   15   12      0.17      0.00
   -6   15   12      0.63      0.00
   -5   15   12      0.16      0.00
   -4   15   12     -0.12      0.00
   -3   15   12     -0.73      0.00
   -2   15   12     -1.04      0.00
   -1   15   12      0.90      0.00
    0   15   12      1.53      0.00
    1   15   12      0.03      0.00
    2   15   12      0.29      0.00
    3   15   12      0.61      0.00
   -8   16   12      0.09      0.00
   -7   16   12      2.07      0.00
   -6   16   12      1.80      0.00
   -5   16   12      0.04      0.00
   -4   16   12      0.38      0.00
   -3   16   12      0.08      0.00
   -2   16   12      0.12      0.00
   -1   16   12      1.46      0.00
    0   16   12     -0.12      0.00
    1   16   12     -1.55      0.00
    2   16   12      0.16      0.00
    3   16   12      1.17      0.00
   -8   17   12     -0.69      0.00
   -7   17   12     -0.38      0.00
   -6   17   12      1.15      0.00
   -5   17   12      0.39      0.00
   -4   17   12     -0.13      0.00
   -3   17   12     -0.32      0.00
   -2   17   12     -0.75      0.00
   -1   17   12      0.66      0.00
    0   17   12      1.43      0.00
    1   17   12     -0.23      0.00
    2   17   12     -0.07      0.00
   -7   18   12      1.19      0.00
   -6   18   12      1.63      0.00
   -5   18   12      0.12      0.00
   -4   18   12     -0.02      0.00
   -3   18   12      0.02      0.00
   -2   18   12      0.22      0.00
   -1   18   12      0.76      0.00
    0   18   12     -0.81      0.00
    1   18   12     -1.49      0.00
    2   18   12      0.36      0.00
   -6   19   12      1.14      0.00
   -5   19   12      0.99      0.00
   -4   19   12      0.61      0.00
   -3   19   12      0.30      0.00
   -2   19   12     -0.49      0.00
   -1   19   12      0.40      0.00
    0   19   12      1.15      0.00
    1   19   12     -0.43      0.00
   -5   20   12     -0.11      0.00
   -4   20   12     -0.25      0.00
   -3   20   12      0.37      0.00
   -2   20   12      0.80      0.00
   -1   20   12      0.74      0.00
    0   20   12     -0.64      0.00
   -4   21   12      0.79      0.00
   -3   21   12      0.08      0.00
   -2   21   12     -0.78      0.00
   -1   21   12      0.23      0.00
  -10    0   13      1.02      0.00
   -9    0   13     -0.59      0.00
   -8    0   13     -0.97      0.00
   -7    0   13     -0.81      0.00
   -6    0   13      0.38      0.00
   -5    0   13      1.48      0.00
   -4    0   13     -0.27      0.00
   -3    0   13      0.19      0.00
   -2    0   13      0.76      0.00
   -1    0   13     -0.73      0.00
    0    0   13     -0.64      0.00
    1    0   13     -0.49      0.00
    2    0   13      0.60      0.00
    3    0   13     -0.04      0.00
    4    0   13     -3.29      0.00
  -10    1   13      0.20      0.00
   -9    1   13     -0.53      0.00
   -8    1   13     -0.45      0.00
   -7    1   13      0.26      0.00
   -6    1   13     -0.02      0.00
   -5    1   13      0.13      0.00
   -4    1   13      0.55      0.00
   -3    1   13      0.42      0.00
   -2    1   13      0.14      0.00
   -1    1   13     -0.29      0.00
    0    1   13     -0.35      0.00
    1    1   13     -0.16      0.00
    2    1   13     -0.05      0.00
    3    1   13      0.32      0.00
    4    1   13      0.18      0.00
  -10    2   13      0.69      0.00
   -9    2   13     -0.67      0.00
   -8    2   13     -1.19      0.00
   -7    2   13     -0.74      0.00
   -6    2   13      0.39      0.00
   -5    2   13      1.08      0.00
   -4    2   13     -0.57      0.00
   -3    2   13     -0.06      0.00
   -2    2   13      0.61      0.00
   -1    2   13     -0.62      0.00
    0    2   13     -0.75      0.00
    1    2   13     -0.95      0.00
    2    2   13      0.30      0.00
    3    2   13      0.34      0.00
    4    2   13     -2.32      0.00
   -9    3   13     -1.20      0.00
   -8    3   13     -1.24      0.00
   -7    3   13      0.39      0.00
   -6    3   13     -0.25      0.00
   -5    3   13      0.05      0.00
   -4    3   13      0.88      0.00
   -3    3   13      0.41      0.00
   -2    3   13     -0.23      0.00
   -1    3   13     -1.01      0.00
    0    3   13     -0.84      0.00
    1    3   13     -0.40      0.00
    2    3   13     -0.27      0.00
    3    3   13      0.76      0.00
    4    3   13      0.51      0.00
   -9    4   13     -0.57      0.00
   -8    4   13     -1.55      0.00
   -7    4   13     -0.50      0.00
   -6    4   13      0.45      0.00
   -5    4   13      0.30      0.00
   -4    4   13     -1.13      0.00
   -3    4   13     -0.70      0.00
   -2    4   13      0.13      0.00
   -1    4   13     -0.31      0.00
    0    4   13     -0.50      0.00
    1    4   13     -1.29      0.00
    2    4   13     -0.05      0.00
    3    4   13      1.03      0.00
    4    4   13     -0.55      0.00
   -9    5   13     -0.89      0.00
   -8    5   13     -1.59      0.00
   -7    5   13     -0.03      0.00
   -6    5   13     -0.46      0.00
   -5    5   13     -0.21      0.00
   -4    5   13      0.35      0.00
   -3    5   13     -0.35      0.00
   -2    5   13     -1.04      0.00
   -1    5   13     -1.65      0.00
    0    5   13     -0.89      0.00
    1    5   13     -0.56      0.00
    2    5   13     -0.78      0.00
    3    5   13      0.60      0.00
    4    5   13      0.53      0.00
   -9    6   13      0.03      0.00
   -8    6   13     -1.50      0.00
   -7    6   13     -0.11      0.00
   -6    6   13      0.64      0.00
   -5    6   13     -0.13      0.00
   -4    6   13     -1.45      0.00
   -3    6   13     -1.44      0.00
   -2    6   13     -0.54      0.00
   -1    6   13     -0.02      0.00
    0    6   13      0.35      0.00
    1    6   13     -0.67      0.00
    2    6   13     -0.08      0.00
    3    6   13      1.18      0.00
    4    6   13      0.23      0.00
   -9    7   13      0.11      0.00
   -8    7   13     -1.34      0.00
   -7    7   13     -0.49      0.00
   -6    7   13     -0.19      0.00
   -5    7   13     -0.01      0.00
   -4    7   13      0.20      0.00
   -3    7   13     -0.30      0.00
   -2    7   13     -1.01      0.00
   -1    7   13     -1.63      0.00
    0    7   13     -0.52      0.00
    1    7   13     -0.49      0.00
    2    7   13     -1.18      0.00
    3    7   13      0.06      0.00
    4    7   13      0.19      0.00
   -9    8   13      0.56      0.00
   -8    8   13     -1.03      0.00
   -7    8   13      0.29      0.00
   -6    8   13      0.94      0.00
   -5    8   13      0.14      0.00
   -4    8   13     -1.32      0.00
   -3    8   13     -1.78      0.00
   -2    8   13     -0.80      0.00
   -1    8   13     -0.03      0.00
    0    8   13      0.67      0.00
    1    8   13     -0.13      0.00
    2    8   13     -0.28      0.00
    3    8   13      0.55      0.00
   -9    9   13      0.67      0.00
   -8    9   13     -0.93      0.00
   -7    9   13     -0.70      0.00
   -6    9   13      0.28      0.00
   -5    9   13      0.31      0.00
   -4    9   13      0.34      0.00
   -3    9   13      0.29      0.00
   -2    9   13     -0.41      0.00
   -1    9   13     -1.19      0.00
    0    9   13     -0.03      0.00
    1    9   13      0.05      0.00
    2    9   13     -0.81      0.00
    3    9   13     -0.07      0.00
   -8   10   13     -0.75      0.00
   -7   10   13      0.24      0.00
   -6   10   13      0.99      0.00
   -5   10   13      0.83      0.00
   -4   10   13     -0.88      0.00
   -3   10   13     -1.48      0.00
   -2   10   13     -0.19      0.00
   -1   10   13     -0.20      0.00
    0   10   13     -0.07      0.00
    1   10   13     -0.39      0.00
    2   10   13     -0.63      0.00
    3   10   13     -0.08      0.00
   -8   11   13     -0.75      0.00
   -7   11   13     -0.73      0.00
   -6   11   13      0.31      0.00
   -5   11   13      0.24      0.00
   -4   11   13      0.30      0.00
   -3   11   13      0.35      0.00
   -2   11   13     -0.29      0.00
   -1   11   13     -0.93      0.00
    0   11   13      0.12      0.00
    1   11   13      0.51      0.00
    2   11   13     -0.13      0.00
    3   11   13      0.19      0.00
   -8   12   13     -0.90      0.00
   -7   12   13     -0.49      0.00
   -6   12   13      0.39      0.00
   -5   12   13      1.26      0.00
   -4   12   13     -0.55      0.00
   -3   12   13     -1.06      0.00
   -2   12   13      0.62      0.00
   -1   12   13     -0.33      0.00
    0   12   13     -0.91      0.00
    1   12   13     -0.64      0.00
    2   12   13     -0.53      0.00
   -7   13   13     -0.62      0.00
   -6   13   13     -0.23      0.00
   -5   13   13      0.08      0.00
   -4   13   13      0.70      0.00
   -3   13   13      0.35      0.00
   -2   13   13     -0.42      0.00
   -1   13   13     -0.73      0.00
    0   13   13     -0.17      0.00
    1   13   13      0.25      0.00
    2   13   13     -0.03      0.00
   -7   14   13     -1.17      0.00
   -6   14   13     -0.68      0.00
   -5   14   13      0.97      0.00
   -4   14   13     -0.53      0.00
   -3   14   13     -0.95      0.00
   -2   14   13      0.81      0.00
   -1   14   13     -0.38      0.00
    0   14   13     -0.91      0.00
    1   14   13     -0.29      0.00
   -6   15   13     -1.05      0.00
   -5   15   13     -0.15      0.00
   -4   15   13      1.48      0.00
   -3   15   13      0.70      0.00
   -2   15   13     -0.31      0.00
   -1   15   13     -0.34      0.00
    0   15   13     -0.48      0.00
    1   15   13     -0.26      0.00
   -6   16   13     -1.41      0.00
   -5   16   13      0.25      0.00
   -4   16   13     -0.49      0.00
   -3   16   13     -0.79      0.00
   -2   16   13      0.63      0.00
   -1   16   13     -0.22      0.00
    0   16   13     -0.16      0.00
   -5   17   13     -0.81      0.00
   -4   17   13      1.47      0.00
   -3   17   13      0.65      0.00
   -2   17   13     -0.29      0.00
   -1   17   13     -0.03      0.00
   -3   18   13     -0.42      0.00
   -2   18   13      0.39      0.00
   -8    0   14      0.09      0.00
   -7    0   14      0.57      0.00
   -6    0   14      1.33      0.00
   -5    0   14     -0.97      0.00
   -4    0   14     -1.89      0.00
   -3    0   14     -0.38      0.00
   -2    0   14      0.30      0.00
   -1    0   14      0.14      0.00
    0    0   14     -0.23      0.00
    1    0   14      0.62      0.00
    2    0   14      0.87      0.00
   -8    1   14      0.24      0.00
   -7    1   14     -0.37      0.00
   -6    1   14     -0.12      0.00
   -5    1   14     -0.09      0.00
   -4    1   14     -0.62      0.00
   -3    1   14     -0.43      0.00
   -2    1   14     -0.13      0.00
   -1    1   14      0.07      0.00
    0    1   14      0.04      0.00
    1    1   14     -0.17      0.00
    2    1   14      0.10      0.00
   -8    2   14      0.19      0.00
   -7    2   14      0.45      0.00
   -6    2   14      1.19      0.00
   -5    2   14     -0.61      0.00
   -4    2   14     -1.62      0.00
   -3    2   14     -0.31      0.00
   -2    2   14      0.45      0.00
   -1    2   14      0.22      0.00
    0    2   14     -0.15      0.00
    1    2   14      0.73      0.00
    2    2   14      0.93      0.00
   -8    3   14      0.71      0.00
   -7    3   14     -0.65      0.00
   -6    3   14     -0.09      0.00
   -5    3   14      0.07      0.00
   -4    3   14     -1.01      0.00
   -3    3   14     -0.47      0.00
   -2    3   14      0.23      0.00
   -1    3   14      0.63      0.00
    0    3   14      0.33      0.00
    1    3   14     -0.37      0.00
    2    3   14      0.24      0.00
   -8    4   14      0.36      0.00
   -7    4   14      0.14      0.00
   -6    4   14      0.85      0.00
   -5    4   14      0.16      0.00
   -4    4   14     -0.94      0.00
   -3    4   14      0.07      0.00
   -2    4   14      0.99      0.00
   -1    4   14      0.38      0.00
    0    4   14     -0.23      0.00
    1    4   14      0.56      0.00
    2    4   14      0.82      0.00
   -7    5   14     -0.27      0.00
   -6    5   14      0.11      0.00
   -5    5   14      0.46      0.00
   -4    5   14     -0.37      0.00
   -3    5   14      0.33      0.00
   -2    5   14      1.06      0.00
   -1    5   14      1.47      0.00
    0    5   14      0.75      0.00
    1    5   14     -0.38      0.00
    2    5   14      0.34      0.00
   -7    6   14     -0.29      0.00
   -6    6   14      0.34      0.00
   -5    6   14      0.68      0.00
   -4    6   14     -0.20      0.00
   -3    6   14      0.84      0.00
   -2    6   14      1.72      0.00
   -1    6   14      0.48      0.00
    0    6   14     -0.51      0.00
    1    6   14     -0.03      0.00
   -7    7   14      0.20      0.00
   -6    7   14     -0.04      0.00
   -5    7   14      0.34      0.00
   -4    7   14      0.03      0.00
   -3    7   14      0.51      0.00
   -2    7   14      1.09      0.00
   -1    7   14      1.56      0.00
    0    7   14      0.68      0.00
    1    7   14     -0.49      0.00
   -7    8   14     -0.78      0.00
   -6    8   14     -0.28      0.00
   -5    8   14      0.56      0.00
   -4    8   14      0.26      0.00
   -3    8   14      1.48      0.00
   -2    8   14      1.90      0.00
   -1    8   14      0.42      0.00
    0    8   14     -0.29      0.00
    1    8   14     -0.15      0.00
   -6    9   14     -0.51      0.00
   -5    9   14     -0.10      0.00
   -4    9   14      0.03      0.00
   -3    9   14      0.28      0.00
   -2    9   14      0.70      0.00
   -1    9   14      0.91      0.00
    0    9   14     -0.01      0.00
    1    9   14     -0.82      0.00
   -6   10   14     -0.67      0.00
   -5   10   14      0.03      0.00
   -4   10   14      0.34      0.00
   -3   10   14      1.48      0.00
   -2   10   14      1.08      0.00
   -1   10   14      0.13      0.00
    0   10   14      0.52      0.00
   -5   11   14     -0.32      0.00
   -4   11   14      0.07      0.00
   -3   11   14      0.52      0.00
   -2   11   14      0.89      0.00
   -1   11   14      0.30      0.00
    0   11   14     -0.65      0.00
   -5   12   14     -0.32      0.00
   -4   12   14      0.31      0.00
   -3   12   14      1.09      0.00
   -2   12   14      0.02      0.00
   -1   12   14     -0.13      0.00
   -3   13   14      0.63      0.00
   -2   13   14      1.16      0.00
   -4    0   15      1.95      0.00
   -3    0   15     -0.40      0.00
   -2    0   15     -0.09      0.00
   -4    1   15      0.48      0.00
   -3    1   15      0.59      0.00
   -2    1   15      0.29      0.00
   -4    2   15      1.74      0.00
   -3    2   15     -0.30      0.00
   -3    3   15      0.92      0.00
   14   11    0      0.29      0.00
   13   17    0     -1.54      0.00
   12   21    0      0.83      0.00
   11   24    0     -0.67      0.00
    6   33    0     -1.07      0.00
    5   34    0      0.14      0.00
    0   36    0      1.14      0.00
    1   36    0     -0.13      0.00
   14    9    1      0.53      0.00
  -14   12    1      0.59      0.00
   12   20    1     -0.47      0.00
   11   23    1      0.26      0.00
   10   26    1      0.03      0.00
    9   28    1      0.33      0.00
   -9   29    1     -0.78      0.00
    8   30    1      0.47      0.00
   -7   32    1      0.31      0.00
   -6   33    1     -0.89      0.00
   -5   34    1     -0.30      0.00
   -1   36    1      0.25      0.00
    0   36    1     -0.15      0.00
    1   36    1     -0.28      0.00
  -15    0    2      0.74      0.00
  -15    1    2      0.54      0.00
   14    4    2     -0.38      0.00
   14    5    2     -2.92      0.00
  -14   13    2     -0.32      0.00
   13   14    2      1.00      0.00
  -13   18    2     -0.23      0.00
   11   22    2      1.44      0.00
   10   25    2     -1.02      0.00
  -10   27    2      0.09      0.00
   -9   29    2      0.54      0.00
   -7   32    2     -0.04      0.00
    6   32    2     -1.13      0.00
   -6   33    2      1.33      0.00
   -5   34    2      0.59      0.00
    4   34    2      0.49      0.00
  -15    0    3      1.30      0.00
  -15    1    3     -0.51      0.00
  -15    2    3      1.37      0.00
  -15    3    3     -0.61      0.00
   13   11    3      0.95      0.00
  -14   13    3      0.00      0.00
   12   17    3     -0.18      0.00
  -13   18    3     -0.12      0.00
   11   21    3     -1.19      0.00
   10   24    3     -0.58      0.00
  -10   27    3      0.55      0.00
    7   30    3     -0.04      0.00
   -6   33    3     -0.84      0.00
   -3   35    3     -0.62      0.00
    1   35    3     -0.56      0.00
  -15    0    4     -0.80      0.00
  -15    1    4      0.56      0.00
  -15    2    4     -0.93      0.00
   13    7    4      0.46      0.00
  -14   13    4     -0.36      0.00
  -13   18    4     -0.26      0.00
   11   19    4      1.32      0.00
    9   25    4      1.47      0.00
    7   29    4      1.31      0.00
   -8   30    4      0.65      0.00
   -4   34    4      0.06      0.00
    2   34    4      0.94      0.00
   12   11    5      1.35      0.00
  -14   12    5      0.85      0.00
  -13   17    5     -0.72      0.00
   11   17    5     -0.83      0.00
  -12   21    5     -0.02      0.00
  -10   26    5      0.33      0.00
    8   26    5     -0.83      0.00
   -9   28    5      0.72      0.00
   -2   34    5     -1.91      0.00
   -1   34    5      0.33      0.00
    0   34    5      1.01      0.00
   12    5    6      0.99      0.00
   12    6    6     -1.05      0.00
  -14   11    6     -1.27      0.00
   11   14    6      0.95      0.00
  -13   16    6      0.07      0.00
   10   18    6      0.37      0.00
  -12   20    6     -0.16      0.00
  -11   23    6      0.63      0.00
    8   24    6      0.60      0.00
   -9   27    6     -1.16      0.00
    6   28    6     -0.89      0.00
   -7   30    6      0.89      0.00
   -6   31    6      0.70      0.00
   -5   32    6     -1.06      0.00
    2   32    6      0.53      0.00
   -3   33    6      0.13      0.00
   -2   33    6      1.01      0.00
   -1   33    6     -0.31      0.00
    0   33    6     -0.73      0.00
  -14    8    7      0.95      0.00
  -14    9    7      1.25      0.00
   11    9    7     -0.86      0.00
  -13   15    7     -1.09      0.00
   10   15    7      1.24      0.00
  -12   19    7      0.21      0.00
    9   19    7      0.14      0.00
    8   22    7     -1.27      0.00
  -10   24    7     -0.89      0.00
   -9   26    7     -0.10      0.00
   -7   29    7     -0.97      0.00
    4   29    7     -0.21      0.00
   -6   30    7      0.00      0.00
    3   30    7     -1.43      0.00
    2   31    7      0.91      0.00
   -2   32    7     -0.96      0.00
   -1   32    7     -0.31      0.00
  -14    3    8      0.48      0.00
  -14    4    8      1.51      0.00
  -14    5    8     -0.59      0.00
   10   11    8     -1.17      0.00
  -13   13    8     -0.89      0.00
    9   16    8     -0.27      0.00
  -12   17    8      1.14      0.00
    7   22    8      0.66      0.00
  -10   23    8      0.14      0.00
    6   24    8      0.13      0.00
    5   26    8      0.11      0.00
   -4   30    8     -0.58      0.00
    1   30    8      0.22      0.00
  -13   10    9      2.50      0.00
    9   11    9     -0.14      0.00
  -12   15    9     -1.45      0.00
    8   16    9      0.24      0.00
    7   19    9     -0.42      0.00
  -10   21    9      0.53      0.00
   -9   23    9      1.00      0.00
   -8   25    9      0.83      0.00
    4   25    9      0.53      0.00
   -7   26    9     -1.46      0.00
   -5   28    9     -0.14      0.00
    1   28    9     -0.86      0.00
   -3   29    9     -0.48      0.00
   -2   29    9     -0.96      0.00
   -1   29    9     -0.28      0.00
  -13    2   10      2.20      0.00
  -13    3   10     -0.11      0.00
  -13    4   10      0.91      0.00
    8   11   10     -0.65      0.00
  -12   12   10     -0.92      0.00
    7   15   10     -0.54      0.00
  -11   16   10     -0.70      0.00
  -10   19   10     -0.36      0.00
   -9   21   10      0.06      0.00
   -8   23   10     -0.18      0.00
    3   24   10     -1.24      0.00
    2   25   10     -0.10      0.00
   -5   26   10      0.71      0.00
    1   26   10      1.21      0.00
   -3   27   10      0.16      0.00
   -2   27   10      0.48      0.00
   -1   27   10      0.06      0.00
  -12    6   11      1.41      0.00
  -12    7   11     -0.71      0.00
    7    9   11      0.43      0.00
    6   14   11     -0.52      0.00
  -10   16   11     -1.19      0.00
    5   17   11      0.43      0.00
    3   21   11      0.00      0.00
   -7   22   11     -0.24      0.00
   -6   23   11     -1.10      0.00
   -5   24   11     -0.46      0.00
    0   24   11     -0.44      0.00
  -11    6   12      0.55      0.00
    6    6   12      0.62      0.00
  -11    7   12     -0.78      0.00
    6    7   12     -0.50      0.00
  -10   12   12     -0.09      0.00
    5   12   12      1.29      0.00
   -9   15   12      0.64      0.00
    4   15   12     -0.59      0.00
    3   17   12      0.85      0.00
   -7   19   12     -0.87      0.00
    2   19   12     -0.56      0.00
   -6   20   12      0.89      0.00
    1   20   12     -0.73      0.00
   -5   21   12      1.07      0.00
    0   21   12      1.08      0.00
   -3   22   12      1.25      0.00
   -2   22   12      1.52      0.00
  -10    3   13      0.54      0.00
  -10    4   13      0.31      0.00
  -10    5   13      0.91      0.00
    4    8   13     -0.26      0.00
   -9   10   13      0.31      0.00
    3   12   13     -0.16      0.00
   -8   13   13     -0.59      0.00
    2   14   13     -0.22      0.00
   -7   15   13     -0.24      0.00
    1   16   13      0.24      0.00
    0   17   13     -0.52      0.00
   -4   18   13     -0.25      0.00
   -1   18   13     -0.11      0.00
   -8    5   14      0.99      0.00
   -8    6   14      0.36      0.00
    2    6   14      0.43      0.00
   -7    9   14      0.38      0.00
    1   10   14      0.45      0.00
   -6   11   14     -0.78      0.00
   -4   13   14     -0.22      0.00
   -1   13   14     -0.10      0.00
   -5    0   15      1.46      0.00
   -1    0   15      0.74      0.00
   -5    1   15      0.01      0.00
   -1    1   15      0.15      0.00
   -5    2   15      1.21      0.00
   -2    2   15     -0.14      0.00
   -4    3   15      0.73      0.00
   -2    3   15      0.24      0.00
   -4    4   15      1.11      0.00
   -3    4   15     -0.35      0.00
   -2    4   15     -0.51      0.00
   -3    5   15      0.25      0.00
    0    0    0      0.00      0.00
# SQUEEZE RESULTS (Version = 190619)
# Note: Data are Listed for all Voids in the P1 Unit Cell
# i.e. Centre of Gravity, Solvent Accessible Volume,
# Recovered number of Electrons in the Void and
# Details about the Squeezed Material
loop_
  _platon_squeeze_void_nr
  _platon_squeeze_void_average_x
  _platon_squeeze_void_average_y
  _platon_squeeze_void_average_z
  _platon_squeeze_void_volume
  _platon_squeeze_void_count_electrons
  _platon_squeeze_void_content
   1  0.000  0.000  0.500       181        44 ' '
   2  0.000  0.500  0.500       181        44 ' '
   3  0.250 -0.009  0.848        16         4 ' '
   4  0.250  0.509  0.848        16         4 ' '
   5  0.750  0.009  0.152        16         4 ' '
   6  0.750  0.491  0.152        16         4 ' '
_platon_squeeze_void_probe_radius                  1.20
_platon_squeeze_details
)
TITL an1gd            P 1 21/m 1   R = 0.05
CELL   11.5130   27.7170   11.5920     90.00    102.16     90.00
SPGR P21/m
# Solvent Accessible Volume =       426
# Electrons Found in S.A.V. =       105
# Note: Atoms in Void are Labelled as Cxxx and Qxxx for all Others
Q101 0.592 0.251 0.078 !       1.74 eA-3
Q102 0.799 0.990 0.156 !       1.62 eA-3
Q103 1.001 0.251 0.578 !       1.46 eA-3
Q104 0.089 0.751 0.437 !       1.44 eA-3
Q105 0.219 0.501 0.166 !       1.43 eA-3
Q106 0.593 0.500 0.077 !       1.39 eA-3
C107 0.908 0.022 0.459 !       1.29 eA-3
C108 0.094 0.070 0.484 !       1.26 eA-3
Q109 0.777 0.393 0.471 !       1.20 eA-3
Q110 0.308 0.523 0.471 !       1.15 eA-3
Q111 0.951 0.824 0.547 !       1.15 eA-3
Q112 0.099 0.502 0.035 !       1.13 eA-3
Q113 0.319 0.869 0.266 !       1.12 eA-3
Q114 0.231 0.028 0.328 !       1.10 eA-3
Q115 0.677 0.400 0.719 !       1.01 eA-3
Q116 0.918 0.176 0.606 !       0.96 eA-3
Q117 0.929 0.510 0.482 !       0.93 eA-3
Q118 0.902 0.492 0.397 !       0.89 eA-3
C119 0.707 0.055 0.597 !       0.88 eA-3
Q120 0.627 0.390 0.186 !       0.87 eA-3
Q121 0.138 0.978 0.296 !       0.87 eA-3
Q122 0.270 0.579 0.349 !       0.84 eA-3
C123 0.882 0.053 0.480 !       0.83 eA-3
Q124 0.138 0.493 0.296 !       0.83 eA-3
C125 0.819 0.038 0.436 !       0.83 eA-3
Q126 0.994 0.009 0.418 !       0.83 eA-3
Q127 0.679 0.514 0.532 !       0.82 eA-3
Q128 0.198 0.962 0.203 !       0.81 eA-3
Q129 0.912 0.874 0.482 !       0.81 eA-3
C130 0.948 0.088 0.495 !       0.81 eA-3
Q131 0.452 0.096 0.047 !       0.80 eA-3
Q132 0.411 0.406 0.221 !       0.79 eA-3
Q133 0.815 0.500 0.077 !       0.79 eA-3
C134 0.212 0.548 0.461 !       0.78 eA-3
Q135 0.683 0.782 0.797 !       0.78 eA-3
C136 0.032 0.047 0.460 !       0.77 eA-3
Q137 0.222 0.561 0.282 !       0.76 eA-3
Q138 0.232 0.525 0.409 !       0.76 eA-3
Q139 0.264 0.853 0.338 !       0.75 eA-3
Q140 0.077 0.470 0.004 !       0.75 eA-3
Q141 0.049 0.375 0.210 !       0.75 eA-3
Q142 0.234 0.780 0.178 !       0.75 eA-3
Q143 0.215 0.527 0.319 !       0.75 eA-3
Q144 0.186 0.039 0.189 !       0.73 eA-3
Q145 1.000 0.507 0.343 !       0.73 eA-3
Q146 0.876 0.998 0.015 !       0.73 eA-3
Q147 0.263 0.057 0.338 !       0.73 eA-3
Q148 0.175 0.751 0.469 !       0.72 eA-3
Q149 0.407 0.615 0.150 !       0.72 eA-3
Q150 1.003 0.632 0.341 !       0.72 eA-3
Q151 0.224 0.506 0.467 !       0.71 eA-3
Q152 0.774 0.375 0.748 !       0.71 eA-3
Q153 0.373 0.413 0.048 !       0.71 eA-3
Q154 0.087 0.992 0.455 !       0.70 eA-3
Q155 0.309 0.398 0.115 !       0.70 eA-3
C156 0.800 0.073 0.468 !       0.70 eA-3
Q157 0.032 0.505 0.689 !       0.70 eA-3
Q158 0.858 0.097 0.475 !       0.70 eA-3
Q159 0.146 0.762 0.329 !       0.70 eA-3
Q160 0.190 0.596 0.426 !       0.70 eA-3
Q161 0.113 0.506 0.186 !       0.70 eA-3
Q162 0.055 0.970 0.105 !       0.69 eA-3
Q163 0.121 0.702 0.184 !       0.69 eA-3
Q164 0.068 0.962 0.445 !       0.69 eA-3
Q165 0.011 0.537 0.391 !       0.68 eA-3
Q166 0.722 0.250 0.016 !       0.68 eA-3
Q167 0.809 0.545 0.128 !       0.68 eA-3
Q168 1.006 0.484 0.014 !       0.67 eA-3
Q169 0.505 0.103 0.134 !       0.67 eA-3
Q170 0.218 0.852 0.308 !       0.67 eA-3
Q171 0.369 0.752 0.047 !       0.66 eA-3
Q172 0.270 0.920 0.483 !       0.66 eA-3
Q173 0.030 0.668 0.425 !       0.66 eA-3
Q174 0.073 0.025 0.394 !       0.66 eA-3
Q175 0.754 0.124 0.077 !       0.66 eA-3
Q176 0.205 0.563 0.352 !       0.65 eA-3
Q177 0.156 0.009 0.383 !       0.65 eA-3
Q178 0.236 0.475 0.104 !       0.64 eA-3
Q179 0.142 0.866 0.528 !       0.64 eA-3
Q180 0.907 0.992 0.295 !       0.64 eA-3
Q181 0.270 0.875 0.386 !       0.64 eA-3
Q182 0.028 0.497 0.057 !       0.63 eA-3
Q183 0.705 0.342 0.503 !       0.63 eA-3
Q184 0.978 0.477 0.111 !       0.62 eA-3
Q185 0.722 0.469 0.784 !       0.62 eA-3
Q186 0.676 0.482 0.300 !       0.62 eA-3
Q187 0.457 0.474 0.470 !       0.62 eA-3
Q188 0.082 0.789 0.478 !       0.62 eA-3
Q189 0.953 0.104 0.346 !       0.62 eA-3
Q190 0.137 0.250 0.297 !       0.61 eA-3
Q191 0.251 0.289 0.262 !       0.61 eA-3
Q192 0.015 0.719 0.482 !       0.61 eA-3
Q193 0.017 0.704 0.152 !       0.60 eA-3
Q194 0.753 0.388 0.687 !       0.60 eA-3
Q195 0.542 0.476 0.483 !       0.60 eA-3
Q196 0.863 0.539 0.302 !       0.60 eA-3
Q197 0.498 0.750 0.219 !       0.60 eA-3
Q198 0.815 0.492 0.409 !       0.59 eA-3
Q199 0.687 0.967 0.199 !       0.59 eA-3
)
;
_shelx_fab_checksum              34763
_platon_squeeze_void_probe_radius 1.20
_olex2_submission_special_instructions 'No special instructions were received'
loop_
_space_group_symop_operation_xyz
'x, y, z'
'-x, y+1/2, -z'
'-x, -y, -z'
'x, -y-1/2, z'
loop_
_atom_site_label
_atom_site_type_symbol
_atom_site_fract_x
_atom_site_fract_y
_atom_site_fract_z
_atom_site_U_iso_or_equiv
_atom_site_adp_type
_atom_site_occupancy
_atom_site_site_symmetry_order
_atom_site_calc_flag
_atom_site_refinement_flags_posn
_atom_site_refinement_flags_adp
_atom_site_refinement_flags_occupancy
_atom_site_disorder_assembly
_atom_site_disorder_group
Gd1 Gd 0.77150(3) 0.750000 0.82355(3) 0.02295(9) Uani 1 2 d S T P . .
Gd2 Gd 0.59098(2) 0.62603(2) 0.87352(2) 0.02423(8) Uani 1 1 d D . . . .
O1 O 0.9793(5) 0.750000 0.9255(5) 0.0496(16) Uani 1 2 d S T P A .
O2 O 0.9411(5) 0.750000 0.7353(6) 0.069(2) Uani 1 2 d S T P A .
O3 O 1.5691(3) 0.78913(13) 0.8334(3) 0.0305(8) Uani 1 1 d . . . . .
O4 O 0.701(2) 0.7019(8) 0.656(3) 0.035(4) Uani 0.56(4) 1 d D U . A 1
O4A O 0.730(3) 0.6960(10) 0.663(4) 0.033(5) Uani 0.44(4) 1 d D U . A 2
O5 O 0.6121(4) 0.63177(14) 0.6768(3) 0.0373(9) Uani 1 1 d D U . . .
O12 O 0.7567(5) 0.750000 1.0308(4) 0.0347(12) Uani 1 2 d S T P A .
H12 H 0.723247 0.724120 1.046002 0.052 Uiso 1 1 d R . . . .
O6 O 0.620(2) 0.6703(6) 0.0595(12) 0.041(3) Uani 0.56(4) 1 d D U . A 1
O6A O 0.664(3) 0.6597(8) 0.0669(14) 0.038(4) Uani 0.44(4) 1 d D U . A 2
O7 O 0.654(2) 0.5922(7) 0.0738(15) 0.030(3) Uani 0.56(4) 1 d . U . A 1
O7A O 0.638(3) 0.5812(8) 0.073(2) 0.037(4) Uani 0.44(4) 1 d . U . A 2
O8 O 0.3755(4) 0.63012(18) 0.7703(4) 0.0543(12) Uani 1 1 d . U . . .
O9 O 0.4203(9) 0.6323(5) 0.9637(9) 0.053(4) Uani 0.528(5) 1 d D U . B -1
O10 O -0.2033(3) 0.66614(14) 0.8913(3) 0.0349(8) Uani 1 1 d . U . . .
O11 O -0.2132(3) 0.58719(15) 0.8830(4) 0.0408(9) Uani 1 1 d . U . . .
N2 N 0.4606(4) 0.45882(17) 0.1997(4) 0.0376(11) Uani 1 1 d . . . . .
N3 N -0.0007(14) 0.5308(6) 1.2850(13) 0.091(5) Uani 0.528(5) 1 d . U . B -1
N7 N -0.0053(18) 0.6764(9) 1.3363(18) 0.119(7) Uani 0.472(5) 1 d . U . B -2
H7 H -0.008229 0.681320 1.408908 0.143 Uiso 0.472(5) 1 calc R . . B -2
C00D C -0.1547(4) 0.62532(19) 0.8878(5) 0.0300(9) Uani 1 1 d . U . . .
C1 C 1.0142(6) 0.750000 0.8322(7) 0.0310(16) Uani 1 2 d S T P . .
C2 C 1.1453(7) 0.750000 0.8319(7) 0.0362(16) Uani 1 2 d S TU P A .
C3 C 1.1818(9) 0.7662(4) 0.7292(10) 0.039(3) Uani 0.5 1 d . U . A -1
H3 H 1.126067 0.777109 0.664293 0.047 Uiso 0.5 1 calc R . . A -1
C4 C 1.3005(9) 0.7656(4) 0.7267(10) 0.040(3) Uani 0.5 1 d . U . A -1
C5 C 1.3835(6) 0.750000 0.8272(7) 0.0294(14) Uani 1 2 d S TU P . .
C6 C 1.3461(8) 0.7378(4) 0.9278(9) 0.037(4) Uani 0.5 1 d . U . A -1
H6 H 1.401345 0.728780 0.995047 0.045 Uiso 0.5 1 calc R . . A -1
C7 C 1.2250(8) 0.7389(4) 0.9299(10) 0.037(4) Uani 0.5 1 d . U . A -1
H7A H 1.200059 0.731983 0.999378 0.045 Uiso 0.5 1 calc R . . A -1
C8 C 1.3368(8) 0.7779(4) 0.6108(6) 0.061(3) Uani 0.5 1 d . U . A -1
C9 C 1.4040(8) 0.7456(4) 0.5606(8) 0.086(4) Uani 0.5 1 d G U . A -1
H9 H 1.431225 0.717186 0.600035 0.104 Uiso 0.5 1 calc R . . A -1
C10 C 1.4306(9) 0.7556(6) 0.4516(8) 0.126(6) Uani 0.5 1 d G U . A -1
H10 H 1.475611 0.733924 0.418022 0.151 Uiso 0.5 1 calc R . . A -1
N1 N 1.3900(10) 0.7980(6) 0.3927(7) 0.114(5) Uani 0.5 1 d G U . A -1
C11 C 1.3227(11) 0.8304(5) 0.4428(9) 0.111(6) Uani 0.5 1 d G U . A -1
H11 H 1.295517 0.858738 0.403379 0.133 Uiso 0.5 1 calc R . . A -1
C12 C 1.2961(10) 0.8203(4) 0.5518(9) 0.080(4) Uani 0.5 1 d G U . A -1
H12A H 1.251131 0.842000 0.585392 0.096 Uiso 0.5 1 calc R . . A -1
C13 C 1.5147(6) 0.750000 0.8301(6) 0.0238(14) Uani 1 2 d S T P A .
C14 C 0.653(2) 0.6628(7) 0.6166(15) 0.028(2) Uani 0.56(4) 1 d D U . A 1
C14A C 0.671(2) 0.6593(7) 0.6251(18) 0.028(4) Uani 0.44(4) 1 d D U . A 2
C15 C 0.647(2) 0.6523(5) 0.4869(15) 0.040(3) Uani 0.56(4) 1 d D U . A 1
C15A C 0.6655(16) 0.6475(5) 0.4963(17) 0.034(4) Uani 0.44(4) 1 d D U . A 2
C16 C 0.6060(5) 0.6078(2) 0.4398(4) 0.0348(11) Uani 1 1 d D U . . .
H16 H 0.581566 0.584727 0.487899 0.042 Uiso 0.56(4) 1 calc R . . A 1
H16A H 0.567879 0.587088 0.482951 0.042 Uiso 0.44(4) 1 calc R . . A 2
C17 C 0.6009(5) 0.5975(2) 0.3208(4) 0.0340(11) Uani 1 1 d D U . . .
C18 C 0.6311(18) 0.6364(6) 0.2502(11) 0.029(3) Uani 0.56(4) 1 d D U . A 1
C18A C 0.6624(18) 0.6269(6) 0.2535(13) 0.024(3) Uani 0.44(4) 1 d D U . A 2
C19 C 0.672(3) 0.6812(7) 0.3011(12) 0.046(5) Uani 0.56(4) 1 d D U . A 1
H19 H 0.694623 0.705246 0.254319 0.055 Uiso 0.56(4) 1 calc R . . A 1
C19A C 0.720(2) 0.6673(8) 0.3112(13) 0.032(4) Uani 0.44(4) 1 d D U . A 2
H19A H 0.756176 0.688880 0.268629 0.038 Uiso 0.44(4) 1 calc R . . A 2
C20 C 0.680(3) 0.6895(8) 0.4195(12) 0.053(6) Uani 0.56(4) 1 d D U . A 1
H20 H 0.705116 0.719083 0.453355 0.064 Uiso 0.56(4) 1 calc R . . A 1
C20A C 0.7243(19) 0.6762(8) 0.4293(13) 0.033(4) Uani 0.44(4) 1 d D U . A 2
H20A H 0.768315 0.702380 0.464924 0.039 Uiso 0.44(4) 1 calc R . . A 2
C21 C 0.5495(5) 0.5502(2) 0.2758(4) 0.0344(12) Uani 1 1 d . . . . .
C22 C 0.5850(6) 0.5092(2) 0.3422(5) 0.0466(15) Uani 1 1 d . . . . .
H22 H 0.639478 0.511511 0.413678 0.056 Uiso 1 1 calc R . . . .
C23 C 0.5390(6) 0.4645(2) 0.3015(5) 0.0456(15) Uani 1 1 d . . . . .
H23 H 0.564005 0.437331 0.347089 0.055 Uiso 1 1 calc R . . . .
C24 C 0.4242(5) 0.4986(2) 0.1381(5) 0.0386(13) Uani 1 1 d . . . . .
H24 H 0.368216 0.495431 0.067899 0.046 Uiso 1 1 calc R . . . .
C25 C 0.4646(5) 0.5442(2) 0.1724(5) 0.0386(13) Uani 1 1 d . . . . .
H25 H 0.435288 0.570823 0.126589 0.046 Uiso 1 1 calc R . . . .
C26 C 0.636(2) 0.6315(7) 0.1218(12) 0.031(3) Uani 0.56(4) 1 d D U . A 1
C26A C 0.6532(19) 0.6208(8) 0.1230(15) 0.026(4) Uani 0.44(4) 1 d D U . A 2
C27 C 0.3427(5) 0.6246(2) 0.8645(6) 0.0413(12) Uani 1 1 d D U . . .
C28 C 0.2127(5) 0.6218(2) 0.8674(6) 0.0405(12) Uani 1 1 d . U . . .
C29 C 0.1780(9) 0.5996(4) 0.9545(10) 0.039(2) Uani 0.528(5) 1 d . U . B -1
H29 H 0.234947 0.583512 1.010046 0.047 Uiso 0.528(5) 1 calc R . . B -1
C29A C 0.1827(11) 0.6389(5) 0.9854(13) 0.045(3) Uani 0.472(5) 1 d . U . B -2
H29A H 0.242563 0.648720 1.048079 0.054 Uiso 0.472(5) 1 calc R . . B -2
C30 C 0.0601(9) 0.5986(4) 0.9683(10) 0.036(2) Uani 0.528(5) 1 d . U . B -1
C30A C 0.0639(10) 0.6393(5) 0.9953(12) 0.040(2) Uani 0.472(5) 1 d . U . B -2
C31 C -0.0244(5) 0.6229(2) 0.8846(5) 0.0361(11) Uani 1 1 d . U . . .
C32 C 0.0046(11) 0.6378(5) 0.7756(11) 0.037(3) Uani 0.528(5) 1 d . U . B -1
H32 H -0.054890 0.648021 0.713176 0.045 Uiso 0.528(5) 1 calc R . . B -1
C32A C 0.0119(13) 0.6136(7) 0.7925(14) 0.050(4) Uani 0.472(5) 1 d . U . B -2
H32A H -0.044326 0.607003 0.724026 0.061 Uiso 0.472(5) 1 calc R . . B -2
C33 C 0.1221(10) 0.6367(4) 0.7638(11) 0.037(2) Uani 0.528(5) 1 d . U . B -1
H33 H 0.142887 0.645142 0.693193 0.044 Uiso 0.528(5) 1 calc R . . B -1
C33A C 0.1328(12) 0.6125(7) 0.7864(15) 0.049(3) Uani 0.472(5) 1 d . U . B -2
H33A H 0.151676 0.603986 0.714948 0.059 Uiso 0.472(5) 1 calc R . . B -2
C34 C 0.0341(10) 0.5755(5) 1.0756(10) 0.047(3) Uani 0.528(5) 1 d . U . B -1
C34A C 0.0306(12) 0.6529(7) 1.1082(13) 0.059(3) Uani 0.472(5) 1 d . U . B -2
C35 C -0.0390(14) 0.5972(7) 1.1430(13) 0.065(4) Uani 0.528(5) 1 d . U . B -1
H35 H -0.079186 0.625682 1.118342 0.078 Uiso 0.528(5) 1 calc R . . B -1
C35A C -0.0408(18) 0.6278(9) 1.1621(19) 0.080(5) Uani 0.472(5) 1 d . U . B -2
H35A H -0.080265 0.601346 1.122723 0.096 Uiso 0.472(5) 1 calc R . . B -2
C36 C -0.050(2) 0.5746(8) 1.2497(16) 0.105(7) Uani 0.528(5) 1 d . U . B -1
H36 H -0.093228 0.590376 1.297941 0.126 Uiso 0.528(5) 1 calc R . . B -1
C36A C -0.0598(18) 0.6382(10) 1.2702(18) 0.091(6) Uani 0.472(5) 1 d . U . B -2
H36A H -0.111661 0.618892 1.301386 0.109 Uiso 0.472(5) 1 calc R . . B -2
C37 C 0.0707(17) 0.5108(6) 1.2175(15) 0.081(5) Uani 0.528(5) 1 d . U . B -1
H37 H 0.112285 0.483093 1.246542 0.097 Uiso 0.528(5) 1 calc R . . B -1
C37A C 0.050(2) 0.7036(11) 1.277(2) 0.125(9) Uani 0.472(5) 1 d . U . B -2
H37A H 0.075782 0.733051 1.311397 0.150 Uiso 0.472(5) 1 calc R . . B -2
C38 C 0.0869(12) 0.5277(6) 1.1116(13) 0.061(3) Uani 0.528(5) 1 d . U . B -1
H38 H 0.128549 0.510303 1.064932 0.073 Uiso 0.528(5) 1 calc R . . B -1
C38A C 0.0776(17) 0.6946(8) 1.1650(15) 0.077(5) Uani 0.472(5) 1 d . U . B -2
H38A H 0.124440 0.715598 1.131837 0.093 Uiso 0.472(5) 1 calc R . . B -2
O13 O 0.403(2) 0.7022(9) 1.1760(14) 0.226(14) Uani 0.5 1 d . . . . .
H13A H 0.431497 0.676160 1.154892 0.340 Uiso 0.5 1 d R . . . .
H13B H 0.412647 0.699870 1.250432 0.340 Uiso 0.5 1 d R . . . .
O14 O 0.9517(14) 0.750000 0.4930(13) 0.086(6) Uani 0.5 2 d S T P . .
H14A H 0.974398 0.760170 0.563295 0.129 Uiso 0.25 1 d R . . . .
H14B H 0.946978 0.719570 0.499995 0.129 Uiso 0.25 1 d R . . . .
O19 O 0.4155(9) 0.6105(5) 0.9504(10) 0.047(4) Uani 0.472(5) 1 d D . . B -2
loop_
_atom_site_aniso_label
_atom_site_aniso_U_11
_atom_site_aniso_U_22
_atom_site_aniso_U_33
_atom_site_aniso_U_23
_atom_site_aniso_U_13
_atom_site_aniso_U_12
Gd1 0.01762(16) 0.03317(19) 0.01873(16) 0.000 0.00532(12) 0.000
Gd2 0.02172(13) 0.03260(14) 0.01955(12) -0.00215(9) 0.00703(9) -0.00252(9)
O1 0.020(3) 0.087(5) 0.042(3) 0.000 0.010(2) 0.000
O2 0.022(3) 0.146(8) 0.042(4) 0.000 0.014(3) 0.000
O3 0.0210(17) 0.034(2) 0.037(2) -0.0009(16) 0.0075(15) -0.0032(14)
O4 0.038(11) 0.047(5) 0.020(5) -0.007(5) 0.004(8) -0.015(6)
O4A 0.035(11) 0.042(6) 0.023(7) -0.006(6) 0.010(9) -0.009(7)
O5 0.046(2) 0.046(2) 0.0223(17) -0.0031(15) 0.0125(16) -0.0118(16)
O12 0.039(3) 0.038(3) 0.027(3) 0.000 0.008(2) 0.000
O6 0.065(9) 0.033(5) 0.027(4) -0.001(3) 0.016(5) -0.004(4)
O6A 0.060(12) 0.032(7) 0.021(4) -0.003(4) 0.006(6) -0.013(6)
O7 0.036(7) 0.034(5) 0.020(4) 0.001(4) 0.006(4) -0.002(5)
O7A 0.051(10) 0.033(6) 0.031(6) -0.004(5) 0.017(6) -0.010(5)
O8 0.029(2) 0.082(3) 0.055(2) -0.014(2) 0.0160(18) -0.009(2)
O9 0.025(3) 0.083(10) 0.054(3) 0.025(4) 0.018(3) 0.002(5)
O10 0.0264(18) 0.0393(17) 0.040(2) 0.0070(16) 0.0081(16) 0.0051(14)
O11 0.0258(18) 0.0423(18) 0.056(3) -0.0026(18) 0.0133(18) -0.0012(14)
N2 0.045(3) 0.035(3) 0.030(2) -0.004(2) 0.003(2) -0.007(2)
N3 0.099(10) 0.118(10) 0.062(8) 0.024(6) 0.029(7) 0.027(8)
N7 0.102(13) 0.179(15) 0.095(10) -0.033(9) 0.066(10) -0.035(10)
C00D 0.0211(17) 0.0402(17) 0.030(2) 0.0046(18) 0.0083(17) 0.0029(13)
C1 0.020(3) 0.033(4) 0.041(4) 0.000 0.009(3) 0.000
C2 0.022(3) 0.044(4) 0.043(3) 0.000 0.008(2) 0.000
C3 0.022(3) 0.058(7) 0.037(4) 0.000(3) 0.004(3) -0.001(3)
C4 0.022(3) 0.057(8) 0.040(3) 0.003(3) 0.004(2) -0.001(3)
C5 0.017(3) 0.034(4) 0.038(3) 0.000 0.008(2) 0.000
C6 0.021(3) 0.053(10) 0.039(4) 0.006(4) 0.009(3) 0.003(3)
C7 0.022(3) 0.049(12) 0.042(4) 0.003(4) 0.011(2) 0.002(3)
C8 0.022(5) 0.121(8) 0.036(4) 0.007(4) 0.000(3) -0.012(5)
C9 0.056(7) 0.150(11) 0.058(6) 0.007(8) 0.023(5) 0.009(10)
C10 0.092(11) 0.228(16) 0.070(7) 0.031(11) 0.042(8) 0.030(13)
N1 0.073(10) 0.211(15) 0.056(8) 0.016(8) 0.012(7) 0.003(10)
C11 0.097(14) 0.184(16) 0.058(8) 0.032(8) 0.030(8) 0.000(11)
C12 0.064(9) 0.131(10) 0.044(6) 0.018(6) 0.009(6) -0.001(7)
C13 0.017(3) 0.035(4) 0.018(3) 0.000 0.003(2) 0.000
C14 0.022(6) 0.041(4) 0.019(3) -0.002(2) 0.001(3) -0.006(4)
C14A 0.027(8) 0.036(5) 0.020(4) 0.000(3) 0.004(5) -0.002(6)
C15 0.053(8) 0.045(4) 0.021(3) -0.005(3) 0.009(4) -0.015(4)
C15A 0.040(9) 0.041(5) 0.021(4) -0.002(3) 0.009(4) -0.010(6)
C16 0.042(3) 0.041(2) 0.0220(18) -0.0024(16) 0.0092(19) -0.010(2)
C17 0.041(3) 0.040(3) 0.0219(18) -0.0034(16) 0.0084(18) -0.012(2)
C18 0.026(8) 0.038(4) 0.025(3) -0.001(3) 0.009(4) -0.005(4)
C18A 0.018(7) 0.029(5) 0.025(3) 0.002(3) 0.005(4) 0.005(5)
C19 0.067(13) 0.045(5) 0.028(4) -0.003(4) 0.014(6) -0.022(7)
C19A 0.039(9) 0.034(6) 0.023(4) 0.001(4) 0.009(5) -0.006(6)
C20 0.083(15) 0.049(6) 0.029(4) -0.005(4) 0.016(6) -0.028(8)
C20A 0.038(9) 0.038(7) 0.023(4) -0.002(4) 0.009(5) -0.010(6)
C21 0.042(3) 0.039(3) 0.023(2) -0.001(2) 0.010(2) -0.007(2)
C22 0.059(4) 0.046(4) 0.029(3) -0.002(3) -0.003(3) -0.009(3)
C23 0.062(4) 0.038(3) 0.033(3) 0.000(2) -0.001(3) -0.003(3)
C24 0.043(3) 0.040(3) 0.030(3) -0.004(2) 0.000(2) 0.000(3)
C25 0.040(3) 0.041(3) 0.031(3) -0.002(2) 0.000(2) -0.004(3)
C26 0.035(7) 0.033(5) 0.027(3) -0.001(3) 0.012(4) -0.006(4)
C26A 0.023(8) 0.031(6) 0.025(3) 0.000(3) 0.005(4) -0.003(5)
C27 0.0247(19) 0.041(3) 0.062(3) 0.009(2) 0.0174(18) 0.005(2)
C28 0.0246(19) 0.046(3) 0.054(3) 0.016(2) 0.0144(17) 0.006(2)
C29 0.022(3) 0.051(6) 0.046(4) 0.013(4) 0.009(3) 0.001(3)
C29A 0.022(3) 0.061(8) 0.053(4) 0.010(4) 0.011(3) 0.005(4)
C30 0.023(3) 0.047(6) 0.040(4) 0.007(3) 0.009(2) 0.002(3)
C30A 0.022(3) 0.055(7) 0.043(3) 0.010(4) 0.009(2) 0.004(3)
C31 0.0221(17) 0.044(3) 0.045(2) 0.009(2) 0.0116(16) 0.0030(17)
C32 0.025(3) 0.047(7) 0.042(4) 0.010(4) 0.010(3) 0.006(4)
C32A 0.023(3) 0.083(12) 0.047(4) -0.004(5) 0.012(3) 0.001(5)
C33 0.027(3) 0.042(7) 0.044(4) 0.007(4) 0.014(2) 0.007(4)
C33A 0.025(3) 0.070(10) 0.055(4) 0.002(5) 0.017(2) 0.005(4)
C34 0.028(5) 0.073(6) 0.040(4) 0.016(4) 0.009(4) 0.002(4)
C34A 0.032(6) 0.101(9) 0.046(4) -0.002(5) 0.012(4) 0.002(5)
C35 0.049(7) 0.107(10) 0.044(6) 0.017(6) 0.017(5) 0.021(7)
C35A 0.056(9) 0.126(11) 0.064(7) -0.001(7) 0.029(7) -0.013(9)
C36 0.129(16) 0.135(11) 0.067(8) 0.039(8) 0.059(10) 0.053(10)
C36A 0.067(11) 0.149(14) 0.067(8) -0.001(8) 0.037(8) -0.008(10)
C37 0.102(12) 0.079(9) 0.071(7) 0.034(6) 0.040(7) 0.016(8)
C37A 0.128(18) 0.189(16) 0.076(8) -0.054(9) 0.060(11) -0.069(14)
C38 0.045(7) 0.078(7) 0.060(6) 0.029(5) 0.015(5) 0.008(5)
C38A 0.070(10) 0.114(10) 0.053(7) -0.014(6) 0.024(7) -0.015(7)
O13 0.32(3) 0.29(3) 0.062(10) -0.003(13) 0.020(14) 0.21(2)
O14 0.064(10) 0.152(17) 0.038(8) 0.000 0.002(7) 0.000
O19 0.020(5) 0.065(10) 0.057(7) 0.037(6) 0.010(4) 0.000(5)
loop_
_atom_type_symbol
_atom_type_description
_atom_type_scat_dispersion_real
_atom_type_scat_dispersion_imag
_atom_type_scat_source
C C 0.0033 0.0016 'International Tables Vol C Tables 4.2.6.8 and 6.1.1.4'
H H 0.0000 0.0000 'International Tables Vol C Tables 4.2.6.8 and 6.1.1.4'
Gd Gd -0.1653 3.9035 'International Tables Vol C Tables 4.2.6.8 and 6.1.1.4'
N N 0.0061 0.0033 'International Tables Vol C Tables 4.2.6.8 and 6.1.1.4'
O O 0.0106 0.0060 'International Tables Vol C Tables 4.2.6.8 and 6.1.1.4'
loop_
_geom_angle_atom_site_label_1
_geom_angle_atom_site_label_2
_geom_angle_atom_site_label_3
_geom_angle
_geom_angle_site_symmetry_1
_geom_angle_site_symmetry_3
_geom_angle_publ_flag
O1 Gd1 O3 141.11(13) . 4_475 ?
O1 Gd1 O3 141.11(13) . 1_455 ?
O1 Gd1 O12 77.76(19) . . ?
O1 Gd1 O10 78.86(9) . 4_675 ?
O1 Gd1 O10 78.86(9) . 1_655 ?
O2 Gd1 O1 53.1(2) . . ?
O2 Gd1 O3 147.37(13) . 1_455 ?
O2 Gd1 O3 147.37(13) . 4_475 ?
O2 Gd1 O12 130.8(2) . . ?
O2 Gd1 O10 94.87(10) . 4_675 ?
O2 Gd1 O10 94.87(10) . 1_655 ?
O3 Gd1 O3 49.41(16) 4_475 1_455 ?
O4 Gd1 O1 122.3(7) 4_575 . ?
O4 Gd1 O1 122.3(7) . . ?
O4 Gd1 O2 79.6(8) . . ?
O4 Gd1 O2 79.6(8) 4_575 . ?
O4 Gd1 O3 96.6(7) . 1_455 ?
O4 Gd1 O3 96.6(7) 4_575 4_475 ?
O4 Gd1 O3 69.0(8) 4_575 1_455 ?
O4 Gd1 O3 69.0(8) . 4_475 ?
O4 Gd1 O4 69.0(16) 4_575 . ?
O4 Gd1 O12 136.6(8) . . ?
O4 Gd1 O12 136.6(8) 4_575 . ?
O4 Gd1 O10 142.9(8) . 4_675 ?
O4 Gd1 O10 74.0(8) . 1_655 ?
O4 Gd1 O10 142.9(8) 4_575 1_655 ?
O4 Gd1 O10 74.0(8) 4_575 4_675 ?
O4A Gd1 O1 113.5(8) 4_575 . ?
O4A Gd1 O1 113.5(8) . . ?
O4A Gd1 O2 73.2(9) 4_575 . ?
O4A Gd1 O2 73.2(9) . . ?
O4A Gd1 O12 136.9(11) 4_575 . ?
O4A Gd1 O12 136.9(11) . . ?
O12 Gd1 O3 72.97(14) . 4_475 ?
O12 Gd1 O3 72.97(14) . 1_455 ?
O12 Gd1 O10 73.34(9) . 4_675 ?
O12 Gd1 O10 73.34(9) . 1_655 ?
O10 Gd1 O3 115.40(12) 4_675 4_475 ?
O10 Gd1 O3 68.67(12) 4_675 1_455 ?
O10 Gd1 O3 68.67(12) 1_655 4_475 ?
O10 Gd1 O3 115.40(12) 1_655 1_455 ?
O10 Gd1 O10 143.02(19) 4_675 1_655 ?
O3 Gd2 O6 70.6(4) 4_475 1_556 ?
O3 Gd2 O6A 78.6(5) 4_475 1_556 ?
O3 Gd2 O7 123.5(4) 4_475 1_556 ?
O3 Gd2 O7A 129.7(5) 4_475 1_556 ?
O3 Gd2 O8 79.11(14) 4_475 . ?
O3 Gd2 O9 87.2(3) 4_475 . ?
O3 Gd2 O10 69.59(12) 4_475 1_655 ?
O3 Gd2 O11 119.44(12) 4_475 1_655 ?
O3 Gd2 N2 147.02(14) 4_475 3_666 ?
O3 Gd2 O19 100.6(3) 4_475 . ?
O5 Gd2 O3 76.93(13) . 4_475 ?
O5 Gd2 O6 143.1(3) . 1_556 ?
O5 Gd2 O6A 142.2(5) . 1_556 ?
O5 Gd2 O7 150.3(5) . 1_556 ?
O5 Gd2 O7A 149.1(7) . 1_556 ?
O5 Gd2 O8 80.16(15) . . ?
O5 Gd2 O9 132.4(3) . . ?
O5 Gd2 O10 76.56(13) . 1_655 ?
O5 Gd2 O11 78.06(15) . 1_655 ?
O5 Gd2 N2 78.60(14) . 3_666 ?
O5 Gd2 O19 129.6(3) . . ?
O6 Gd2 O7 53.2(4) 1_556 1_556 ?
O6 Gd2 O7A 59.0(6) 1_556 1_556 ?
O6 Gd2 O8 109.6(6) 1_556 . ?
O6 Gd2 O10 76.1(5) 1_556 1_655 ?
O6 Gd2 O11 102.9(6) 1_556 1_655 ?
O6 Gd2 N2 138.0(3) 1_556 3_666 ?
O6A Gd2 O8 122.6(8) 1_556 . ?
O6A Gd2 O19 83.1(7) 1_556 . ?
O7 Gd2 O7A 7.7(7) 1_556 1_556 ?
O7 Gd2 O8 122.0(6) 1_556 . ?
O7 Gd2 O10 90.2(5) 1_556 1_655 ?
O7 Gd2 O11 73.0(5) 1_556 1_655 ?
O7 Gd2 N2 88.0(4) 1_556 3_666 ?
O8 Gd2 O7A 116.5(8) . 1_556 ?
O8 Gd2 O10 144.33(14) . 1_655 ?
O8 Gd2 N2 75.19(16) . 3_666 ?
O9 Gd2 O6 63.6(6) . 1_556 ?
O9 Gd2 O7 74.2(6) . 1_556 ?
O9 Gd2 O7A 71.5(8) . 1_556 ?
O9 Gd2 O8 52.7(3) . . ?
O9 Gd2 O10 138.5(3) . 1_655 ?
O9 Gd2 O11 145.7(3) . 1_655 ?
O9 Gd2 N2 93.3(3) . 3_666 ?
O11 Gd2 O7A 74.6(8) 1_655 1_556 ?
O11 Gd2 O8 146.67(15) 1_655 . ?
O11 Gd2 O10 51.25(13) 1_655 1_655 ?
O11 Gd2 N2 75.99(15) 1_655 3_666 ?
N2 Gd2 O7A 81.0(5) 3_666 1_556 ?
N2 Gd2 O10 124.97(14) 3_666 1_655 ?
O19 Gd2 O8 50.7(3) . . ?
C1 O1 Gd1 92.5(5) . . ?
C1 O1 Gd1 92.5(5) 4_575 . ?
C1 O1 C1 0.0(2) 4_575 . ?
C1 O2 Gd1 94.1(5) . . ?
C1 O2 Gd1 94.1(5) 4_575 . ?
C1 O2 C1 0.0(5) 4_575 . ?
Gd2 O3 Gd1 111.05(13) 4_675 1_655 ?
C13 O3 Gd1 94.9(3) . 1_655 ?
C13 O3 Gd2 152.7(4) . 4_675 ?
C14 O4 Gd1 147(3) . . ?
C14A O4A Gd1 143(3) . . ?
C14 O5 Gd2 135.4(8) . . ?
C14A O5 Gd2 133.0(11) . . ?
Gd1 O12 H12 109.4 . . ?
Gd1 O12 H12 109.43(6) . 4_575 ?
H12 O12 H12 115.1 . 4_575 ?
C26 O6 Gd2 93.1(8) . 1_554 ?
C26 O7 Gd2 92.5(9) . 1_554 ?
C27 O8 Gd2 91.6(4) . . ?
C27 O9 Gd2 94.3(6) . . ?
Gd1 O10 Gd2 109.74(13) 1_455 1_455 ?
C00D O10 Gd1 149.3(3) . 1_455 ?
C00D O10 Gd2 91.0(3) . 1_455 ?
C00D O11 Gd2 96.4(3) . 1_455 ?
C23 N2 Gd2 118.2(4) . 3_666 ?
C24 N2 Gd2 124.5(4) . 3_666 ?
C24 N2 C23 116.9(5) . . ?
C37 N3 C36 116.8(14) . . ?
C36A N7 H7 124.0 . . ?
C37A N7 H7 124.0 . . ?
C37A N7 C36A 111.9(19) . . ?
O10 C00D C31 119.3(5) . . ?
O11 C00D O10 121.3(5) . . ?
O11 C00D C31 119.4(5) . . ?
O1 C1 O2 120.3(7) . . ?
O1 C1 C2 120.9(7) . . ?
O2 C1 C2 118.7(7) . . ?
C1 C1 O1 0(10) 4_575 . ?
C1 C1 O2 0(10) 4_575 . ?
C1 C1 C2 0(10) 4_575 . ?
C1 C2 C1 0.000(2) 4_575 . ?
C3 C2 C1 118.4(7) . . ?
C3 C2 C1 118.4(7) . 4_575 ?
C7 C2 C1 120.4(8) . . ?
C7 C2 C1 120.4(8) . 4_575 ?
C7 C2 C3 121.0(8) . . ?
C2 C3 H3 120.4 . . ?
C4 C3 C2 119.1(10) . . ?
C4 C3 H3 120.4 . . ?
C3 C4 C5 119.4(10) . . ?
C3 C4 C8 118.3(9) . . ?
C5 C4 C8 122.1(8) . . ?
C4 C5 C13 121.4(7) . . ?
C6 C5 C4 120.0(8) . . ?
C6 C5 C13 118.4(7) . . ?
C5 C6 H6 119.9 . . ?
C5 C6 C7 120.2(9) . . ?
C7 C6 H6 119.9 . . ?
C2 C7 C6 119.9(10) . . ?
C2 C7 H7A 120.1 . . ?
C6 C7 H7A 120.1 . . ?
C9 C8 C4 120.2(8) . . ?
C9 C8 C12 120.0 . . ?
C12 C8 C4 119.7(8) . . ?
C8 C9 H9 120.0 . . ?
C10 C9 C8 120.0 . . ?
C10 C9 H9 120.0 . . ?
C9 C10 H10 120.0 . . ?
C9 C10 N1 120.0 . . ?
N1 C10 H10 120.0 . . ?
C11 N1 C10 120.0 . . ?
N1 C11 H11 120.0 . . ?
N1 C11 C12 120.0 . . ?
C12 C11 H11 120.0 . . ?
C8 C12 H12A 120.0 . . ?
C11 C12 C8 120.0 . . ?
C11 C12 H12A 120.0 . . ?
O3 C13 Gd1 60.4(3) . 1_655 ?
O3 C13 Gd1 60.4(3) 4_575 1_655 ?
O3 C13 O3 120.6(6) . 4_575 ?
O3 C13 C5 119.7(3) 4_575 . ?
O3 C13 C5 119.7(3) . . ?
C5 C13 Gd1 177.3(5) . 1_655 ?
O4 C14 C15 116.6(19) . . ?
O5 C14 O4 125(2) . . ?
O5 C14 C15 118.5(14) . . ?
O4A C14A O5 129(3) . . ?
O4A C14A C15A 115(3) . . ?
O5 C14A C15A 115.2(18) . . ?
C16 C15 C14 119.7(13) . . ?
C20 C15 C14 117.1(10) . . ?
C20 C15 C16 123.1(14) . . ?
C16 C15A C14A 123.3(16) . . ?
C20A C15A C14A 120.4(11) . . ?
C20A C15A C16 116.3(16) . . ?
C15 C16 H16 119.7 . . ?
C15 C16 C17 120.5(8) . . ?
C15A C16 H16A 118.6 . . ?
C15A C16 C17 122.9(10) . . ?
C17 C16 H16 119.7 . . ?
C17 C16 H16A 118.6 . . ?
C16 C17 C18 116.2(7) . . ?
C16 C17 C18A 120.3(8) . . ?
C16 C17 C21 117.2(5) . . ?
C18 C17 C21 126.0(7) . . ?
C18A C17 C21 121.5(8) . . ?
C17 C18 C26 123.8(10) . . ?
C19 C18 C17 121.4(11) . . ?
C19 C18 C26 114.4(10) . . ?
C17 C18A C26A 123.5(13) . . ?
C19A C18A C17 116.0(13) . . ?
C19A C18A C26A 119.8(12) . . ?
C18 C19 H19 119.7 . . ?
C20 C19 C18 120.6(13) . . ?
C20 C19 H19 119.7 . . ?
C18A C19A H19A 118.9 . . ?
C20A C19A C18A 122.3(15) . . ?
C20A C19A H19A 118.9 . . ?
C15 C20 H20 121.0 . . ?
C19 C20 C15 118.0(14) . . ?
C19 C20 H20 121.0 . . ?
C15A C20A H20A 118.9 . . ?
C19A C20A C15A 122.2(17) . . ?
C19A C20A H20A 118.9 . . ?
C22 C21 C17 118.6(5) . . ?
C22 C21 C25 117.0(5) . . ?
C25 C21 C17 124.3(5) . . ?
C21 C22 H22 120.2 . . ?
C21 C22 C23 119.7(5) . . ?
C23 C22 H22 120.2 . . ?
N2 C23 C22 122.9(6) . . ?
N2 C23 H23 118.5 . . ?
C22 C23 H23 118.5 . . ?
N2 C24 H24 118.1 . . ?
N2 C24 C25 123.8(5) . . ?
C25 C24 H24 118.1 . . ?
C21 C25 H25 120.2 . . ?
C24 C25 C21 119.5(6) . . ?
C24 C25 H25 120.2 . . ?
O6 C26 Gd2 59.8(7) . 1_554 ?
O6 C26 C18 116.8(11) . . ?
O7 C26 Gd2 61.0(8) . 1_554 ?
O7 C26 O6 119.3(11) . . ?
O7 C26 C18 123.9(11) . . ?
C18 C26 Gd2 167.5(13) . 1_554 ?
O6A C26A C18A 115.1(15) . . ?
O7A C26A O6A 122.2(16) . . ?
O7A C26A C18A 122.8(15) . . ?
O8 C27 O9 118.3(7) . . ?
O8 C27 C28 121.0(6) . . ?
O9 C27 C28 118.9(7) . . ?
O19 C27 O8 118.3(7) . . ?
O19 C27 C28 118.6(7) . . ?
C27 C28 C29A 114.2(7) . . ?
C29 C28 C27 120.4(7) . . ?
C29 C28 C33 118.6(8) . . ?
C33 C28 C27 120.2(7) . . ?
C33A C28 C27 126.6(9) . . ?
C33A C28 C29A 118.7(9) . . ?
C28 C29 H29 118.1 . . ?
C28 C29 C30 123.7(10) . . ?
C30 C29 H29 118.1 . . ?
C28 C29A H29A 120.7 . . ?
C30A C29A C28 118.5(12) . . ?
C30A C29A H29A 120.7 . . ?
C29 C30 C34 118.4(10) . . ?
C31 C30 C29 117.6(9) . . ?
C31 C30 C34 123.9(9) . . ?
C29A C30A C31 114.7(11) . . ?
C29A C30A C34A 120.9(12) . . ?
C34A C30A C31 124.4(10) . . ?
C00D C31 C30A 117.0(6) . . ?
C30 C31 C00D 123.8(6) . . ?
C30 C31 C32 119.6(7) . . ?
C32 C31 C00D 115.2(7) . . ?
C32A C31 C00D 122.8(9) . . ?
C32A C31 C30A 119.7(9) . . ?
C31 C32 H32 120.2 . . ?
C33 C32 C31 119.5(11) . . ?
C33 C32 H32 120.2 . . ?
C31 C32A H32A 118.1 . . ?
C31 C32A C33A 123.8(15) . . ?
C33A C32A H32A 118.1 . . ?
C28 C33 H33 121.2 . . ?
C32 C33 C28 117.6(11) . . ?
C32 C33 H33 121.2 . . ?
C28 C33A C32A 124.1(15) . . ?
C28 C33A H33A 118.0 . . ?
C32A C33A H33A 118.0 . . ?
C35 C34 C30 122.2(12) . . ?
C35 C34 C38 119.1(12) . . ?
C38 C34 C30 118.6(11) . . ?
C35A C34A C30A 125.6(18) . . ?
C35A C34A C38A 115.6(17) . . ?
C38A C34A C30A 118.8(14) . . ?
C34 C35 H35 120.8 . . ?
C34 C35 C36 118.4(16) . . ?
C36 C35 H35 120.8 . . ?
C34A C35A H35A 117.9 . . ?
C34A C35A C36A 124(2) . . ?
C36A C35A H35A 117.9 . . ?
N3 C36 C35 123.0(17) . . ?
N3 C36 H36 118.5 . . ?
C35 C36 H36 118.5 . . ?
N7 C36A H36A 118.7 . . ?
C35A C36A N7 123(2) . . ?
C35A C36A H36A 118.7 . . ?
N3 C37 H37 116.9 . . ?
C38 C37 N3 126.2(16) . . ?
C38 C37 H37 116.9 . . ?
N7 C37A H37A 115.8 . . ?
N7 C37A C38A 128(2) . . ?
C38A C37A H37A 115.8 . . ?
C34 C38 H38 122.1 . . ?
C37 C38 C34 115.8(14) . . ?
C37 C38 H38 122.1 . . ?
C34A C38A C37A 116.2(19) . . ?
C34A C38A H38A 121.9 . . ?
C37A C38A H38A 121.9 . . ?
H13A O13 H13B 104.5 . . ?
H14A O14 H14A 38.7 . 4_575 ?
H14A O14 H14B 104.5 . . ?
H14A O14 H14B 65.9 . 4_575 ?
H14A O14 H14B 104.5 4_575 4_575 ?
H14B O14 H14A 65.9 . 4_575 ?
H14B O14 H14B 165.6 . 4_575 ?
C27 O19 Gd2 97.2(7) . . ?
loop_
_geom_bond_atom_site_label_1
_geom_bond_atom_site_label_2
_geom_bond_distance
_geom_bond_site_symmetry_2
_geom_bond_publ_flag
Gd1 O1 2.435(6) . ?
Gd1 O2 2.388(6) . ?
Gd1 O3 2.595(3) 4_475 ?
Gd1 O3 2.595(3) 1_455 ?
Gd1 O4 2.35(3) 4_575 ?
Gd1 O4 2.35(3) . ?
Gd1 O4A 2.35(3) 4_575 ?
Gd1 O4A 2.35(3) . ?
Gd1 O12 2.444(5) . ?
Gd1 O10 2.451(4) 1_655 ?
Gd1 O10 2.451(4) 4_675 ?
Gd2 O3 2.400(4) 4_475 ?
Gd2 O5 2.349(4) . ?
Gd2 O6 2.441(15) 1_556 ?
Gd2 O6A 2.410(17) 1_556 ?
Gd2 O7 2.467(18) 1_556 ?
Gd2 O7A 2.58(3) 1_556 ?
Gd2 O8 2.519(4) . ?
Gd2 O9 2.419(10) . ?
Gd2 O10 2.585(4) 1_655 ?
Gd2 O11 2.479(4) 1_655 ?
Gd2 N2 2.528(5) 3_666 ?
Gd2 O19 2.413(11) . ?
O1 C1 1.231(10) . ?
O1 C1 1.231(10) 4_575 ?
O2 C1 1.253(10) . ?
O2 C1 1.253(10) 4_575 ?
O3 C13 1.249(5) . ?
O4 C14 1.258(11) . ?
O4A C14A 1.252(13) . ?
O5 C14 1.258(11) . ?
O5 C14A 1.253(13) . ?
O12 H12 0.8499 . ?
O12 H12 0.8499 4_575 ?
O6 C26 1.285(11) . ?
O6A C26A 1.277(13) . ?
O7 C26 1.262(16) . ?
O7A C26A 1.23(2) . ?
O8 C27 1.238(8) . ?
O9 C27 1.316(12) . ?
O10 C00D 1.267(6) . ?
O11 C00D 1.249(6) . ?
N2 C23 1.336(7) . ?
N2 C24 1.333(7) . ?
N3 C36 1.37(2) . ?
N3 C37 1.37(2) . ?
N7 H7 0.8600 . ?
N7 C36A 1.38(3) . ?
N7 C37A 1.28(3) . ?
C00D C31 1.510(7) . ?
C1 C1 0.000(16) 4_575 ?
C1 C2 1.509(10) . ?
C2 C3 1.416(13) . ?
C2 C7 1.338(13) . ?
C3 H3 0.9300 . ?
C3 C4 1.373(14) . ?
C4 C5 1.410(13) . ?
C4 C8 1.528(13) . ?
C5 C6 1.369(12) . ?
C5 C13 1.504(9) . ?
C6 H6 0.9300 . ?
C6 C7 1.400(12) . ?
C7 H7A 0.9300 . ?
C8 C9 1.3900 . ?
C8 C12 1.3900 . ?
C9 H9 0.9300 . ?
C9 C10 1.3900 . ?
C10 H10 0.9300 . ?
C10 N1 1.3900 . ?
N1 C11 1.3900 . ?
C11 H11 0.9300 . ?
C11 C12 1.3900 . ?
C12 H12A 0.9300 . ?
C14 C15 1.520(11) . ?
C14A C15A 1.517(13) . ?
C15 C16 1.393(12) . ?
C15 C20 1.389(13) . ?
C15A C16 1.387(14) . ?
C15A C20A 1.384(14) . ?
C16 H16 0.9300 . ?
C16 H16A 0.9300 . ?
C16 C17 1.398(7) . ?
C17 C18 1.441(11) . ?
C17 C18A 1.417(12) . ?
C17 C21 1.487(7) . ?
C18 C19 1.411(12) . ?
C18 C26 1.507(11) . ?
C18A C19A 1.397(14) . ?
C18A C26A 1.503(13) . ?
C19 H19 0.9300 . ?
C19 C20 1.376(12) . ?
C19A H19A 0.9300 . ?
C19A C20A 1.381(13) . ?
C20 H20 0.9300 . ?
C20A H20A 0.9300 . ?
C21 C22 1.385(8) . ?
C21 C25 1.387(7) . ?
C22 H22 0.9300 . ?
C22 C23 1.390(8) . ?
C23 H23 0.9300 . ?
C24 H24 0.9300 . ?
C24 C25 1.375(8) . ?
C25 H25 0.9300 . ?
C27 C28 1.507(8) . ?
C27 O19 1.223(12) . ?
C28 C29 1.315(12) . ?
C28 C29A 1.553(15) . ?
C28 C33 1.474(13) . ?
C28 C33A 1.197(17) . ?
C29 H29 0.9300 . ?
C29 C30 1.399(14) . ?
C29A H29A 0.9300 . ?
C29A C30A 1.396(16) . ?
C30 C31 1.393(12) . ?
C30 C34 1.485(15) . ?
C30A C31 1.529(14) . ?
C30A C34A 1.487(19) . ?
C31 C32 1.434(13) . ?
C31 C32A 1.253(16) . ?
C32 H32 0.9300 . ?
C32 C33 1.388(15) . ?
C32A H32A 0.9300 . ?
C32A C33A 1.409(18) . ?
C33 H33 0.9300 . ?
C33A H33A 0.9300 . ?
C34 C35 1.399(19) . ?
C34 C38 1.480(19) . ?
C34A C35A 1.33(2) . ?
C34A C38A 1.38(2) . ?
C35 H35 0.9300 . ?
C35 C36 1.42(2) . ?
C35A H35A 0.9300 . ?
C35A C36A 1.35(3) . ?
C36 H36 0.9300 . ?
C36A H36A 0.9300 . ?
C37 H37 0.9300 . ?
C37 C38 1.362(19) . ?
C37A H37A 0.9300 . ?
C37A C38A 1.42(2) . ?
C38 H38 0.9300 . ?
C38A H38A 0.9300 . ?
O13 H13A 0.8502 . ?
O13 H13B 0.8494 . ?
O14 H14A 0.8499 . ?
O14 H14A 0.8499 4_575 ?
O14 H14B 0.8500 4_575 ?
O14 H14B 0.8501 . ?
loop_
_geom_torsion_atom_site_label_1
_geom_torsion_atom_site_label_2
_geom_torsion_atom_site_label_3
_geom_torsion_atom_site_label_4
_geom_torsion
_geom_torsion_site_symmetry_1
_geom_torsion_site_symmetry_2
_geom_torsion_site_symmetry_3
_geom_torsion_site_symmetry_4
_geom_torsion_publ_flag
Gd1 O1 C1 O2 0.000(2) . . . . ?
Gd1 O1 C1 C1 0(100) . . . 4_575 ?
Gd1 O1 C1 C2 180.000(2) . . . . ?
Gd1 O2 C1 O1 0.000(2) . . . . ?
Gd1 O2 C1 C1 0.0(9) . . . 4_575 ?
Gd1 O2 C1 C2 180.000(2) . . . . ?
Gd1 O3 C13 O3 5.7(7) 1_655 . . 4_575 ?
Gd1 O3 C13 C5 -176.9(5) 1_655 . . . ?
Gd1 O4 C14 O5 7(4) . . . . ?
Gd1 O4 C14 C15 -171(2) . . . . ?
Gd1 O4A C14A O5 -9(5) . . . . ?
Gd1 O4A C14A C15A 168(3) . . . . ?
Gd1 O10 C00D O11 -136.4(5) 1_455 . . . ?
Gd1 O10 C00D C31 41.2(10) 1_455 . . . ?
Gd2 O3 C13 Gd1 -161.9(9) 4_675 . . 1_655 ?
Gd2 O3 C13 O3 -156.2(3) 4_675 . . 4_575 ?
Gd2 O3 C13 C5 21.2(12) 4_675 . . . ?
Gd2 O5 C14 O4 3(3) . . . . ?
Gd2 O5 C14 C15 -178.9(10) . . . . ?
Gd2 O5 C14A O4A -7(3) . . . . ?
Gd2 O5 C14A C15A 175.5(5) . . . . ?
Gd2 O6 C26 O7 14.0(16) 1_554 . . . ?
Gd2 O6 C26 C18 -166.3(14) 1_554 . . . ?
Gd2 O6A C26A O7A 14.4(18) 1_554 . . . ?
Gd2 O6A C26A C18A -166.3(13) 1_554 . . . ?
Gd2 O7 C26 O6 -13.9(16) 1_554 . . . ?
Gd2 O7 C26 C18 166.5(16) 1_554 . . . ?
Gd2 O7A C26A O6A -13.4(16) 1_554 . . . ?
Gd2 O7A C26A C18A 167.4(14) 1_554 . . . ?
Gd2 O8 C27 O9 17.4(9) . . . . ?
Gd2 O8 C27 C28 -178.0(5) . . . . ?
Gd2 O8 C27 O19 -14.7(9) . . . . ?
Gd2 O9 C27 O8 -18.2(9) . . . . ?
Gd2 O9 C27 C28 176.9(5) . . . . ?
Gd2 O10 C00D O11 -2.6(5) 1_455 . . . ?
Gd2 O10 C00D C31 174.9(5) 1_455 . . . ?
Gd2 O11 C00D O10 2.7(6) 1_455 . . . ?
Gd2 O11 C00D C31 -174.8(4) 1_455 . . . ?
Gd2 N2 C23 C22 171.5(5) 3_666 . . . ?
Gd2 N2 C24 C25 -171.5(5) 3_666 . . . ?
O1 C1 C2 C1 0(100) . . . 4_575 ?
O1 C1 C2 C3 -158.9(6) . . . . ?
O1 C1 C2 C7 15.4(6) . . . . ?
O2 C1 C2 C1 0(100) . . . 4_575 ?
O2 C1 C2 C3 21.1(6) . . . . ?
O2 C1 C2 C7 -164.6(6) . . . . ?
O4 C14 C15 C16 174(2) . . . . ?
O4 C14 C15 C20 -9(3) . . . . ?
O4A C14A C15A C16 179(2) . . . . ?
O4A C14A C15A C20A 0.7(18) . . . . ?
O5 C14 C15 C16 -4(2) . . . . ?
O5 C14 C15 C20 172(2) . . . . ?
O5 C14A C15A C16 -3.6(13) . . . . ?
O5 C14A C15A C20A 178(2) . . . . ?
O8 C27 C28 C29 155.5(9) . . . . ?
O8 C27 C28 C29A -152.5(8) . . . . ?
O8 C27 C28 C33 -14.3(11) . . . . ?
O8 C27 C28 C33A 19.9(15) . . . . ?
O8 C27 O19 Gd2 15.4(10) . . . . ?
O9 C27 C28 C29 -40.0(12) . . . . ?
O9 C27 C28 C33 150.2(10) . . . . ?
O10 C00D C31 C30 122.1(8) . . . . ?
O10 C00D C31 C30A 67.7(9) . . . . ?
O10 C00D C31 C32 -71.5(9) . . . . ?
O10 C00D C31 C32A -103.8(12) . . . . ?
O11 C00D C31 C30 -60.3(10) . . . . ?
O11 C00D C31 C30A -114.7(8) . . . . ?
O11 C00D C31 C32 106.1(8) . . . . ?
O11 C00D C31 C32A 73.8(13) . . . . ?
N2 C24 C25 C21 1.0(9) . . . . ?
N3 C37 C38 C34 9(3) . . . . ?
N7 C37A C38A C34A 6(4) . . . . ?
C00D C31 C32 C33 -179.9(10) . . . . ?
C00D C31 C32A C33A 178.0(13) . . . . ?
C1 O1 C1 O2 0(100) 4_575 . . . ?
C1 O1 C1 C2 0(100) 4_575 . . . ?
C1 O2 C1 O1 0(65) 4_575 . . . ?
C1 O2 C1 C2 0(100) 4_575 . . . ?
C1 C1 C2 C3 0(100) 4_575 . . . ?
C1 C1 C2 C7 0(100) 4_575 . . . ?
C1 C2 C3 C4 -178.8(8) . . . . ?
C1 C2 C3 C4 -178.8(8) 4_575 . . . ?
C1 C2 C7 C6 178.3(8) 4_575 . . . ?
C1 C2 C7 C6 178.3(8) . . . . ?
C2 C3 C4 C5 -1.5(15) . . . . ?
C2 C3 C4 C8 173.4(9) . . . . ?
C3 C2 C7 C6 -7.5(14) . . . . ?
C3 C4 C5 C6 -3.1(13) . . . . ?
C3 C4 C5 C13 -178.3(8) . . . . ?
C3 C4 C8 C9 -123.7(10) . . . . ?
C3 C4 C8 C12 52.3(13) . . . . ?
C4 C5 C6 C7 2.6(13) . . . . ?
C4 C5 C13 O3 70.2(9) . . . . ?
C4 C5 C13 O3 -112.4(7) . . . 4_575 ?
C4 C8 C9 C10 176.0(9) . . . . ?
C4 C8 C12 C11 -176.0(9) . . . . ?
C5 C4 C8 C9 51.0(12) . . . . ?
C5 C4 C8 C12 -133.0(8) . . . . ?
C5 C6 C7 C2 2.8(15) . . . . ?
C6 C5 C13 O3 72.4(8) . . . 4_575 ?
C6 C5 C13 O3 -105.0(7) . . . . ?
C7 C2 C3 C4 6.9(14) . . . . ?
C8 C4 C5 C6 -177.8(9) . . . . ?
C8 C4 C5 C13 7.1(12) . . . . ?
C8 C9 C10 N1 0.0 . . . . ?
C9 C8 C12 C11 0.0 . . . . ?
C9 C10 N1 C11 0.0 . . . . ?
C10 N1 C11 C12 0.0 . . . . ?
N1 C11 C12 C8 0.0 . . . . ?
C12 C8 C9 C10 0.0 . . . . ?
C13 C5 C6 C7 177.9(8) . . . . ?
C14 C15 C16 C17 -179.8(12) . . . . ?
C14 C15 C20 C19 -178.2(15) . . . . ?
C14A C15A C16 C17 179.5(7) . . . . ?
C14A C15A C20A C19A -178.8(12) . . . . ?
C15 C16 C17 C18 -4.9(15) . . . . ?
C15 C16 C17 C21 -176.7(13) . . . . ?
C15A C16 C17 C18A 2.9(14) . . . . ?
C15A C16 C17 C21 171.4(11) . . . . ?
C16 C15 C20 C19 -2(3) . . . . ?
C16 C15A C20A C19A 3(2) . . . . ?
C16 C17 C18 C19 4.7(16) . . . . ?
C16 C17 C18 C26 177.2(13) . . . . ?
C16 C17 C18A C19A -3.9(17) . . . . ?
C16 C17 C18A C26A -174.7(11) . . . . ?
C16 C17 C21 C22 -45.7(8) . . . . ?
C16 C17 C21 C25 132.4(6) . . . . ?
C17 C18 C19 C20 -3(2) . . . . ?
C17 C18 C26 Gd2 84(4) . . . 1_554 ?
C17 C18 C26 O6 155.1(14) . . . . ?
C17 C18 C26 O7 -25(2) . . . . ?
C17 C18A C19A C20A 5(2) . . . . ?
C17 C18A C26A Gd2 92(5) . . . 1_554 ?
C17 C18A C26A O6A 148.5(14) . . . . ?
C17 C18A C26A O7A -32(2) . . . . ?
C17 C21 C22 C23 -179.4(6) . . . . ?
C17 C21 C25 C24 179.1(5) . . . . ?
C18 C17 C21 C22 143.4(13) . . . . ?
C18 C17 C21 C25 -38.6(14) . . . . ?
C18 C19 C20 C15 1(3) . . . . ?
C18A C17 C21 C22 122.7(12) . . . . ?
C18A C17 C21 C25 -59.3(13) . . . . ?
C18A C19A C20A C15A -4(2) . . . . ?
C19 C18 C26 Gd2 -103(4) . . . 1_554 ?
C19 C18 C26 O6 -32(2) . . . . ?
C19 C18 C26 O7 147.7(17) . . . . ?
C19A C18A C26A Gd2 -78(5) . . . 1_554 ?
C19A C18A C26A O6A -22(2) . . . . ?
C19A C18A C26A O7A 157(2) . . . . ?
C20 C15 C16 C17 4(3) . . . . ?
C20A C15A C16 C17 -2.2(17) . . . . ?
C21 C17 C18 C19 175.7(12) . . . . ?
C21 C17 C18 C26 -12(2) . . . . ?
C21 C17 C18A C19A -171.9(10) . . . . ?
C21 C17 C18A C26A 17(2) . . . . ?
C21 C22 C23 N2 -0.1(11) . . . . ?
C22 C21 C25 C24 -2.8(9) . . . . ?
C23 N2 C24 C25 1.4(9) . . . . ?
C24 N2 C23 C22 -1.8(10) . . . . ?
C25 C21 C22 C23 2.4(9) . . . . ?
C26 C18 C19 C20 -176.1(15) . . . . ?
C26A C18A C19A C20A 175.9(15) . . . . ?
C27 C28 C29 C30 174.9(10) . . . . ?
C27 C28 C29A C30A 177.8(10) . . . . ?
C27 C28 C33 C32 -174.0(9) . . . . ?
C27 C28 C33A C32A -175.6(13) . . . . ?
C28 C27 O19 Gd2 179.2(5) . . . . ?
C28 C29 C30 C31 -0.1(18) . . . . ?
C28 C29 C30 C34 -175.2(11) . . . . ?
C28 C29A C30A C31 -0.7(17) . . . . ?
C28 C29A C30A C34A 176.7(12) . . . . ?
C29 C28 C33 C32 16.1(15) . . . . ?
C29 C30 C31 C00D -179.7(9) . . . . ?
C29 C30 C31 C32 14.5(15) . . . . ?
C29 C30 C34 C35 133.7(14) . . . . ?
C29 C30 C34 C38 -46.7(17) . . . . ?
C29A C28 C33A C32A -3(2) . . . . ?
C29A C30A C31 C00D -176.5(9) . . . . ?
C29A C30A C31 C32A -4.8(17) . . . . ?
C29A C30A C34A C35A -130.1(19) . . . . ?
C29A C30A C34A C38A 49(2) . . . . ?
C30 C31 C32 C33 -12.9(16) . . . . ?
C30 C34 C35 C36 -174.4(16) . . . . ?
C30 C34 C38 C37 173.0(14) . . . . ?
C30A C31 C32A C33A 7(2) . . . . ?
C30A C34A C35A C36A 172.8(19) . . . . ?
C30A C34A C38A C37A -175.2(19) . . . . ?
C31 C30 C34 C35 -41.0(19) . . . . ?
C31 C30 C34 C38 138.5(12) . . . . ?
C31 C30A C34A C35A 47(2) . . . . ?
C31 C30A C34A C38A -133.8(15) . . . . ?
C31 C32 C33 C28 -2.2(17) . . . . ?
C31 C32A C33A C28 -3(3) . . . . ?
C33 C28 C29 C30 -15.2(17) . . . . ?
C33A C28 C29A C30A 4.7(18) . . . . ?
C34 C30 C31 C00D -4.9(16) . . . . ?
C34 C30 C31 C32 -170.8(11) . . . . ?
C34 C35 C36 N3 -5(3) . . . . ?
C34A C30A C31 C00D 6.2(16) . . . . ?
C34A C30A C31 C32A 177.9(15) . . . . ?
C34A C35A C36A N7 0(4) . . . . ?
C35 C34 C38 C37 -7(2) . . . . ?
C35A C34A C38A C37A 4(3) . . . . ?
C36 N3 C37 C38 -8(3) . . . . ?
C36A N7 C37A C38A -12(4) . . . . ?
C37 N3 C36 C35 6(3) . . . . ?
C37A N7 C36A C35A 9(4) . . . . ?
C38 C34 C35 C36 6(2) . . . . ?
C38A C34A C35A C36A -6(3) . . . . ?
O19 C27 C28 C29A 44.2(12) . . . . ?
O19 C27 C28 C33A -143.4(15) . . . . ?
loop_
_platon_squeeze_void_nr
_platon_squeeze_void_average_x
_platon_squeeze_void_average_y
_platon_squeeze_void_average_z
_platon_squeeze_void_volume
_platon_squeeze_void_count_electrons
_platon_squeeze_void_content
1 0.000 0.000 0.500 181 44 ' '
2 0.000 0.500 0.500 181 44 ' '
3 0.250 -0.009 0.848 16 4 ' '
4 0.250 0.509 0.848 16 4 ' '
5 0.750 0.009 0.152 16 4 ' '
6 0.750 0.491 0.152 16 4 ' '
